#------------------------------------------------------------------------------
#$Date: 2017-09-12 06:57:32 +0300 (Tue, 12 Sep 2017) $
#$Revision: 200717 $
#$URL: file:///home/coder/svn-repositories/cod/cif/1/54/64/1546405.cif $
#------------------------------------------------------------------------------
#
# This file is available in the Crystallography Open Database (COD),
# http://www.crystallography.net/
#
# All data on this site have been placed in the public domain by the
# contributors.
#
data_1546405
loop_
_publ_author_name
'Ou, Chang-Jin'
'Ding, Xue-Hua'
'Li, Yin-Xiang'
'Zhu, Can'
'Yu, Meng-Na'
'Xie, Ling-Hai'
'Lin, Jin-Yi'
'Xu, Chun-Xiang'
'Huang, Wei'
_publ_section_title
;
 Conformational Effect of Polymorphic Terfluorene on Photophysics, Crystal
 Morphologies, and Lasing Behaviors
;
_journal_issue                   27
_journal_name_full               'The Journal of Physical Chemistry C'
_journal_page_first              14803
_journal_paper_doi               10.1021/acs.jpcc.7b03366
_journal_volume                  121
_journal_year                    2017
_chemical_formula_moiety         'C45 H38'
_chemical_formula_sum            'C45 H38'
_chemical_formula_weight         578.75
_space_group_crystal_system      monoclinic
_space_group_IT_number           14
_space_group_name_Hall           '-P 2yn'
_space_group_name_H-M_alt        'P 1 21/n 1'
_symmetry_space_group_name_Hall  '-P 2yn'
_symmetry_space_group_name_H-M   'P 1 21/n 1'
_atom_sites_solution_hydrogens   geom
_atom_sites_solution_primary     direct
_audit_creation_date             2016-12-27
_audit_creation_method
;
Olex2 1.2
(compiled 2016.02.19 svn.r3266 for OlexSys, GUI svn.r5155)
;
_cell_angle_alpha                90
_cell_angle_beta                 93.382(3)
_cell_angle_gamma                90
_cell_formula_units_Z            4
_cell_length_a                   8.4658(11)
_cell_length_b                   16.207(2)
_cell_length_c                   23.382(3)
_cell_measurement_reflns_used    9907
_cell_measurement_temperature    295
_cell_measurement_theta_max      28.33
_cell_measurement_theta_min      2.15
_cell_volume                     3202.5(7)
_computing_molecular_graphics    'Olex2 (Dolomanov et al., 2009)'
_computing_publication_material  'Olex2 (Dolomanov et al., 2009)'
_computing_structure_refinement  'ShelXL (Sheldrick, 2015)'
_computing_structure_solution    'ShelXS (Sheldrick, 2008)'
_diffrn_ambient_temperature      294.93
_diffrn_detector                 'CCD area detector'
_diffrn_detector_area_resol_mean 5.6
_diffrn_detector_type            'Bruker SMART CCD 6000 area detector'
_diffrn_measured_fraction_theta_full 0.998
_diffrn_measured_fraction_theta_max 0.970
_diffrn_measurement_device       'three-circle diffractometer'
_diffrn_measurement_device_type  'Bruker SMART CCD 6000 area detector'
_diffrn_measurement_method       '\w scans'
_diffrn_radiation_monochromator  graphite
_diffrn_radiation_probe          x-ray
_diffrn_radiation_type           MoK\a
_diffrn_radiation_wavelength     0.71073
_diffrn_reflns_av_R_equivalents  0.0454
_diffrn_reflns_av_unetI/netI     0.0422
_diffrn_reflns_Laue_measured_fraction_full 0.998
_diffrn_reflns_Laue_measured_fraction_max 0.970
_diffrn_reflns_limit_h_max       11
_diffrn_reflns_limit_h_min       -11
_diffrn_reflns_limit_k_max       16
_diffrn_reflns_limit_k_min       -21
_diffrn_reflns_limit_l_max       31
_diffrn_reflns_limit_l_min       -31
_diffrn_reflns_number            28960
_diffrn_reflns_point_group_measured_fraction_full 0.998
_diffrn_reflns_point_group_measured_fraction_max 0.970
_diffrn_reflns_theta_full        25.242
_diffrn_reflns_theta_max         28.346
_diffrn_reflns_theta_min         0.872
_diffrn_source                   'sealed X-ray tube'
_diffrn_source_target            Mo
_exptl_absorpt_coefficient_mu    0.068
_exptl_absorpt_correction_T_max  0.7457
_exptl_absorpt_correction_T_min  0.5290
_exptl_absorpt_correction_type   multi-scan
_exptl_absorpt_process_details   'SADABS 2014/5'
_exptl_crystal_colour            colourless
_exptl_crystal_colour_primary    colourless
_exptl_crystal_density_diffrn    1.200
_exptl_crystal_description       needle
_exptl_crystal_F_000             1232
_exptl_crystal_size_max          0.45
_exptl_crystal_size_mid          0.36
_exptl_crystal_size_min          0.23
_refine_diff_density_max         0.276
_refine_diff_density_min         -0.351
_refine_diff_density_rms         0.063
_refine_ls_extinction_method     none
_refine_ls_goodness_of_fit_ref   1.055
_refine_ls_hydrogen_treatment    constr
_refine_ls_matrix_type           full
_refine_ls_number_parameters     413
_refine_ls_number_reflns         7994
_refine_ls_number_restraints     0
_refine_ls_restrained_S_all      1.055
_refine_ls_R_factor_all          0.0793
_refine_ls_R_factor_gt           0.0595
_refine_ls_shift/su_max          0.001
_refine_ls_shift/su_mean         0.000
_refine_ls_structure_factor_coef Fsqd
_refine_ls_weighting_details
'w=1/[\s^2^(Fo^2^)+(0.0666P)^2^+1.8636P] where P=(Fo^2^+2Fc^2^)/3'
_refine_ls_weighting_scheme      calc
_refine_ls_wR_factor_gt          0.1528
_refine_ls_wR_factor_ref         0.1669
_reflns_Friedel_coverage         0.000
_reflns_number_gt                6217
_reflns_number_total             7994
_reflns_threshold_expression     'I > 2\s(I)'
_cod_data_source_file            jp7b03366_si_003.cif
_cod_data_source_block           1
_cod_depositor_comments
'Adding full bibliography for 1546404--1546406.cif.'
_cod_original_cell_volume        3202.6(7)
_cod_database_code               1546405
_shelx_space_group_comment
;
The symmetry employed for this shelxl refinement is uniquely defined
by the following loop, which should always be used as a source of
symmetry information in preference to the above space-group names.
They are only intended as comments.
;
_olex2_refinement_description
;
1. Twinned data refinement
 Scales: 0.9605(8) 0.0395(8)
2. Fixed Uiso
 At 1.2 times of:
  All C(H) groups
 At 1.5 times of:
  All C(H,H,H) groups
3.a Aromatic/amide H refined with riding coordinates:
 C2(H2), C3(H3), C4(H4), C5(H5), C8(H8), C9(H9), C11(H11), C17(H17), C18(H18),
 C21(H21), C23(H23), C24(H24), C26(H26), C32(H32), C33(H33), C36(H36), C38(H38),
  C39(H39), C40(H40), C41(H41)
3.b Idealised Me refined as rotating group:
 C14(H14A,H14B,H14C), C15(H15A,H15B,H15C), C29(H29A,H29B,H29C), C30(H30A,H30B,
 H30C), C44(H44A,H44B,H44C), C45(H45A,H45B,H45C)
;
_shelx_res_file
;
    1.res created by SHELXL-2014/7

TITL 1 in P21/n #14
REM reset to P21/n #14
CELL 0.71073 8.4658 16.2074 23.3819 90 93.382 90
ZERR 4 0.0011 0.0021 0.003 0 0.003 0
LATT 1
SYMM 0.5-X,0.5+Y,0.5-Z
SFAC C H
UNIT 180 152

L.S. 4
PLAN  -79 0 0
TEMP 21.78
CONF
BOND $H
BOND
fmap 2
acta
TWIN -1 0 0 0 -1 0 0.326 0 1 2
OMIT 0 0 2
REM <olex2.extras>
REM <HklSrc "%.\\1.hkl">
REM </olex2.extras>

WGHT    0.066600    1.863600
BASF   0.03954
FVAR       0.20349
C1    1   -0.383844    0.595355    0.165256    11.00000    0.02921    0.02939 =
         0.04586    0.00370    0.00379    0.00139
C2    1   -0.480941    0.650082    0.191450    11.00000    0.03950    0.03669 =
         0.06722   -0.00645    0.00749    0.00376
AFIX  43
H2    2   -0.442618    0.680989    0.222783    11.00000   -1.20000
AFIX   0
C3    1   -0.636703    0.658398    0.170395    11.00000    0.03679    0.04442 =
         0.08581    0.00112    0.01338    0.00938
AFIX  43
H3    2   -0.702849    0.695555    0.187611    11.00000   -1.20000
AFIX   0
C4    1   -0.694577    0.612454    0.124428    11.00000    0.02875    0.05850 =
         0.07034    0.01378    0.00208    0.00643
AFIX  43
H4    2   -0.799253    0.619075    0.110810    11.00000   -1.20000
AFIX   0
C5    1   -0.599342    0.556642    0.098238    11.00000    0.03125    0.05557 =
         0.04737    0.00598   -0.00205   -0.00153
AFIX  43
H5    2   -0.639393    0.524616    0.067723    11.00000   -1.20000
AFIX   0
C6    1   -0.442155    0.549256    0.118417    11.00000    0.02918    0.03325 =
         0.03894    0.00850    0.00138    0.00001
C7    1   -0.313788    0.498891    0.098263    11.00000    0.02954    0.03023 =
         0.03366    0.00437   -0.00140   -0.00063
C8    1   -0.310824    0.443763    0.053434    11.00000    0.03458    0.04119 =
         0.03609   -0.00187   -0.00600   -0.00374
AFIX  43
H8    2   -0.401829    0.433406    0.030312    11.00000   -1.20000
AFIX   0
C9    1   -0.170646    0.404121    0.043364    11.00000    0.04380    0.03574 =
         0.03651   -0.00737   -0.00353   -0.00129
AFIX  43
H9    2   -0.168278    0.366993    0.013101    11.00000   -1.20000
AFIX   0
C10   1   -0.032555    0.418437    0.077494    11.00000    0.03705    0.02673 =
         0.03531    0.00064   -0.00151    0.00448
C11   1   -0.037908    0.473525    0.123430    11.00000    0.03134    0.03061 =
         0.03584   -0.00160   -0.00757    0.00369
AFIX  43
H11   2    0.052253    0.483012    0.147192    11.00000   -1.20000
AFIX   0
C12   1   -0.177391    0.513742    0.133371    11.00000    0.03092    0.02649 =
         0.03180   -0.00006   -0.00192    0.00085
C13   1   -0.210925    0.575412    0.179963    11.00000    0.03022    0.02910 =
         0.03832   -0.00353    0.00067    0.00278
C14   1   -0.189904    0.535487    0.239116    11.00000    0.04933    0.05371 =
         0.03702   -0.00110   -0.00145    0.00486
AFIX 137
H14A  2   -0.253606    0.486550    0.239977    11.00000   -1.50000
H14B  2   -0.222213    0.573578    0.267618    11.00000   -1.50000
H14C  2   -0.080685    0.521246    0.246919    11.00000   -1.50000
AFIX   0
C15   1   -0.107597    0.652576    0.177003    11.00000    0.03676    0.03747 =
         0.05723   -0.01076    0.00148   -0.00392
AFIX 137
H15A  2    0.001047    0.638090    0.185877    11.00000   -1.50000
H15B  2   -0.140439    0.692571    0.204163    11.00000   -1.50000
H15C  2   -0.118569    0.675479    0.139113    11.00000   -1.50000
AFIX   0
C16   1    0.115257    0.375090    0.065069    11.00000    0.03857    0.02731 =
         0.03579   -0.00098   -0.00093    0.00503
C17   1    0.154511    0.363644    0.008383    11.00000    0.04177    0.03657 =
         0.03263    0.00466   -0.00413    0.00715
AFIX  43
H17   2    0.088717    0.385408   -0.021109    11.00000   -1.20000
AFIX   0
C18   1    0.288525    0.320832   -0.004942    11.00000    0.04288    0.03740 =
         0.02642    0.00158    0.00144    0.00486
AFIX  43
H18   2    0.312291    0.313347   -0.042922    11.00000   -1.20000
AFIX   0
C19   1    0.387080    0.289184    0.039191    11.00000    0.03587    0.02515 =
         0.02932    0.00052    0.00161    0.00229
C20   1    0.352683    0.302155    0.096317    11.00000    0.04003    0.02624 =
         0.02879    0.00127   -0.00060    0.00644
C21   1    0.218222    0.344348    0.109151    11.00000    0.04459    0.03278 =
         0.02994   -0.00180    0.00147    0.01018
AFIX  43
H21   2    0.195609    0.352487    0.147182    11.00000   -1.20000
AFIX   0
C22   1    0.531754    0.240786    0.038039    11.00000    0.03661    0.02512 =
         0.03001   -0.00062    0.00069    0.00150
C23   1    0.615167    0.212698   -0.007416    11.00000    0.04251    0.03678 =
         0.02732   -0.00199    0.00007    0.00366
AFIX  43
H23   2    0.578571    0.222889   -0.045037    11.00000   -1.20000
AFIX   0
C24   1    0.753641    0.169298    0.004333    11.00000    0.04111    0.03814 =
         0.03412   -0.00399    0.00721    0.00457
AFIX  43
H24   2    0.809915    0.150324   -0.026014    11.00000   -1.20000
AFIX   0
C25   1    0.811860    0.152993    0.060236    11.00000    0.03758    0.02825 =
         0.03868    0.00180    0.00438    0.00545
C26   1    0.724256    0.180401    0.105424    11.00000    0.04263    0.03271 =
         0.02947    0.00371    0.00184    0.00924
AFIX  43
H26   2    0.759841    0.169486    0.143053    11.00000   -1.20000
AFIX   0
C27   1    0.585696    0.223431    0.094467    11.00000    0.03899    0.02575 =
         0.02882    0.00060    0.00277    0.00564
C28   1    0.475718    0.260815    0.136844    11.00000    0.03808    0.03000 =
         0.02731    0.00155    0.00205    0.00988
C29   1    0.397435    0.194905    0.172542    11.00000    0.05257    0.03864 =
         0.03743    0.00699    0.00529    0.00514
AFIX 137
H29A  2    0.335769    0.158661    0.147608    11.00000   -1.50000
H29B  2    0.329850    0.221010    0.198695    11.00000   -1.50000
H29C  2    0.477582    0.163702    0.193716    11.00000   -1.50000
AFIX   0
C30   1    0.563922    0.322077    0.176702    11.00000    0.05511    0.04047 =
         0.03559   -0.00401   -0.00115    0.00628
AFIX 137
H30A  2    0.639270    0.293007    0.201507    11.00000   -1.50000
H30B  2    0.489748    0.350236    0.199325    11.00000   -1.50000
H30C  2    0.618223    0.361516    0.154342    11.00000   -1.50000
AFIX   0
C31   1    0.963811    0.108513    0.070365    11.00000    0.03623    0.02960 =
         0.03946   -0.00016    0.00522    0.00485
C32   1    1.087607    0.123305    0.034835    11.00000    0.04424    0.03650 =
         0.04280    0.00802    0.00872    0.00504
AFIX  43
H32   2    1.073148    0.161489    0.005301    11.00000   -1.20000
AFIX   0
C33   1    1.230373    0.083024    0.042255    11.00000    0.03837    0.04296 =
         0.04179    0.00286    0.01307    0.00049
AFIX  43
H33   2    1.311403    0.093688    0.018108    11.00000   -1.20000
AFIX   0
C34   1    1.251223    0.026217    0.086412    11.00000    0.03109    0.03087 =
         0.03938   -0.00414    0.00544    0.00072
C35   1    1.129440    0.010679    0.122667    11.00000    0.03221    0.02691 =
         0.03779   -0.00047    0.00399    0.00105
C36   1    0.986829    0.051759    0.115066    11.00000    0.03316    0.03199 =
         0.04016    0.00253    0.00972    0.00281
AFIX  43
H36   2    0.906439    0.041691    0.139599    11.00000   -1.20000
AFIX   0
C37   1    1.388334   -0.023768    0.105035    11.00000    0.03069    0.03091 =
         0.04215   -0.00672    0.00165   -0.00075
C38   1    1.537729   -0.029087    0.084061    11.00000    0.03211    0.04669 =
         0.05024   -0.00599    0.00561   -0.00012
AFIX  43
H38   2    1.565261    0.003754    0.053588    11.00000   -1.20000
AFIX   0
C39   1    1.644826   -0.084192    0.109376    11.00000    0.02744    0.05579 =
         0.06619   -0.00982    0.00124    0.00445
AFIX  43
H39   2    1.745061   -0.089101    0.095458    11.00000   -1.20000
AFIX   0
C40   1    1.604703   -0.131971    0.155043    11.00000    0.03519    0.04506 =
         0.07334   -0.00014   -0.00717    0.00825
AFIX  43
H40   2    1.677917   -0.169179    0.171322    11.00000   -1.20000
AFIX   0
C41   1    1.456862   -0.125381    0.177059    11.00000    0.03872    0.03783 =
         0.06249    0.00641   -0.00207    0.00201
AFIX  43
H41   2    1.431132   -0.157119    0.208314    11.00000   -1.20000
AFIX   0
C42   1    1.348573   -0.071068    0.151916    11.00000    0.02959    0.02855 =
         0.04816   -0.00427    0.00101    0.00059
C43   1    1.180888   -0.052211    0.168351    11.00000    0.03024    0.03048 =
         0.04283    0.00367    0.00383    0.00265
C44   1    1.077031   -0.129209    0.165433    11.00000    0.03767    0.03648 =
         0.06483    0.01020    0.00407   -0.00228
AFIX 137
H44A  2    0.971212   -0.114751    0.174238    11.00000   -1.50000
H44B  2    1.118697   -0.169127    0.192653    11.00000   -1.50000
H44C  2    1.075839   -0.152196    0.127570    11.00000   -1.50000
AFIX   0
C45   1    1.183707   -0.013847    0.228327    11.00000    0.05321    0.05213 =
         0.04324    0.00233    0.00686    0.00513
AFIX 137
H45A  2    1.248410    0.034835    0.229310    11.00000   -1.50000
H45B  2    1.226519   -0.052885    0.255963    11.00000   -1.50000
H45C  2    1.077958    0.000536    0.237269    11.00000   -1.50000
AFIX   0
HKLF 4

REM  1 in P21/n #14
REM R1 =  0.0595 for    6217 Fo > 4sig(Fo)  and  0.0793 for all    7994 data
REM    413 parameters refined using      0 restraints

END

WGHT      0.0666      1.8636

REM Highest difference peak  0.276,  deepest hole -0.351,  1-sigma level  0.063
Q1    1   0.4752  0.2801  0.0315  11.00000  0.05    0.28
Q2    1  -0.0509  0.2224  0.0886  11.00000  0.05    0.25
Q3    1   0.3208  0.3485  0.0990  11.00000  0.05    0.24
Q4    1   0.7994  0.1796  0.0331  11.00000  0.05    0.24
Q5    1  -0.0342  0.4358  0.0989  11.00000  0.05    0.24
Q6    1   0.5586  0.2360  0.0674  11.00000  0.05    0.24
Q7    1  -0.3734  0.5301  0.0981  11.00000  0.05    0.22
Q8    1  -0.0086  0.2397  0.1005  11.00000  0.05    0.22
Q9    1   0.3966  0.2857  0.1192  11.00000  0.05    0.22
Q10   1   1.2663 -0.0634  0.1612  11.00000  0.05    0.22
Q11   1   1.3175  0.0049  0.0914  11.00000  0.05    0.22
Q12   1  -0.6776  0.4821  0.1074  11.00000  0.05    0.22
Q13   1   0.6740  0.3104  0.1032  11.00000  0.05    0.22
Q14   1  -0.0385  0.7078  0.0910  11.00000  0.05    0.21
Q15   1   0.9439  0.3003 -0.0098  11.00000  0.05    0.21
Q16   1   0.6696  0.0461  0.1098  11.00000  0.05    0.21
Q17   1   0.7208  0.8021  0.0089  11.00000  0.05    0.21
Q18   1   0.0570  0.1869  0.1034  11.00000  0.05    0.21
Q19   1   0.4216  0.1467  0.0228  11.00000  0.05    0.20
Q20   1   1.1016  0.1846  0.0174  11.00000  0.05    0.20
Q21   1   0.3720  0.3010  0.0658  11.00000  0.05    0.20
Q22   1  -0.1925  0.3386  0.0366  11.00000  0.05    0.20
Q23   1  -0.0470  0.2777  0.0811  11.00000  0.05    0.20
Q24   1   1.3382 -0.0798  0.1098  11.00000  0.05    0.20
Q25   1   1.2688  0.2052  0.0782  11.00000  0.05    0.20
Q26   1  -0.8077  0.6578  0.1811  11.00000  0.05    0.19
Q27   1   0.9810  0.1002  0.1007  11.00000  0.05    0.19
Q28   1  -0.1762  0.6239  0.1806  11.00000  0.05    0.19
Q29   1   0.9443  0.2093 -0.0103  11.00000  0.05    0.19
Q30   1   0.1507  0.3852  0.0381  11.00000  0.05    0.19
Q31   1   1.3312 -0.2140  0.1025  11.00000  0.05    0.19
Q32   1   0.7189  0.0037  0.0989  11.00000  0.05    0.18
Q33   1  -0.1596  0.2831  0.0607  11.00000  0.05    0.18
Q34   1  -0.1443  0.2519  0.0353  11.00000  0.05    0.18
Q35   1   0.6822  0.2275  0.0974  11.00000  0.05    0.18
Q36   1  -0.1079  0.4001  0.0713  11.00000  0.05    0.18
Q37   1   0.8657  0.2384 -0.0307  11.00000  0.05    0.17
Q38   1   0.9869  0.9262  0.1123  11.00000  0.05    0.17
Q39   1   0.7525  0.1994  0.1738  11.00000  0.05    0.17
Q40   1   0.6674  0.7011  0.1109  11.00000  0.05    0.17
Q41   1  -0.0064  0.3189  0.1076  11.00000  0.05    0.17
Q42   1   0.6370  0.0954  0.0810  11.00000  0.05    0.16
Q43   1   1.3403  0.1654  0.1012  11.00000  0.05    0.16
Q44   1   0.0161  0.3000  0.1017  11.00000  0.05    0.16
Q45   1   0.1341  0.2216  0.1844  11.00000  0.05    0.16
Q46   1   1.2829  0.0987  0.0833  11.00000  0.05    0.16
Q47   1  -0.6502  0.6010  0.1000  11.00000  0.05    0.16
Q48   1   0.2517  0.3638 -0.0039  11.00000  0.05    0.16
Q49   1   0.5453  0.2425  0.1229  11.00000  0.05    0.16
Q50   1   0.8766  0.1252  0.0632  11.00000  0.05    0.16
Q51   1   0.4909  0.3253  0.2194  11.00000  0.05    0.16
Q52   1   0.8501  0.9360  0.1800  11.00000  0.05    0.16
Q53   1   0.0167  0.5231  0.3073  11.00000  0.05    0.16
Q54   1   1.3766 -0.1222  0.1531  11.00000  0.05    0.16
Q55   1   0.6872  0.7999  0.0961  11.00000  0.05    0.16
Q56   1   0.0890  0.2074  0.1700  11.00000  0.05    0.16
Q57   1   0.6331  0.1884  0.1025  11.00000  0.05    0.16
Q58   1  -0.0040  0.6190  0.1051  11.00000  0.05    0.15
Q59   1  -0.0237  0.7999  0.0936  11.00000  0.05    0.15
Q60   1   1.2970 -0.1614  0.0866  11.00000  0.05    0.15
Q61   1   0.6200  0.3061 -0.0088  11.00000  0.05    0.15
Q62   1   0.3592  0.3190  0.0169  11.00000  0.05    0.15
Q63   1   1.6483 -0.0764  0.1497  11.00000  0.05    0.15
Q64   1  -0.2436  0.5168  0.1110  11.00000  0.05    0.15
Q65   1   1.2688 -0.2758  0.0761  11.00000  0.05    0.15
Q66   1  -0.8893  0.5756  0.1719  11.00000  0.05    0.15
Q67   1   0.0074  0.6514  0.1584  11.00000  0.05    0.15
Q68   1   0.0575  0.6856  0.1617  11.00000  0.05    0.15
Q69   1   0.1499  0.2611  0.1403  11.00000  0.05    0.15
Q70   1   0.6517  0.7605  0.1040  11.00000  0.05    0.15
Q71   1  -0.2179  0.3020  0.0289  11.00000  0.05    0.15
Q72   1  -0.4221  0.5547  0.1494  11.00000  0.05    0.15
Q73   1  -0.2798  0.3329  0.0091  11.00000  0.05    0.15
Q74   1  -0.0240  0.4828  0.2703  11.00000  0.05    0.15
Q75   1  -0.6623  0.6098  0.1595  11.00000  0.05    0.15
Q76   1   0.0411  0.4029  0.0733  11.00000  0.05    0.15
Q77   1  -0.2867  0.5949  0.1725  11.00000  0.05    0.15
Q78   1   0.8878  0.3183 -0.0423  11.00000  0.05    0.15
Q79   1   0.8280  0.2503  0.1902  11.00000  0.05    0.15
;
_shelx_res_checksum              92881
_shelx_hkl_file
;
  -1   0   0   -0.02    0.02
   1   0   0    0.01    0.02
   2   0   0   31.89    1.45
  -2   0   0   30.02    1.44
   3   0   0    0.80    0.12
  -3   0   0    0.55    0.08
  -4   0   0   76.30    3.53
  -5   0   0    0.20    0.10
  -6   0   0    1.10    0.17
   6   0   0    0.90    0.29
  -7   0   0    0.40    0.18
   7   0   0    0.15    0.23
   7   0   0    0.17    0.23
   7   0   0    0.99    0.36
   8   0   0    0.23    0.47
   8   0   0   -0.27    0.23
   8   0   0    0.35    0.23
   9   0   0    0.15    0.26
   9   0   0   -0.23    0.25
   9   0   0    0.76    0.46
  10   0   0    1.31    0.58
  10   0   0    1.81    0.41
  10   0   0    1.89    0.48
  10   0   0    2.00    0.40
  11   0   0   -0.49    0.51
  11   0   0    0.65    0.76
   0  -1   0   -0.41    0.02
   0   1   0   -0.47    0.01
   0   1   0   -0.46    0.01
   1  -1   0    4.68    0.23
  -1  -1   0    4.83    0.24
   1  -1   0    4.55    0.26
   1   1   0    4.58    0.24
   1   1   0    4.26    0.24
   2  -1   0   26.19    1.27
   2  -1   0   26.63    1.27
   2  -1   0   27.82    1.27
  -2  -1   0   27.79    1.28
   2   1   0   27.60    1.27
   3  -1   0    0.31    0.07
  -3  -1   0    0.52    0.09
   3   1   0    0.11    0.08
  -3   1   0    0.27    0.07
  -4  -1   0   -0.03    0.09
   5  -1   0    2.96    0.26
  -5  -1   0    2.82    0.24
   5  -1   0    2.61    0.26
   5  -1   0    3.25    0.38
   6  -1   0    1.01    0.30
  -6  -1   0    0.53    0.15
   6  -1   0    0.75    0.17
   6  -1   0    0.95    0.18
   7  -1   0    6.34    0.48
   7  -1   0    5.98    0.66
  -7  -1   0    6.99    0.46
   7  -1   0    5.87    0.48
   7   1   0    4.51    0.62
   8  -1   0   10.78    0.66
   8  -1   0    9.72    0.65
  -8  -1   0    9.42    0.60
   8  -1   0    9.32    0.86
   8   1   0    8.17    0.90
   9  -1   0    0.86    0.48
   9  -1   0    0.55    0.26
   9   1   0    0.79    0.28
   9   1   0    0.43    0.28
   9   1   0    0.17    0.35
   9   1   0    0.78    0.46
  10  -1   0    0.60    0.32
  10  -1   0    0.10    0.57
  10   1   0    0.49    0.35
  10   1   0   -0.13    0.36
  10   1   0   -0.12    0.38
  10   1   0   -0.50    0.55
  11  -1   0    6.61    0.94
  11  -1   0    3.91    0.68
  11   1   0    5.96    1.02
  11   1   0    4.98    0.64
  11   1   0    4.87    0.89
  11   1   0    7.01    0.83
   0   2   0  310.63   13.94
   0   2   0  299.06   13.93
   1  -2   0  342.36   15.50
  -1  -2   0  311.12   15.47
  -1  -2   0  349.21   15.48
   1   2   0  351.99   15.48
   2  -2   0  121.39    5.71
  -2  -2   0  128.00    5.67
   2  -2   0  120.17    5.66
  -2   2   0  126.64    5.67
   2   2   0  129.26    5.67
  -2   2   0  125.23    5.67
   2   2   0  113.72    5.67
   3  -2   0    1.65    0.14
   3  -2   0    1.55    0.24
  -3  -2   0    1.83    0.16
   3  -2   0    2.15    0.15
   3   2   0    1.56    0.18
  -4  -2   0    6.31    0.37
   4  -2   0    5.72    0.46
   4  -2   0    6.20    0.36
   4  -2   0    6.10    0.35
  -5  -2   0    5.84    0.36
   5  -2   0    5.85    0.36
   5  -2   0    5.20    0.50
   5  -2   0    5.72    0.36
   6  -2   0   29.59    1.45
  -6  -2   0   28.95    1.44
   6  -2   0   29.58    1.58
   6  -2   0   30.01    1.45
   7  -2   0    1.01    0.21
   7  -2   0    0.11    0.39
  -7  -2   0    0.87    0.23
   7   2   0    0.94    0.28
   8  -2   0   10.60    0.67
   8  -2   0   10.21    0.93
  -8  -2   0   10.33    0.65
   8   2   0   11.71    0.93
   8   2   0    9.85    0.85
   9  -2   0    0.40    0.48
   9  -2   0    0.76    0.27
  -9  -2   0    0.66    0.25
   9   2   0    0.90    0.36
   9   2   0    0.87    0.48
  10  -2   0    0.41    0.34
  10  -2   0    0.75    0.58
  10   2   0    0.17    0.37
  10   2   0    0.36    0.38
  10   2   0    0.69    0.41
  10   2   0   -0.73    0.50
  11  -2   0    1.35    0.75
  11   2   0    1.47    0.54
  11   2   0    1.23    0.54
  11   2   0    0.90    0.54
  11   2   0    1.30    0.75
   0  -3   0    0.27    0.07
  -1  -3   0   13.56    0.71
  -1  -3   0   14.43    0.72
   1  -3   0   14.97    0.71
  -1  -3   0   16.87    0.70
   1  -3   0   14.06    0.75
   1   3   0   14.28    0.72
  -1   3   0   14.99    0.71
   1   3   0   15.15    0.70
   1   3   0   15.55    0.71
   2  -3   0    4.69    0.25
  -2  -3   0    4.89    0.27
   2  -3   0    4.45    0.33
   2   3   0    4.12    0.27
   2   3   0    4.85    0.26
  -2   3   0    5.15    0.26
   3  -3   0   71.53    3.30
   3  -3   0   70.31    3.39
  -3  -3   0   72.82    3.32
   3   3   0   68.75    3.33
  -3   3   0   73.23    3.31
  -3   3   0   72.51    3.31
   4  -3   0  128.82    6.04
   4  -3   0  128.97    5.93
  -4  -3   0  133.19    5.96
   4   3   0  124.68    5.97
  -5  -3   0   11.57    0.62
   5  -3   0   10.33    0.75
   5  -3   0   11.83    0.60
   5   3   0   11.40    0.66
  -6  -3   0    8.08    0.51
   6  -3   0    7.55    0.47
   6  -3   0    8.11    0.67
   6   3   0    7.98    0.56
  -7  -3   0    0.66    0.20
   7  -3   0    0.37    0.18
   7  -3   0    0.13    0.41
   7   3   0    0.33    0.24
   8  -3   0   18.49    1.26
  -8  -3   0   18.93    0.98
   8  -3   0   17.20    0.97
   8   3   0   18.33    1.13
   8   3   0   15.75    1.18
  -9  -3   0    3.45    0.44
   9  -3   0    3.13    0.63
   9  -3   0    3.10    0.36
   9   3   0    2.57    0.54
   9   3   0    4.00    0.57
  10  -3   0   -0.30    0.57
 -10  -3   0    0.56    0.33
  10  -3   0   -0.04    0.33
  10   3   0   -0.69    0.38
  10   3   0    0.17    0.41
  10   3   0   -0.91    0.53
  10   3   0   -0.81    0.38
  11  -3   0    1.40    0.81
  11   3   0    0.30    0.53
  11   3   0    1.42    0.52
  11   3   0    0.74    0.52
  11   3   0    1.72    0.77
   0  -4   0  197.90    8.47
   0  -4   0  184.12    8.47
   0   4   0  172.65    8.46
   1  -4   0  313.54   16.25
  -1  -4   0  366.80   16.23
   1  -4   0  372.60   16.22
   1   4   0  383.50   16.22
  -1   4   0  363.73   16.21
   1   4   0  358.55   16.23
   1   4   0  323.99   16.21
  -2  -4   0    4.54    0.28
  -2  -4   0    4.32    0.24
   2  -4   0    4.81    0.25
   2  -4   0    4.25    0.34
  -2   4   0    5.07    0.26
   3  -4   0   30.78    1.45
   3  -4   0   30.16    1.55
  -3  -4   0   31.80    1.48
   3   4   0   30.20    1.47
  -3   4   0   31.87    1.47
  -4  -4   0    7.97    0.46
   4  -4   0    7.61    0.55
   4  -4   0    7.46    0.41
   4   4   0    8.00    0.45
   5  -4   0   19.35    1.17
   5  -4   0   21.20    1.01
  -5  -4   0   20.79    1.05
   5   4   0   20.88    1.06
   6  -4   0    4.97    0.34
  -6  -4   0    4.86    0.41
   6  -4   0    4.62    0.56
   6   4   0    5.02    0.44
   7  -4   0    4.32    0.68
   7  -4   0    5.05    0.39
  -7  -4   0    5.44    0.43
   7   4   0    5.27    0.50
   8  -4   0    0.33    0.25
   8  -4   0   -0.14    0.42
  -8  -4   0    0.46    0.21
   8   4   0    0.65    0.44
   8   4   0    0.36    0.35
  -9  -4   0    4.19    0.50
   9  -4   0    4.98    0.49
   9  -4   0    6.85    0.91
   9   4   0    5.36    0.78
   9   4   0    6.11    0.63
 -10  -4   0   -0.01    0.33
  10  -4   0   -0.07    0.60
  10   4   0    0.29    0.37
  10   4   0    0.38    0.58
  11  -4   0    0.64    0.79
  11   4   0    1.48    0.58
  11   4   0    0.51    0.55
  11   4   0    0.20    0.76
  11   4   0    1.12    0.51
   0  -5   0    0.02    0.07
   0  -5   0   -0.05    0.06
   0   5   0   -0.06    0.05
  -1  -5   0    0.58    0.10
   1  -5   0    0.35    0.07
   1  -5   0    0.54    0.13
  -1   5   0    0.38    0.06
   2  -5   0    0.35    0.15
  -2  -5   0    0.32    0.11
   2  -5   0    0.21    0.07
  -2  -5   0    0.33    0.06
  -2   5   0    0.38    0.07
  -3  -5   0  145.52    6.48
   3  -5   0  137.95    6.55
   3  -5   0  138.97    6.44
  -3   5   0  137.24    6.45
   3   5   0  142.36    6.46
   4  -5   0   35.88    1.81
  -4  -5   0   36.15    1.71
   4  -5   0   35.16    1.67
   4   5   0   35.10    1.70
   5  -5   0   10.42    0.78
   5  -5   0   12.37    0.61
  -5  -5   0   11.71    0.67
   5   5   0   12.32    0.66
   6  -5   0    1.05    0.16
  -6  -5   0    1.13    0.22
   6  -5   0    1.65    0.39
   6   5   0    1.10    0.20
   7  -5   0   18.84    1.22
   7  -5   0   19.65    0.98
  -7  -5   0   19.30    1.02
   7   5   0   19.01    1.07
   8  -5   0   14.84    1.10
   8  -5   0   14.15    0.79
  -8  -5   0   13.88    0.82
   8   5   0   13.19    0.94
   9  -5   0    3.20    0.40
  -9  -5   0    2.97    0.38
   9  -5   0    2.53    0.66
   9   5   0    2.74    0.40
   9   5   0    2.64    0.60
  10  -5   0    1.83    0.67
 -10  -5   0    0.94    0.36
  10   5   0    1.87    0.43
  10   5   0    2.06    0.63
   0  -6   0  220.58   10.39
   0  -6   0  232.41   10.38
   1  -6   0   77.09    3.51
  -1  -6   0   76.28    3.52
  -1  -6   0   79.08    3.49
   1  -6   0   70.88    3.54
   2  -6   0  106.76    4.79
  -2  -6   0  104.65    4.77
   2  -6   0   97.62    4.86
  -2  -6   0  101.05    4.81
   2   6   0  109.74    4.79
   3  -6   0    1.79    0.16
  -3  -6   0    1.51    0.20
   3  -6   0    2.06    0.33
   3   6   0    1.67    0.17
  -4  -6   0    2.48    0.28
   4  -6   0    2.72    0.20
   4  -6   0    2.56    0.37
   4   6   0    2.69    0.23
   5  -6   0   37.44    1.74
   5  -6   0   36.20    1.93
  -5  -6   0   35.67    1.79
   5   6   0   37.64    1.78
   6  -6   0    6.75    0.73
   6  -6   0    6.64    0.41
  -6  -6   0    6.83    0.49
   6   6   0    7.52    0.48
   7  -6   0   -0.05    0.40
   7  -6   0   -0.02    0.16
  -7  -6   0    0.01    0.20
   7   6   0   -0.05    0.19
   8  -6   0    0.06    0.46
   8  -6   0   -0.09    0.22
  -8  -6   0    0.33    0.22
   8   6   0   -0.04    0.27
   9  -6   0    5.40    0.55
  -9  -6   0    6.21    0.55
   9  -6   0    7.06    0.93
   9   6   0    6.61    0.60
   9   6   0    4.99    0.88
  10  -6   0    0.80    0.65
 -10  -6   0    0.63    0.36
  10   6   0    1.48    1.00
  10   6   0    0.08    0.36
   0  -7   0    0.12    0.08
   0  -7   0   -0.19    0.09
  -1  -7   0    0.02    0.07
   1  -7   0   -0.08    0.08
   1  -7   0   -0.02    0.12
  -1  -7   0    0.02    0.09
   2  -7   0    6.70    0.39
  -2  -7   0    7.32    0.37
  -2  -7   0    6.79    0.42
   2  -7   0    6.20    0.47
   2   7   0    7.79    0.40
   3  -7   0   12.99    0.63
  -3  -7   0   12.86    0.69
   3  -7   0   11.78    0.76
  -3  -7   0   11.33    0.62
   3   7   0   13.30    0.64
  -4  -7   0    3.09    0.32
   4  -7   0    3.48    0.24
   4  -7   0    3.62    0.43
   4   7   0    3.58    0.27
   5  -7   0    3.05    0.50
   5  -7   0    2.32    0.22
  -5  -7   0    1.92    0.28
   5   7   0    2.31    0.25
   6  -7   0   22.32    1.08
   6  -7   0   21.94    1.34
  -6  -7   0   21.08    1.15
   6   7   0   22.39    1.13
   7  -7   0    0.20    0.37
   7  -7   0    0.02    0.16
  -7  -7   0    0.12    0.21
   7   7   0    0.20    0.20
   8  -7   0    0.84    0.48
  -8  -7   0    1.34    0.30
   8  -7   0    1.00    0.25
   8   7   0    1.07    0.31
   9  -7   0    3.20    0.70
  -9  -7   0    2.29    0.38
   9   7   0    2.76    0.37
   9   7   0    3.13    0.61
  10  -7   0    0.35    0.70
 -10  -7   0    0.24    0.37
  10   7   0    0.53    0.37
   0  -8   0    1.80    0.20
   0  -8   0    1.96    0.20
   1  -8   0   66.27    3.29
   1  -8   0   70.52    3.26
  -1  -8   0   73.35    3.24
  -1  -8   0   69.65    3.27
  -2  -8   0   89.29    4.07
   2  -8   0   85.36    4.18
   2  -8   0   90.45    4.10
  -2  -8   0   88.99    4.13
  -3  -8   0   93.52    4.49
   3  -8   0   96.67    4.63
  -3  -8   0   96.94    4.55
   3  -8   0  101.44    4.51
   3   8   0   98.75    4.51
  -4  -8   0    5.27    0.41
   4  -8   0    5.99    0.35
   4  -8   0    6.07    0.54
   4   8   0    5.69    0.36
   5  -8   0    1.56    0.40
  -5  -8   0    1.52    0.25
   5  -8   0    2.06    0.23
   5   8   0    2.44    0.25
   6  -8   0    3.47    0.29
  -6  -8   0    3.09    0.40
   6  -8   0    3.95    0.57
   6   8   0    3.72    0.34
  -7  -8   0    8.19    0.60
   7  -8   0    8.75    0.80
   7  -8   0    8.59    0.51
   7   8   0    7.89    0.56
   8  -8   0    1.14    0.51
  -8  -8   0    0.67    0.28
   8  -8   0    1.24    0.25
   8   8   0    0.86    0.31
   9  -8   0    7.83    1.03
  -9  -8   0    7.69    0.67
   9   8   0    6.86    0.63
  10  -8   0   -0.28    0.73
 -10  -8   0    0.08    0.40
  10   8   0    0.12    0.36
   0  -9   0   -0.11    0.11
   0  -9   0    0.06    0.12
  -1  -9   0   38.90    1.92
   1  -9   0   40.30    1.91
   1  -9   0   38.48    1.95
  -1  -9   0   42.78    1.89
   2  -9   0   91.82    4.18
  -2  -9   0   91.51    4.15
   2  -9   0   87.62    4.26
  -2  -9   0   88.92    4.21
  -3  -9   0    3.11    0.33
   3  -9   0    3.15    0.26
   3  -9   0    2.95    0.42
  -3  -9   0    2.71    0.22
   3   9   0    2.75    0.27
   4  -9   0    3.32    0.48
  -4  -9   0    3.17    0.33
   4  -9   0    3.55    0.27
   4   9   0    3.49    0.28
  -5  -9   0    0.68    0.21
   5  -9   0    0.67    0.15
   5  -9   0    0.99    0.38
   5   9   0    0.87    0.16
  -6  -9   0   36.23    1.91
   6  -9   0   40.17    1.84
   6  -9   0   37.93    2.08
   6   9   0   38.69    1.86
  -7  -9   0   -0.26    0.24
   7  -9   0    0.42    0.42
   7  -9   0   -0.19    0.18
   7   9   0   -0.08    0.18
   8  -9   0    0.63    0.49
   8  -9   0    0.33    0.30
  -8  -9   0   -0.15    0.26
   8   9   0    0.19    0.26
  -9  -9   0    1.62    0.37
   9  -9   0    2.19    0.68
   9   9   0    1.58    0.32
 -10  -9   0    0.24    0.41
  10  -9   0   -0.88    0.77
   0 -10   0    7.43    0.46
   0 -10   0    7.73    0.47
   1 -10   0    0.05    0.13
  -1 -10   0   -0.15    0.10
  -1 -10   0    0.22    0.15
   1 -10   0    0.02    0.17
  -2 -10   0   21.91    1.11
  -2 -10   0   21.74    1.02
   2 -10   0   21.21    1.06
   2 -10   0   20.12    1.14
   3 -10   0  121.84    5.36
  -3 -10   0  113.94    5.33
   3 -10   0  112.83    5.47
  -3 -10   0  113.87    5.40
  -4 -10   0   30.21    1.56
   4 -10   0   31.71    1.69
  -4 -10   0   29.48    1.49
   4 -10   0   33.17    1.51
   4  10   0   30.98    1.51
   5 -10   0    3.03    0.29
  -5 -10   0    2.74    0.39
   5 -10   0    2.80    0.47
   5  10   0    2.81    0.30
   6 -10   0    0.75    0.39
  -6 -10   0    1.09    0.25
   6 -10   0    0.79    0.20
   6  10   0    0.81    0.19
   7 -10   0    1.87    0.50
  -7 -10   0    1.07    0.32
   7 -10   0    1.35    0.25
   7  10   0    1.15    0.24
  -8 -10   0    1.12    0.32
   8 -10   0    0.44    0.53
   8  10   0    0.69    0.28
   9 -10   0   -0.04    0.68
  -9 -10   0   -0.21    0.34
   9  10   0    0.18    0.30
   0 -11   0    0.18    0.15
   0 -11   0   -0.06    0.15
   1 -11   0    0.80    0.18
  -1 -11   0    0.40    0.20
  -1 -11   0    0.64    0.14
   1 -11   0    0.67    0.20
   2 -11   0    5.11    0.41
  -2 -11   0    5.93    0.45
  -2 -11   0    6.40    0.35
   2 -11   0    6.04    0.51
  -3 -11   0    6.39    0.48
   3 -11   0    6.85    0.45
   3 -11   0    5.64    0.59
  -3 -11   0    6.74    0.39
  -4 -11   0    0.53    0.16
   4 -11   0    0.19    0.18
   4 -11   0    0.84    0.38
  -4 -11   0    0.51    0.21
   4  11   0    0.51    0.18
   5 -11   0   10.70    0.60
   5 -11   0    9.53    0.82
  -5 -11   0   10.17    0.66
   5  11   0    9.32    0.58
  -6 -11   0    0.14    0.27
   6 -11   0    0.54    0.21
   6 -11   0    0.25    0.40
   6  11   0    0.08    0.17
   7 -11   0    0.37    0.26
  -7 -11   0    0.09    0.28
   7 -11   0   -0.17    0.46
   7  11   0    0.35    0.22
  -8 -11   0    0.30    0.33
   8 -11   0    0.22    0.61
   8  11   0    0.11    0.26
  -9 -11   0    2.16    0.47
   9 -11   0    2.26    0.78
   0 -12   0   -0.02    0.19
   0 -12   0   -0.21    0.16
  -1 -12   0   10.76    0.68
   1 -12   0   11.05    0.69
   1 -12   0   11.39    0.70
  -1 -12   0   12.79    0.63
   2 -12   0   50.02    2.33
  -2 -12   0   48.26    2.27
  -2 -12   0   47.56    2.35
   2 -12   0   47.68    2.40
  -3 -12   0    6.62    0.40
  -3 -12   0    6.50    0.50
   3 -12   0    7.23    0.50
   3 -12   0    6.74    0.63
  -4 -12   0   20.85    1.14
   4 -12   0   20.75    1.25
  -4 -12   0   19.24    1.03
   4 -12   0   21.76    1.08
   5 -12   0    9.92    0.82
  -5 -12   0    9.21    0.67
   5 -12   0   10.22    0.62
   5  12   0    9.13    0.60
   6 -12   0    6.92    0.54
  -6 -12   0    5.69    0.56
   6 -12   0    6.44    0.81
   6  12   0    5.92    0.48
   7 -12   0    3.99    0.65
  -7 -12   0    3.77    0.55
   7 -12   0    4.15    0.52
   7  12   0    3.02    0.46
  -8 -12   0    0.18    0.36
   8 -12   0    0.78    0.62
   9 -12   0    0.91    0.76
  -9 -12   0    0.68    0.44
   0 -13   0    0.16    0.18
   0 -13   0   -0.21    0.20
  -1 -13   0    5.51    0.37
   1 -13   0    4.97    0.46
  -1 -13   0    5.05    0.46
   1 -13   0    5.81    0.48
   2 -13   0    1.96    0.31
   2 -13   0    2.00    0.35
  -2 -13   0    1.57    0.28
  -2 -13   0    1.69    0.23
  -3 -13   0    0.01    0.14
   3 -13   0    0.28    0.26
   3 -13   0    0.35    0.35
  -3 -13   0    0.09    0.23
  -4 -13   0    0.26    0.17
  -4 -13   0    0.18    0.27
   4 -13   0   -0.06    0.35
   4 -13   0    0.26    0.26
   5 -13   0   -0.03    0.39
   5 -13   0    0.44    0.27
  -5 -13   0   -0.23    0.26
   6 -13   0   -0.45    0.43
  -6 -13   0    0.44    0.29
   6 -13   0    0.37    0.28
   6  13   0   -0.13    0.23
   7 -13   0    1.44    0.57
  -7 -13   0    2.25    0.42
   7  13   0    1.23    0.32
   8 -13   0    2.64    0.76
  -8 -13   0    2.02    0.47
  -9 -13   0    0.60    0.49
   9 -13   0    1.17    0.89
   0 -14   0    2.49    0.35
   0 -14   0    2.99    0.38
  -1 -14   0    0.08    0.23
   1 -14   0    0.32    0.23
   1 -14   0   -0.26    0.23
  -1 -14   0   -0.20    0.17
  -2 -14   0    3.36    0.31
   2 -14   0    3.68    0.44
   2 -14   0    4.99    0.58
  -2 -14   0    4.30    0.47
  -3 -14   0    0.33    0.26
   3 -14   0    0.41    0.24
  -3 -14   0    0.55    0.18
   3 -14   0    0.27    0.35
   4 -14   0   25.27    1.49
  -4 -14   0   26.18    1.28
   4 -14   0   26.68    1.34
  -4 -14   0   25.09    1.41
   5 -14   0    0.45    0.26
   5 -14   0   -0.62    0.41
  -5 -14   0    0.34    0.31
   6 -14   0    0.50    0.49
   6 -14   0    1.43    0.33
  -6 -14   0    1.16    0.39
   7 -14   0    3.83    0.70
  -7 -14   0    1.99    0.48
   8 -14   0    0.91    0.69
  -8 -14   0    1.49    0.48
   0 -15   0   -0.32    0.22
   0 -15   0   -0.33    0.24
   1 -15   0    0.81    0.27
   1 -15   0    0.68    0.29
  -1 -15   0    0.22    0.27
  -1 -15   0    0.15    0.19
   2 -15   0    2.24    0.32
  -2 -15   0    1.73    0.28
   2 -15   0    1.74    0.42
  -2 -15   0    1.72    0.34
  -3 -15   0    1.28    0.21
  -3 -15   0    0.31    0.31
   3 -15   0    1.00    0.27
   3 -15   0    1.11    0.39
   4 -15   0    1.84    0.46
  -4 -15   0    1.23    0.35
  -4 -15   0    1.07    0.23
   4 -15   0    1.71    0.29
  -5 -15   0    0.38    0.36
   5 -15   0    2.09    0.50
   5 -15   0    1.35    0.32
  -6 -15   0    0.67    0.38
   6 -15   0    1.75    0.58
  -7 -15   0    1.00    0.46
   7 -15   0    0.56    0.64
  -8 -15   0    1.94    0.55
   8 -15   0   -0.28    0.77
   0 -16   0    0.28    0.28
   0 -16   0    0.17    0.25
  -1 -16   0   -0.07    0.20
   1 -16   0   -0.15    0.27
   1 -16   0    0.26    0.36
  -1 -16   0    0.25    0.32
  -2 -16   0    0.42    0.20
   2 -16   0    0.75    0.34
  -2 -16   0    0.82    0.33
   2 -16   0    0.28    0.28
  -3 -16   0    2.97    0.33
   3 -16   0    2.89    0.49
  -3 -16   0    2.33    0.43
   3 -16   0    3.96    0.51
  -4 -16   0   -0.51    0.34
   4 -16   0    0.00    0.41
   4 -16   0   -0.37    0.30
  -5 -16   0   20.80    1.27
   5 -16   0   20.92    1.18
   5 -16   0   19.93    1.38
   6 -16   0    0.98    0.57
  -6 -16   0    0.02    0.44
  -7 -16   0    0.92    0.48
   7 -16   0    1.48    0.69
   0 -17   0    0.20    0.30
   0 -17   0   -0.14    0.28
   1 -17   0   18.96    1.16
   1 -17   0   19.13    1.12
  -1 -17   0   19.96    1.17
  -1 -17   0   19.37    1.03
  -2 -17   0    2.36    0.43
   2 -17   0    2.40    0.39
  -2 -17   0    2.96    0.36
   2 -17   0    2.88    0.47
  -3 -17   0   -0.29    0.36
   3 -17   0    0.21    0.32
  -3 -17   0    0.44    0.28
   3 -17   0    0.09    0.40
  -4 -17   0    2.19    0.46
   4 -17   0    2.30    0.55
   4 -17   0    1.86    0.40
   5 -17   0    2.58    0.63
  -5 -17   0    1.86    0.49
   5 -17   0    1.66    0.45
  -6 -17   0    0.19    0.50
   6 -17   0    0.60    0.62
   0 -18   0    0.85    0.34
   0 -18   0    0.61    0.37
   1 -18   0    0.31    0.36
  -1 -18   0   -0.07    0.28
  -1 -18   0    0.15    0.38
   1 -18   0    0.29    0.35
  -2 -18   0    0.96    0.25
  -2 -18   0    0.63    0.40
   2 -18   0    0.67    0.35
   2 -18   0    0.92    0.42
   3 -18   0    4.05    0.60
   3 -18   0    4.30    0.51
  -3 -18   0    4.26    0.57
   4 -18   0   -0.07    0.53
  -4 -18   0    0.83    0.47
   4 -18   0   -0.05    0.40
   5 -18   0    1.23    0.63
  -5 -18   0    0.15    0.49
  -6 -18   0    0.85    0.57
   6 -18   0    0.76    0.70
   0 -19   0    0.05    0.41
   0 -19   0    0.14    0.32
   1 -19   0   28.57    1.62
  -1 -19   0   30.23    1.63
   1 -19   0   27.91    1.60
  -1 -19   0   29.65    1.51
  -2 -19   0   26.00    1.53
   2 -19   0   25.71    1.55
   2 -19   0   28.23    1.52
  -3 -19   0    1.46    0.55
   3 -19   0    2.09    0.57
   3 -19   0    1.96    0.47
   4 -19   0   -0.45    0.53
   4 -19   0   -0.81    0.47
  -4 -19   0    0.67    0.51
  -5 -19   0    3.36    0.64
   5 -19   0    2.30    0.74
   0 -20   0    1.05    0.51
   0 -20   0   -0.08    0.37
  -1 -20   0    1.57    0.51
   1 -20   0    1.41    0.49
   1 -20   0    1.44    0.45
  -1 -20   0    0.92    0.38
   2 -20   0    0.54    0.49
  -2 -20   0   -0.14    0.50
   2 -20   0    0.57    0.50
  -3 -20   0    0.85    0.54
   3 -20   0   -0.26    0.51
   3 -20   0    0.26    0.55
   4 -20   0    0.51    0.64
  -4 -20   0    1.80    0.58
   0 -21   0   -0.47    0.38
   0 -21   0   -1.16    0.54
  -1 -21   0    7.39    0.97
   1 -21   0    8.21    1.01
   1 -21   0    7.02    0.80
   2 -21   0   -0.24    0.52
   2 -21   0    1.23    0.61
  -2 -21   0    0.16    0.59
  11   0  -1    1.16    0.73
  11   0  -1    0.45    0.53
  11   0  -1    1.06    0.48
  10   0  -1    0.96    0.53
  10   0  -1    0.20    0.33
  10   0  -1    0.35    0.32
   9   0  -1    0.42    0.26
   9   0  -1    0.14    0.45
   9   0  -1    0.47    0.27
   8   0  -1    0.00    0.22
   8   0  -1   -0.17    0.43
   8   0  -1   -0.26    0.22
   7   0  -1   13.68    0.82
   7   0  -1   14.48    0.83
   7   0  -1   12.54    0.93
  -6   0   1    0.12    0.12
  -5   0   1    0.19    0.11
   3   0  -1    6.07    0.34
  -3   0   1    6.50    0.34
   2   0  -1   -0.06    0.05
  -2   0   1   -0.10    0.04
   1   0  -1  147.65    6.04
  -1   0   1  116.16    6.04
   0   0   1    0.00    0.01
   0   0   1   -0.02    0.01
   0   0  -1   -0.01    0.01
   0   0  -1   -0.01    0.00
   0   0   1    0.01    0.01
   0   0  -1    0.00    0.01
   1   0   1  251.26   10.87
  -1   0  -1  223.65   10.85
  -3   0  -1   28.37    1.36
   3   0   1   29.65    1.37
  -4   0  -1   -0.20    0.07
   4   0   1   -0.06    0.17
   5   0   1  157.18    7.28
  -5   0  -1  154.65    7.17
  -6   0  -1   -0.21    0.11
   6   0   1   -0.01    0.24
  -7   0  -1   16.72    0.85
   7   0   1   15.20    1.04
   8   0   1    0.31    0.48
   8   0   1    0.24    0.24
   8   0   1    0.24    0.25
   9   0   1    3.17    0.58
   9   0   1    3.37    0.47
   9   0   1    3.93    0.46
  10   0   1    0.54    0.57
  10   0   1    0.84    0.34
  10   0   1    0.82    0.34
  11   0   1    2.77    0.65
  11   0   1    3.07    0.82
  11  -1  -1    2.31    0.76
  11  -1  -1    1.33    0.58
  11   1  -1    2.35    0.54
  11   1  -1    2.21    0.74
  11   1  -1    2.61    0.59
  11   1  -1    1.86    0.52
  10  -1  -1    6.68    0.63
  10  -1  -1    6.56    0.94
  10   1  -1    6.10    0.68
  10   1  -1    5.54    0.64
  10   1  -1    5.53    0.88
  10   1  -1    5.51    0.64
   9  -1  -1    0.41    0.47
   9  -1  -1    0.56    0.25
   9   1  -1   -0.31    0.43
   9   1  -1    0.01    0.28
   9   1  -1    0.88    0.28
   8  -1  -1   11.00    0.69
   8  -1  -1   10.41    0.95
  -8  -1   1   10.70    0.66
   8  -1  -1   10.45    0.68
   8   1  -1   12.54    0.75
   8   1  -1   10.80    0.72
   8   1  -1   10.12    0.96
  -7  -1   1   29.59    1.49
   7  -1  -1   30.70    1.53
   7  -1  -1   30.18    1.52
   7  -1  -1   29.77    1.67
  -6  -1   1   11.52    0.62
   6  -1  -1   11.34    0.64
   6  -1  -1   11.31    0.64
   6  -1  -1   10.64    0.77
   5  -1  -1   44.15    2.11
   5  -1  -1   44.83    2.11
  -5  -1   1   43.74    2.09
   4  -1  -1   13.86    0.72
   4  -1  -1   13.87    0.71
  -4  -1   1   14.05    0.70
   3  -1  -1    1.66    0.16
   3  -1  -1    1.48    0.15
   3  -1  -1    1.56    0.15
  -3  -1   1    1.47    0.14
  -2  -1   1  255.86   11.78
   2  -1  -1  262.79   11.78
   2  -1  -1  250.91   11.78
   2  -1  -1  246.43   11.78
   2   1  -1  271.61   11.79
  -1  -1   1    5.47    0.27
   1  -1  -1    5.27    0.27
  -1  -1   1    4.98    0.27
   1   1  -1    5.39    0.27
   1   1  -1    4.89    0.27
   1  -1   1    0.24    0.03
  -1  -1  -1    0.17    0.04
   1  -1   1    0.25    0.06
  -1  -1  -1    0.25    0.04
  -1   1  -1    0.14    0.06
   1   1   1    0.31    0.04
   1   1   1    0.21    0.05
   2  -1   1   96.78    4.71
  -2  -1  -1  103.59    4.67
   2  -1   1  106.27    4.66
   2   1   1  102.96    4.67
  -2   1  -1   98.78    4.66
   3  -1   1    1.56    0.22
   3  -1   1    1.12    0.12
  -3  -1  -1    1.34    0.13
  -3   1  -1    1.43    0.12
   3   1   1    1.44    0.14
   4  -1   1  162.09    7.40
  -4  -1  -1  158.22    7.32
  -4   1  -1  157.22    7.30
  -5  -1  -1    7.69    0.43
   5  -1   1    7.81    0.57
  -5   1  -1    7.44    0.42
   6  -1   1   32.41    1.71
   6  -1   1   33.27    1.60
   6  -1   1   32.68    1.60
  -6  -1  -1   32.64    1.58
   6   1   1   32.47    1.70
  -7  -1  -1    1.59    0.25
   7  -1   1    2.21    0.42
   7  -1   1    2.21    0.33
   7  -1   1    1.98    0.27
   7   1   1    1.48    0.40
   8  -1   1   24.18    1.23
   8  -1   1   22.94    1.22
  -8  -1  -1   21.97    1.18
   8  -1   1   23.52    1.43
   8   1   1   22.67    1.43
   8   1   1   21.42    1.34
   9  -1   1    0.15    0.25
   9  -1   1    0.47    0.47
   9  -1   1    0.45    0.26
   9   1   1    0.19    0.28
   9   1   1    0.71    0.29
   9   1   1   -0.10    0.45
   9   1   1   -0.56    0.32
  10  -1   1    1.65    0.61
  10  -1   1    1.69    0.37
  10   1   1    1.33    0.46
  10   1   1    1.34    0.41
  10   1   1    0.62    0.58
  10   1   1    0.96    0.41
  11  -1   1    0.43    0.76
  11  -1   1    0.07    0.57
  11   1   1   -0.88    0.74
  11   1   1    0.89    0.53
  11  -2  -1    3.13    0.81
  11   2  -1    2.38    0.55
  11   2  -1    1.78    0.78
  11   2  -1    1.90    0.56
  11   2  -1    2.47    0.53
  10  -2  -1    2.59    0.64
  10  -2  -1    3.15    0.39
  10   2  -1    1.91    0.44
  10   2  -1    2.19    0.45
  10   2  -1    2.32    0.47
  10   2  -1    1.82    0.59
  -9  -2   1    0.53    0.26
   9  -2  -1    0.29    0.25
   9  -2  -1    0.78    0.48
   9   2  -1    0.95    0.31
   9   2  -1    0.54    0.34
   9   2  -1    0.38    0.31
   9   2  -1    0.97    0.45
   8  -2  -1    2.57    0.37
   8  -2  -1    1.42    0.46
  -8  -2   1    1.85    0.28
   8   2  -1    1.73    0.53
   8   2  -1    1.97    0.42
  -7  -2   1    9.10    0.56
   7  -2  -1    7.83    0.78
   7  -2  -1    8.65    0.57
   6  -2  -1    0.54    0.30
  -6  -2   1    0.75    0.18
   6  -2  -1    1.05    0.17
   6  -2  -1    1.58    0.23
   5  -2  -1   -0.40    0.20
   5  -2  -1   -0.14    0.10
  -5  -2   1    0.04    0.11
   5  -2  -1    0.01    0.11
   4  -2  -1    3.55    0.25
  -4  -2   1    3.71    0.27
   3  -2  -1    2.40    0.17
  -3  -2   1    2.23    0.19
   3  -2  -1    2.54    0.17
  -2  -2   1   14.73    0.71
   2   2  -1   14.21    0.71
  -2   2   1   15.45    0.71
  -2   2   1   16.03    0.71
   2   2  -1   13.07    0.71
  -1  -2   1  222.55   10.42
  -1  -2   1  237.70   10.44
   1  -2  -1  232.47   10.46
  -1  -2   1  199.91   10.42
   1  -2  -1  224.21   10.43
   1   2  -1  222.54   10.42
   1   2  -1  248.24   10.44
  -1   2   1  235.96   10.43
   0  -2  -1   20.84    0.94
   0  -2  -1   20.89    0.93
   0  -2   1   20.30    0.93
   0  -2   1   21.41    0.93
   0   2   1   16.89    0.93
  -1  -2  -1  277.56   13.52
   1  -2   1  291.57   13.54
  -1  -2  -1  298.40   13.52
   1   2   1  301.93   13.52
   1   2   1  307.67   13.52
   2  -2   1  182.16    8.51
   2  -2   1  184.18    8.45
   2  -2   1  183.69    8.45
  -2  -2  -1  189.38    8.47
  -2   2  -1  187.69    8.46
   2   2   1  173.69    8.47
   2   2   1  192.51    8.47
   3  -2   1   18.97    1.00
   3  -2   1   18.98    0.92
   3  -2   1   20.17    0.92
  -3  -2  -1   19.89    0.93
   3   2   1   18.14    0.96
   4  -2   1   61.65    2.94
   4  -2   1   58.93    2.84
   4  -2   1   62.32    2.85
  -4  -2  -1   64.02    2.86
   4  -2   1   62.92    2.85
   4   2   1   57.48    2.89
   5  -2   1   10.55    0.55
   5  -2   1   10.10    0.70
   5  -2   1   11.02    0.56
  -5  -2  -1    9.82    0.55
   5   2   1    9.57    0.62
   6  -2   1    0.78    0.16
   6  -2   1    0.55    0.28
   6  -2   1    0.44    0.15
  -6  -2  -1    1.09    0.18
   6   2   1    0.95    0.23
  -7  -2  -1   27.75    1.41
   7  -2   1   28.45    1.42
   7  -2   1   28.71    1.42
   7  -2   1   27.94    1.60
   7   2   1   27.59    1.54
   7   2   1   29.06    1.52
  -8  -2  -1    2.65    0.31
   8  -2   1    3.04    0.55
   8  -2   1    2.52    0.34
   8   2   1    2.56    0.42
   8   2   1    3.10    0.56
  -9  -2  -1    2.63    0.33
   9  -2   1    1.97    0.34
   9  -2   1    2.57    0.56
   9   2   1    2.85    0.56
   9   2   1    2.64    0.43
  10  -2   1    7.56    0.70
  10  -2   1    8.14    1.06
  10   2   1    6.47    0.98
  10   2   1    8.01    0.75
  10   2   1    6.91    0.73
  10   2   1    8.12    0.87
  11  -2   1    0.69    0.76
  11   2   1    0.31    0.76
  11   2   1   -0.13    0.52
  11   2   1   -0.46    0.52
  11   2   1    0.43    0.52
  11  -3  -1    1.38    0.79
  11   3  -1    0.56    0.51
  11   3  -1   -0.12    0.51
  11   3  -1    1.47    0.52
  11   3  -1    0.20    0.71
  10  -3  -1    0.31    0.58
  10  -3  -1    0.37    0.32
  10   3  -1    0.44    0.40
  10   3  -1    0.16    0.39
  10   3  -1    0.13    0.54
  10   3  -1    0.22    0.39
   9  -3  -1   -0.06    0.48
   9  -3  -1    0.00    0.25
  -9  -3   1   -0.26    0.25
   9   3  -1   -0.01    0.32
   9   3  -1   -0.24    0.42
   8  -3  -1   35.71    1.81
  -8  -3   1   37.13    1.82
   8  -3  -1   36.63    2.05
   8   3  -1   37.82    1.95
  -7  -3   1   74.10    3.39
   7  -3  -1   66.50    3.56
   7  -3  -1   72.53    3.38
   7   3  -1   72.81    3.45
  -6  -3   1   81.58    3.78
   6  -3  -1   80.43    3.93
   6  -3  -1   79.92    3.77
   6   3  -1   80.52    3.83
   5  -3  -1   51.40    2.41
   5  -3  -1   51.87    2.55
  -5  -3   1   50.85    2.43
   5   3  -1   51.14    2.46
   4  -3  -1   36.71    1.66
   4  -3  -1   30.71    1.76
  -4  -3   1   36.43    1.68
   4   3  -1   36.33    1.69
  -3  -3   1   25.00    1.15
   3  -3  -1   23.30    1.13
   3  -3  -1   23.43    1.22
  -3   3   1   23.35    1.14
  -3   3   1   23.19    1.14
   3   3  -1   24.36    1.15
  -2  -3   1    1.67    0.13
   2  -3  -1    2.00    0.13
   2  -3  -1    1.66    0.22
  -2  -3   1    1.73    0.15
   2   3  -1    2.11    0.14
   2   3  -1    1.42    0.17
  -2   3   1    2.23    0.14
   1  -3  -1  569.63   26.74
  -1  -3   1  590.81   26.72
   1   3  -1  593.63   26.72
   0  -3   1   11.27    0.50
   0  -3  -1   10.13    0.51
   0  -3   1   10.55    0.51
   0  -3  -1   10.90    0.50
   0   3   1    9.90    0.50
   0   3   1    9.14    0.51
   0   3  -1   10.48    0.50
   1  -3   1  644.46   30.05
   1   3   1  670.12   30.03
  -2  -3  -1   26.47    1.24
   2  -3   1   26.85    1.22
   2  -3   1   25.29    1.28
   2   3   1   24.63    1.24
   2   3   1   26.36    1.24
   2   3   1   26.46    1.22
  -2   3  -1   27.28    1.22
   3  -3   1   28.61    1.33
   3  -3   1   27.05    1.33
  -3  -3  -1   29.82    1.36
   3  -3   1   27.10    1.42
   3   3   1   29.25    1.37
   4  -3   1    9.91    0.69
   4  -3   1   11.99    0.57
  -5  -3  -1    3.02    0.26
   5  -3   1    2.89    0.23
   5  -3   1    2.47    0.38
   5   3   1    2.39    0.29
  -6  -3  -1    7.77    0.50
   6  -3   1    7.99    0.69
   6  -3   1    8.09    0.47
   6   3   1    8.22    0.57
   7  -3   1    5.89    0.41
   7  -3   1    7.08    0.73
  -7  -3  -1    6.07    0.47
   7   3   1    4.53    0.60
   7   3   1    5.73    0.55
  -8  -3  -1    4.75    0.41
   8  -3   1    3.33    0.60
   8  -3   1    3.66    0.44
   8   3   1    4.46    0.68
   8   3   1    4.03    0.61
  -9  -3  -1    2.65    0.35
   9  -3   1    2.14    0.33
   9  -3   1    3.72    0.63
   9   3   1    3.44    0.57
   9   3   1    3.15    0.55
  10  -3   1    1.29    0.65
 -10  -3  -1    0.30    0.31
  10   3   1    0.67    0.40
  10   3   1    0.41    0.55
  11  -3   1    7.87    1.27
  11   3   1    5.15    0.72
  11   3   1    5.17    0.72
  11   3   1    6.93    0.98
  11   3   1    6.24    0.96
  11  -4  -1    1.04    0.79
  11   4  -1    0.94    0.60
  11   4  -1    0.70    0.77
  11   4  -1    1.24    0.53
  11   4  -1    1.27    0.60
 -10  -4   1    1.47    0.37
  10  -4  -1    1.69    0.36
  10  -4  -1    2.48    0.70
  10   4  -1    2.03    0.43
  10   4  -1    1.52    0.61
   9  -4  -1    2.73    0.39
  -9  -4   1    2.21    0.33
   9  -4  -1    3.33    0.62
   9   4  -1    2.60    0.40
   9   4  -1    1.83    0.51
  -8  -4   1    2.57    0.37
   8  -4  -1    1.92    0.52
   8  -4  -1    2.11    0.28
   8   4  -1    1.91    0.38
  -7  -4   1    2.29    0.31
   7  -4  -1    2.18    0.27
   7  -4  -1    2.83    0.50
   7   4  -1    2.18    0.38
  -6  -4   1    4.78    0.39
   6  -4  -1    4.07    0.32
   6  -4  -1    4.07    0.54
   6   4  -1    4.09    0.39
   5  -4  -1    1.52    0.19
  -5  -4   1    1.31    0.20
   5  -4  -1    1.03    0.29
   5   4  -1    1.35    0.21
   4  -4  -1    1.09    0.14
  -4  -4   1    0.55    0.13
   4  -4  -1    0.61    0.21
   4   4  -1    0.72    0.13
   3  -4  -1   17.39    0.85
   3  -4  -1   17.83    0.96
  -3  -4   1   17.85    0.88
  -3   4   1   16.99    0.87
   3   4  -1   18.13    0.86
  -2  -4   1   23.01    1.12
   2  -4  -1   23.24    1.20
   2  -4  -1   24.15    1.13
  -2  -4   1   24.55    1.15
  -2   4   1   24.29    1.13
   2   4  -1   24.37    1.12
  -1  -4   1  405.15   18.31
   1  -4  -1  407.34   18.30
   1  -4  -1  383.34   18.33
   1   4  -1  408.82   18.31
  -1   4   1  396.66   18.29
   0  -4   1    5.04    0.28
   0  -4  -1    5.51    0.28
   0  -4   1    5.58    0.27
   0  -4  -1    5.46    0.28
   0   4  -1    4.73    0.26
   0   4   1    4.71    0.27
  -1  -4  -1  470.25   20.32
   1  -4   1  451.56   20.34
   1   4   1  436.57   20.31
   1   4   1  418.98   20.29
  -2  -4  -1   22.29    1.15
  -2  -4  -1   23.71    1.18
   2  -4   1   23.62    1.23
   2  -4   1   25.12    1.15
  -2   4  -1   28.41    1.16
   3  -4   1    0.12    0.06
  -3  -4  -1    0.29    0.11
   3  -4   1    0.20    0.16
  -3   4  -1    0.12    0.09
   3   4   1    0.12    0.08
  -3   4  -1    0.12    0.09
   4  -4   1   30.29    1.41
  -4  -4  -1   30.47    1.45
   4  -4   1   30.51    1.55
   4  -4   1   28.79    1.41
   4   4   1   29.97    1.46
   5  -4   1   14.70    0.72
   5  -4   1   13.53    0.88
  -5  -4  -1   14.74    0.76
   5   4   1   13.85    0.78
   6  -4   1   16.00    0.85
   6  -4   1   16.33    1.07
  -6  -4  -1   17.46    0.91
   6   4   1   17.71    0.95
   7  -4   1   31.51    1.77
  -7  -4  -1   30.78    1.54
   7  -4   1   30.40    1.51
   7   4   1   31.04    1.62
  -8  -4  -1    0.16    0.20
   8  -4   1   -0.79    0.43
   8  -4   1   -0.39    0.21
   8   4   1    0.01    0.29
   8   4   1   -0.15    0.37
   9  -4   1    4.90    0.70
   9  -4   1    3.23    0.45
  -9  -4  -1    3.77    0.48
   9   4   1    4.44    0.63
   9   4   1    4.87    0.58
  10  -4   1    0.14    0.62
 -10  -4  -1    0.28    0.35
  10   4   1    0.27    0.59
  10   4   1    0.56    0.39
  11  -4   1    3.83    0.86
  11   4   1    3.02    0.63
  11   4   1    2.99    0.61
  11   4   1    1.87    0.63
 -10  -5   1    3.64    0.46
  10  -5  -1    3.53    0.81
  10   5  -1    3.14    0.67
  10   5  -1    3.26    0.49
   9  -5  -1    1.43    0.54
   9  -5  -1    0.85    0.24
  -9  -5   1    1.02    0.29
   9   5  -1    0.81    0.31
   9   5  -1    1.47    0.51
   8  -5  -1   16.94    1.28
   8  -5  -1   17.87    0.98
  -8  -5   1   19.37    1.02
   8   5  -1   19.50    1.10
   7  -5  -1    0.22    0.16
  -7  -5   1   -0.10    0.19
   7  -5  -1   -0.43    0.38
   7   5  -1    0.28    0.19
   6  -5  -1    9.06    0.79
  -6  -5   1    9.05    0.58
   6  -5  -1    9.04    0.51
   6   5  -1    9.23    0.58
  -5  -5   1  135.65    6.30
   5  -5  -1  135.47    6.26
   5  -5  -1  133.66    6.42
   5   5  -1  138.72    6.30
   4  -5  -1    3.32    0.42
  -4  -5   1    3.77    0.32
   4  -5  -1    4.87    0.28
   4   5  -1    5.29    0.31
  -3  -5   1  285.87   14.35
  -3  -5   1  327.18   14.38
   3  -5  -1  312.42   14.35
   3  -5  -1  329.17   14.46
   3   5  -1  313.47   14.35
   2  -5  -1    8.12    0.53
   2  -5  -1    8.66    0.43
  -2  -5   1    8.30    0.46
  -2  -5   1    8.46    0.43
  -2   5   1    8.86    0.44
   2   5  -1    8.89    0.43
   1  -5  -1   27.98    1.28
  -1  -5   1   27.75    1.29
   1  -5  -1   25.81    1.32
  -1  -5   1   28.44    1.26
  -1   5   1   25.44    1.27
   0  -5   1   10.34    0.47
   0  -5  -1   10.18    0.48
   0  -5   1    8.46    0.47
   0  -5  -1   10.43    0.47
   0   5   1    7.79    0.46
   0   5  -1    8.57    0.46
   1  -5   1    2.84    0.18
  -1  -5  -1    3.14    0.20
   1  -5   1    2.53    0.23
   1   5   1    2.42    0.19
  -1   5  -1    2.52    0.16
   1   5   1    3.09    0.20
   2  -5   1   29.44    1.32
   2  -5   1   26.06    1.39
  -2  -5  -1   28.16    1.31
  -2  -5  -1   28.43    1.35
  -2   5  -1   30.99    1.32
   2   5   1   26.07    1.31
   3  -5   1   15.14    0.89
  -3  -5  -1   16.84    0.82
   3  -5   1   16.24    0.78
   3   5   1   16.42    0.80
  -3   5  -1   16.10    0.79
   4  -5   1    0.56    0.23
  -4   5  -1    0.23    0.14
   5  -5   1   14.27    0.91
   5  -5   1   14.60    0.72
  -5  -5  -1   14.86    0.79
   5   5   1   14.16    0.78
  -6  -5  -1    2.37    0.33
   6  -5   1    2.38    0.23
   6  -5   1    2.81    0.46
   6   5   1    2.47    0.33
   7  -5   1    2.48    0.48
   7  -5   1    1.88    0.25
  -7  -5  -1    1.56    0.25
   7   5   1    2.49    0.39
   8  -5   1    1.91    0.52
   8  -5   1    0.90    0.22
   8   5   1    0.33    0.39
   8   5   1    1.35    0.34
   9  -5   1    2.16    0.59
   9  -5   1    1.92    0.31
  -9  -5  -1    1.57    0.32
   9   5   1    1.34    0.35
   9   5   1    1.08    0.59
 -10  -5  -1    0.90    0.35
  10  -5   1    0.84    0.64
  10   5   1   -0.28    0.59
  10   5   1    0.84    0.37
  10  -6  -1    3.53    0.76
 -10  -6   1    2.59    0.44
  10   6  -1    2.73    0.69
  10   6  -1    2.99    0.45
  -9  -6   1    0.00    0.28
   9  -6  -1    0.11    0.25
   9  -6  -1   -0.04    0.53
   9   6  -1    0.40    0.28
   8  -6  -1    0.15    0.22
   8  -6  -1   -0.29    0.45
  -8  -6   1    0.54    0.24
   8   6  -1    0.15    0.28
   7  -6  -1    0.62    0.18
  -7  -6   1    0.66    0.22
   7  -6  -1    0.91    0.43
   7   6  -1    0.58    0.20
   6  -6  -1    5.18    0.34
  -6  -6   1    4.46    0.40
   6  -6  -1    4.67    0.70
   6   6  -1    5.02    0.39
   5  -6  -1   26.27    1.25
   5  -6  -1   25.67    1.44
  -5  -6   1   24.00    1.30
   5   6  -1   27.31    1.28
  -4  -6   1    1.73    0.22
   4  -6  -1    1.71    0.31
   4  -6  -1    1.84    0.18
   4   6  -1    2.14    0.20
  -3  -6   1    2.27    0.19
  -3  -6   1    2.26    0.24
   3  -6  -1    2.45    0.35
   3  -6  -1    2.65    0.19
   3   6  -1    2.74    0.20
   2  -6  -1  131.94    6.14
   2  -6  -1  138.26    6.06
  -2  -6   1  134.32    6.08
  -2  -6   1  119.92    6.04
   2   6  -1  134.48    6.05
  -1  -6   1   35.98    1.68
   1  -6  -1   37.42    1.70
  -1  -6   1   36.93    1.71
   1  -6  -1   34.63    1.74
   0  -6  -1   22.68    1.19
   0  -6   1   24.50    1.19
   0  -6  -1   26.05    1.19
   0  -6   1   26.21    1.19
   1  -6   1    0.28    0.12
   1  -6   1    0.33    0.08
  -1  -6  -1    0.34    0.09
  -1   6  -1    0.21    0.06
   2  -6   1  164.44    7.48
  -2  -6  -1  161.30    7.51
   2  -6   1  155.95    7.55
  -2  -6  -1  164.44    7.46
  -2   6  -1  163.92    7.47
   2   6   1  167.65    7.48
   3  -6   1   26.78    1.41
   3  -6   1   28.27    1.29
  -3  -6  -1   27.16    1.34
   3   6   1   27.99    1.31
  -3   6  -1   26.74    1.30
   4  -6   1    4.20    0.25
   4  -6   1    4.39    0.43
  -4  -6  -1    3.52    0.32
   4   6   1    4.03    0.29
  -5  -6  -1    1.54    0.24
   5  -6   1    1.48    0.17
   5  -6   1    0.76    0.32
   5   6   1    1.48    0.25
   6  -6   1   59.42    2.75
  -6  -6  -1   58.13    2.81
   6  -6   1   60.85    2.98
   6   6   1   56.61    2.80
  -7  -6  -1   15.56    0.91
   7  -6   1   16.33    0.85
   7  -6   1   17.19    1.15
   7   6   1   17.33    0.95
   8  -6   1   -0.68    0.46
   8  -6   1   -0.09    0.18
  -8  -6  -1    0.36    0.24
   8   6   1    0.25    0.37
   8   6   1    0.00    0.27
  -9  -6  -1    1.68    0.33
   9  -6   1    1.90    0.63
   9   6   1    2.19    0.36
   9   6   1    2.43    0.59
 -10  -6  -1    4.00    0.50
  10   6   1    3.74    0.49
 -10  -7   1   -0.02    0.35
  10  -7  -1    0.19    0.69
  10   7  -1    0.45    0.37
   9  -7  -1   -0.27    0.57
  -9  -7   1   -0.38    0.26
   9  -7  -1   -0.13    0.26
   9   7  -1    0.04    0.28
  -8  -7   1    0.29    0.26
   8  -7  -1    0.53    0.22
   8  -7  -1    0.46    0.48
   8   7  -1    0.41    0.27
   7  -7  -1    9.51    0.56
  -7  -7   1    9.42    0.63
   7  -7  -1    9.14    0.83
   7   7  -1    9.32    0.60
   6  -7  -1   47.60    2.28
   6  -7  -1   49.22    2.52
  -6  -7   1   47.84    2.35
   6   7  -1   48.93    2.32
   5  -7  -1   10.16    0.74
   5  -7  -1    9.48    0.51
  -5  -7   1    8.77    0.56
   5   7  -1    9.37    0.53
   4  -7  -1    5.61    0.54
   4  -7  -1    5.85    0.35
  -4  -7   1    5.62    0.42
   4   7  -1    6.13    0.35
  -3  -7   1   94.96    4.45
   3  -7  -1   98.50    4.41
   3  -7  -1   94.96    4.53
  -3  -7   1   91.23    4.40
   3   7  -1   97.95    4.41
  -2  -7   1   45.12    2.13
   2  -7  -1   44.02    2.22
   2  -7  -1   46.99    2.15
  -2  -7   1   45.58    2.17
   2   7  -1   47.29    2.14
   1  -7  -1    0.04    0.09
  -1  -7   1    0.12    0.10
  -1  -7   1    0.32    0.07
   1  -7  -1    0.11    0.12
   0  -7  -1   -0.08    0.09
   0  -7   1    0.04    0.08
   0  -7  -1   -0.07    0.08
   0  -7   1   -0.07    0.09
  -1  -7  -1    6.50    0.33
  -1  -7  -1    6.42    0.38
   1  -7   1    6.28    0.35
   1  -7   1    6.05    0.41
   2  -7   1   -0.03    0.15
   2  -7   1    0.17    0.10
  -2  -7  -1    0.22    0.13
   2   7   1    0.29    0.10
   3  -7   1  101.94    4.94
  -3  -7  -1   98.07    4.81
   3  -7   1  111.91    4.83
  -3  -7  -1  104.87    4.87
   3   7   1  106.98    4.84
   4  -7   1    4.13    0.45
  -4  -7  -1    3.27    0.32
   4  -7   1    3.22    0.23
   4   7   1    3.26    0.27
   5  -7   1    1.82    0.20
   5  -7   1    1.30    0.34
  -5  -7  -1    1.99    0.26
   5   7   1    1.71    0.24
  -6  -7  -1    3.64    0.39
   6  -7   1    4.19    0.30
   6  -7   1    3.85    0.59
   6   7   1    4.76    0.38
  -7  -7  -1   19.01    1.07
   7  -7   1   19.96    1.27
   7  -7   1   20.37    0.99
   7   7   1   19.07    1.06
   8  -7   1    0.18    0.19
  -8  -7  -1    0.14    0.24
   8  -7   1    0.45    0.45
   8   7   1    0.35    0.26
   8   7   1    0.60    0.39
  -9  -7  -1    0.38    0.29
   9  -7   1    0.60    0.61
   9   7   1    0.55    0.81
   9   7   1    0.01    0.27
  10  -7   1    1.72    0.73
 -10  -7  -1    1.66    0.40
  10   7   1    1.14    0.39
 -10  -8   1    1.74    0.46
  10  -8  -1    1.31    0.74
  -9  -8   1    0.08    0.30
   9  -8  -1    0.25    0.60
   9   8  -1   -0.07    0.28
   8  -8  -1    3.01    0.59
  -8  -8   1    3.20    0.48
   8  -8  -1    3.06    0.38
   8   8  -1    3.11    0.46
   7  -8  -1    1.42    0.24
  -7  -8   1    1.54    0.27
   7  -8  -1    1.44    0.42
   7   8  -1    1.08    0.22
   6  -8  -1    8.77    0.51
  -6  -8   1    8.18    0.60
   6  -8  -1    9.32    0.78
   6   8  -1    9.04    0.54
  -5  -8   1   -0.27    0.17
   5  -8  -1    0.26    0.12
   5  -8  -1   -0.04    0.33
   5   8  -1    0.19    0.12
   4  -8  -1    6.43    0.38
   4  -8  -1    5.88    0.56
  -4  -8   1    5.89    0.45
   4   8  -1    6.48    0.38
  -3  -8   1   87.48    4.20
  -3  -8   1   90.63    4.26
   3  -8  -1   89.15    4.33
   3  -8  -1   94.31    4.22
   3   8  -1   93.62    4.21
  -2  -8   1  136.79    6.27
   2  -8  -1  131.36    6.32
  -2  -8   1  132.98    6.21
   2  -8  -1  140.39    6.24
   1  -8  -1   79.25    3.57
   1  -8  -1   72.41    3.60
  -1  -8   1   78.03    3.55
  -1  -8   1   77.30    3.58
   0  -8   1    4.85    0.30
   0  -8   1    4.19    0.29
   0  -8  -1    4.28    0.30
   0  -8  -1    4.13    0.30
   1  -8   1   20.77    0.99
  -1  -8  -1   20.47    1.01
   1  -8   1   19.55    1.03
  -2  -8  -1  116.94    5.84
  -2  -8  -1  129.69    5.90
   2  -8   1  124.83    5.94
   2  -8   1  133.90    5.87
   2   8   1  131.24    5.87
  -3  -8  -1   78.63    4.23
   3  -8   1   93.45    4.38
   3  -8   1   99.21    4.25
  -3  -8  -1   93.30    4.30
   3   8   1   95.53    4.26
  -4  -8  -1    1.90    0.26
   4  -8   1    1.98    0.20
   4  -8   1    1.48    0.31
   4   8   1    1.91    0.22
  -5  -8  -1   84.73    4.15
   5  -8   1   91.44    4.09
   5  -8   1   87.81    4.29
   5   8   1   89.24    4.12
   6  -8   1   10.74    0.86
   6  -8   1   12.17    0.60
  -6  -8  -1    9.86    0.69
   6   8   1   11.02    0.65
   7  -8   1    2.97    0.51
  -7  -8  -1    2.19    0.31
   7  -8   1    2.28    0.28
   7   8   1    2.08    0.29
   8  -8   1    4.17    0.64
  -8  -8  -1    3.97    0.48
   8  -8   1    4.04    0.45
   8   8   1    2.73    0.35
   9  -8   1   -0.17    0.59
  -9  -8  -1    0.15    0.31
   9   8   1   -0.28    0.27
  10  -8   1    0.71    0.72
 -10  -8  -1    1.38    0.44
  10   8   1    0.71    0.38
  10  -9  -1    0.32    0.77
 -10  -9   1    0.40    0.41
  -9  -9   1    0.39    0.34
   9  -9  -1    0.54    0.61
   9   9  -1    0.64    0.31
  -8  -9   1    0.23    0.27
   8  -9  -1    0.24    0.23
   8  -9  -1   -0.41    0.48
   8   9  -1    0.04    0.26
   7  -9  -1    1.05    0.24
  -7  -9   1    0.89    0.28
   7  -9  -1    1.51    0.45
   7   9  -1    0.68    0.20
   6  -9  -1    6.03    0.43
  -6  -9   1    5.80    0.52
   6  -9  -1    6.57    0.72
   6   9  -1    6.75    0.44
   5  -9  -1    8.07    0.46
  -5  -9   1    7.16    0.52
   5  -9  -1    6.77    0.72
   5   9  -1    7.96    0.46
  -4  -9   1    0.49    0.18
  -4  -9   1    0.57    0.14
   4  -9  -1    0.36    0.29
   4  -9  -1    0.70    0.14
   4   9  -1    0.51    0.13
  -3  -9   1    2.48    0.22
   3  -9  -1    2.83    0.39
  -3  -9   1    2.53    0.32
   3  -9  -1    3.27    0.26
   3   9  -1    3.01    0.26
   2  -9  -1   87.15    3.91
   2  -9  -1   80.66    3.99
  -2  -9   1   84.91    3.88
  -2  -9   1   83.76    3.94
   1  -9  -1    8.81    0.49
  -1  -9   1    8.42    0.51
  -1  -9   1    9.24    0.46
   1  -9  -1    8.15    0.54
   0  -9  -1    9.02    0.49
   0  -9  -1    8.15    0.49
   0  -9   1    8.55    0.49
   0  -9   1    8.61    0.49
  -1  -9  -1   12.66    0.67
  -1  -9  -1   12.85    0.62
   1  -9   1   12.22    0.65
   1  -9   1   11.46    0.69
  -2  -9  -1   40.54    1.79
   2  -9   1   38.26    1.83
  -2  -9  -1   38.08    1.86
   2  -9   1   36.82    1.90
   3  -9   1    7.96    0.61
  -3  -9  -1    6.90    0.50
   3  -9   1    7.76    0.44
  -3  -9  -1    7.75    0.42
   3   9   1    8.08    0.46
   4  -9   1    7.75    0.66
  -4  -9  -1    8.36    0.53
   4  -9   1    8.58    0.47
   4   9   1    8.27    0.48
   5  -9   1   -0.15    0.13
   5  -9   1    0.10    0.34
  -5  -9  -1   -0.16    0.17
   5   9   1    0.22    0.14
   6  -9   1   39.10    1.79
   6  -9   1   37.30    2.03
  -6  -9  -1   35.44    1.86
   6   9   1   37.81    1.83
   7  -9   1   -0.23    0.41
   7  -9   1    0.51    0.19
  -7  -9  -1    0.14    0.24
   7   9   1   -0.02    0.20
  -8  -9  -1    1.45    0.30
   8  -9   1    1.03    0.53
   8   9   1    1.13    0.28
  -9  -9  -1    4.59    0.59
   9  -9   1    5.15    0.81
   9   9   1    3.52    0.55
  10  -9   1    0.82    0.77
 -10  -9  -1    0.08    0.46
  10   9   1    0.47    0.37
  10 -10  -1    0.52    0.90
 -10 -10   1   -0.05    0.42
  -9 -10   1    3.95    0.53
   9 -10  -1    4.25    0.82
   8 -10  -1    0.41    0.30
  -8 -10   1   -0.08    0.30
   8 -10  -1    1.01    0.55
   8  10  -1    0.32    0.26
  -7 -10   1    0.09    0.26
   7 -10  -1    0.02    0.42
   7 -10  -1    0.29    0.24
   7  10  -1    0.17    0.19
   6 -10  -1   19.45    1.22
   6 -10  -1   19.22    0.97
  -6 -10   1   17.48    1.04
   6  10  -1   18.84    0.97
  -5 -10   1    1.57    0.26
   5 -10  -1    1.49    0.39
   5 -10  -1    1.90    0.28
   5  10  -1    1.46    0.19
   4 -10  -1   25.15    1.40
  -4 -10   1   23.54    1.19
  -4 -10   1   23.13    1.25
   4 -10  -1   25.20    1.20
   4  10  -1   24.57    1.20
  -3 -10   1   74.83    3.59
   3 -10  -1   78.44    3.55
  -3 -10   1   75.06    3.52
   3 -10  -1   75.21    3.67
  -2 -10   1   23.10    1.20
   2 -10  -1   22.51    1.25
   2 -10  -1   24.36    1.17
  -2 -10   1   24.22    1.13
   1 -10  -1    0.10    0.17
  -1 -10   1   -0.07    0.14
  -1 -10   1    0.06    0.10
   1 -10  -1    0.04    0.13
   0 -10   1   13.42    0.71
   0 -10  -1   13.53    0.71
   0 -10  -1   12.45    0.69
   0 -10   1   12.80    0.70
  -1 -10  -1    2.98    0.30
  -1 -10  -1    3.37    0.24
   1 -10   1    3.11    0.28
   1 -10   1    2.84    0.31
   2 -10   1    0.64    0.22
   2 -10   1    0.53    0.15
  -2 -10  -1    0.74    0.21
  -3 -10  -1   20.74    1.09
   3 -10   1   22.14    1.05
  -3 -10  -1   20.24    1.01
   3 -10   1   20.70    1.18
   3  10   1   20.76    1.05
   4 -10   1   13.87    0.69
  -4 -10  -1   12.61    0.75
   4 -10   1   12.57    0.89
   4  10   1   12.05    0.69
   5 -10   1    0.38    0.16
  -5 -10  -1    0.03    0.20
   5 -10   1   -0.07    0.31
   5  10   1    0.20    0.15
   6 -10   1    1.47    0.43
  -6 -10  -1    0.92    0.27
   6 -10   1    0.97    0.19
   6  10   1    1.07    0.21
  -7 -10  -1   -0.32    0.24
   7 -10   1    0.21    0.20
   7 -10   1    0.00    0.42
   7  10   1    0.12    0.22
  -8 -10  -1    3.47    0.44
   8 -10   1    3.78    0.70
   8  10   1    3.19    0.45
   9 -10   1    3.00    0.76
  -9 -10  -1    2.59    0.45
   9  10   1    2.65    0.39
   9 -11  -1   -0.24    0.68
  -9 -11   1    0.08    0.42
   8 -11  -1   14.45    1.25
  -8 -11   1   14.46    0.93
   8  11  -1   13.78    0.89
  -7 -11   1    0.29    0.29
   7 -11  -1    0.42    0.25
   7 -11  -1   -0.01    0.45
   7  11  -1   -0.11    0.20
   6 -11  -1    0.19    0.23
  -6 -11   1    0.02    0.25
   6 -11  -1    0.11    0.37
   6  11  -1    0.09    0.17
   5 -11  -1    1.37    0.23
  -5 -11   1    1.03    0.28
   5 -11  -1    0.93    0.39
   5  11  -1    0.81    0.19
  -4 -11   1    6.98    0.50
   4 -11  -1    7.16    0.47
   4 -11  -1    6.51    0.69
  -4 -11   1    6.50    0.42
  -3 -11   1    5.22    0.43
  -3 -11   1    5.24    0.35
   3 -11  -1    5.64    0.40
   3 -11  -1    5.10    0.55
   2 -11  -1   23.71    1.17
  -2 -11   1   23.95    1.13
  -2 -11   1   22.34    1.19
   2 -11  -1   22.99    1.25
   1 -11  -1   13.95    0.84
  -1 -11   1   16.90    0.77
  -1 -11   1   14.32    0.82
   1 -11  -1   14.38    0.80
   0 -11   1    7.06    0.46
   0 -11   1    7.22    0.45
   0 -11  -1    7.38    0.48
   0 -11  -1    6.63    0.45
  -1 -11  -1   23.76    1.28
   1 -11   1   26.64    1.27
  -1 -11  -1   26.04    1.22
   1 -11   1   24.44    1.29
  -2 -11  -1    0.13    0.11
   2 -11   1    0.07    0.16
  -2 -11  -1   -0.13    0.17
   2 -11   1    0.60    0.23
   3 -11   1   16.70    0.86
  -3 -11  -1   16.54    0.82
   3 -11   1   16.73    1.00
  -3 -11  -1   16.24    0.91
   4 -11   1    5.84    0.41
  -4 -11  -1    6.50    0.39
  -4 -11  -1    6.19    0.48
   4 -11   1    5.54    0.64
   4  11   1    5.94    0.44
   5 -11   1    9.08    0.54
  -5 -11  -1    7.48    0.60
   5 -11   1    8.79    0.79
   5  11   1    9.04    0.55
   6 -11   1    5.88    0.42
   6 -11   1    4.59    0.66
  -6 -11  -1    3.73    0.46
   6  11   1    4.60    0.41
  -7 -11  -1    3.20    0.43
   7 -11   1    4.12    0.57
   7 -11   1    3.64    0.62
   7  11   1    3.76    0.45
  -8 -11  -1    0.17    0.33
   8 -11   1    0.66    0.61
   8  11   1    0.11    0.25
  -9 -11  -1    3.24    0.53
   9 -11   1    3.51    0.83
   9  11   1    2.19    0.57
   9 -12  -1    4.27    0.91
  -9 -12   1    3.09    0.53
   8 -12  -1    3.64    0.78
  -8 -12   1    3.69    0.52
  -7 -12   1    0.85    0.32
   7 -12  -1    0.76    0.51
   7 -12  -1    1.16    0.29
   7  12  -1    0.28    0.24
   6 -12  -1    2.43    0.31
  -6 -12   1    1.78    0.34
   6 -12  -1    2.23    0.53
   6  12  -1    1.92    0.26
   5 -12  -1    0.76    0.26
   5 -12  -1    0.37    0.37
  -5 -12   1    0.44    0.27
   5  12  -1    0.90    0.21
  -4 -12   1   16.79    0.88
   4 -12  -1   18.27    0.95
   4 -12  -1   16.55    1.13
  -4 -12   1   16.97    0.97
   3 -12  -1    5.53    0.45
  -3 -12   1    5.83    0.46
   3 -12  -1    5.56    0.58
  -3 -12   1    5.63    0.37
  -2 -12   1   64.41    2.96
   2 -12  -1   61.55    3.08
  -2 -12   1   61.13    3.03
   2 -12  -1   66.32    3.01
  -1 -12   1   11.70    0.58
  -1 -12   1   10.42    0.66
   1 -12  -1   10.15    0.66
   1 -12  -1    9.62    0.65
   0 -12   1    0.10    0.17
   0 -12  -1   -0.08    0.17
   0 -12   1    0.04    0.19
   0 -12  -1   -0.27    0.19
  -1 -12  -1   13.70    0.79
  -1 -12  -1   14.66    0.73
   1 -12   1   13.29    0.80
   1 -12   1   14.11    0.79
   2 -12   1    1.75    0.32
   2 -12   1    1.49    0.23
  -2 -12  -1    1.29    0.25
   3 -12   1    1.34    0.37
  -3 -12  -1    1.40    0.21
  -3 -12  -1    0.90    0.24
   3 -12   1    1.09    0.22
   4 -12   1   24.50    1.18
  -4 -12  -1   23.23    1.24
  -4 -12  -1   22.31    1.13
   4 -12   1   21.81    1.33
  -5 -12  -1    0.64    0.25
   5 -12   1    0.74    0.37
   5 -12   1    0.61    0.21
   5  12   1    0.50    0.21
   6 -12   1    2.18    0.29
   6 -12   1    2.29    0.49
  -6 -12  -1    1.82    0.36
   6  12   1    1.72    0.27
   7 -12   1    1.54    0.52
  -7 -12  -1    0.44    0.32
   7  12   1    0.86    0.29
   8 -12   1    2.38    0.69
  -8 -12  -1    2.76    0.46
   8  12   1    1.77    0.34
   9 -12   1    0.59    0.73
  -9 -12  -1   -0.52    0.42
  -9 -13   1    0.84    0.52
   9 -13  -1    0.07    0.82
  -8 -13   1    0.30    0.43
   8 -13  -1    0.92    0.67
   7 -13  -1    0.38    0.53
  -7 -13   1    0.04    0.34
   7 -13  -1   -0.31    0.48
   6 -13  -1    1.00    0.27
   6 -13  -1    1.43    0.46
  -6 -13   1    0.31    0.30
   6  13  -1    0.60    0.24
   5 -13  -1    1.31    0.25
   5 -13  -1    0.95    0.41
  -5 -13   1    1.63    0.34
   4 -13  -1    0.67    0.25
  -4 -13   1    0.38    0.26
   4 -13  -1    0.76    0.39
  -4 -13   1    0.71    0.20
  -3 -13   1    0.17    0.14
  -3 -13   1    0.31    0.23
   3 -13  -1   -0.21    0.35
   3 -13  -1   -0.23    0.22
  -2 -13   1    0.76    0.23
   2 -13  -1    0.32    0.28
   2 -13  -1    0.18    0.22
   1 -13  -1    0.06    0.20
  -1 -13   1    0.05    0.15
  -1 -13   1   -0.17    0.20
   1 -13  -1   -0.16    0.21
   0 -13  -1    0.19    0.19
   0 -13   1    0.27    0.22
   0 -13   1    0.47    0.18
   0 -13  -1    0.33    0.20
   1 -13   1    0.10    0.24
   1 -13   1   -0.05    0.21
  -1 -13  -1    0.13    0.21
  -1 -13  -1    0.13    0.15
   2 -13   1   17.59    0.95
   2 -13   1   17.66    1.02
  -2 -13  -1   16.22    0.85
  -2 -13  -1   16.75    0.96
   3 -13   1   14.96    1.03
  -3 -13  -1   14.10    0.89
   3 -13   1   16.91    0.89
  -3 -13  -1   15.84    0.79
   4 -13   1   37.89    1.77
  -4 -13  -1   35.78    1.83
   4 -13   1   35.41    1.93
  -4 -13  -1   33.91    1.71
   5 -13   1    3.08    0.51
   5 -13   1    3.39    0.45
  -5 -13  -1    3.09    0.46
   5  13   1    3.25    0.39
   6 -13   1    1.64    0.50
   6 -13   1    2.41    0.34
  -6 -13  -1    1.87    0.36
   6  13   1    1.39    0.31
  -7 -13  -1    0.86    0.38
   7 -13   1    0.80    0.55
  -8 -13  -1    0.30    0.40
   8 -13   1   -0.53    0.62
  -8 -14   1    0.38    0.45
   8 -14  -1   -0.74    0.68
  -7 -14   1    1.43    0.44
   7 -14  -1    1.17    0.62
   6 -14  -1    0.26    0.47
   6 -14  -1   -0.42    0.27
  -6 -14   1    0.45    0.34
  -5 -14   1    5.70    0.61
   5 -14  -1    4.84    0.78
   5 -14  -1    5.59    0.50
  -4 -14   1   18.26    1.09
   4 -14  -1   19.07    1.01
   4 -14  -1   17.97    1.18
  -4 -14   1   18.29    0.96
   3 -14  -1    2.80    0.38
  -3 -14   1    2.12    0.28
  -3 -14   1    2.23    0.34
   3 -14  -1    2.69    0.46
   2 -14  -1   17.81    1.11
  -2 -14   1   18.07    1.03
  -2 -14   1   18.20    0.93
   2 -14  -1   19.41    1.02
   1 -14  -1    0.28    0.25
  -1 -14   1    0.24    0.17
  -1 -14   1    0.23    0.23
   1 -14  -1    0.62    0.24
   0 -14  -1    6.46    0.53
   0 -14   1    7.07    0.55
   0 -14   1    7.17    0.50
   0 -14  -1    7.12    0.50
   1 -14   1    0.24    0.24
  -1 -14  -1    0.26    0.17
  -1 -14  -1    0.30    0.25
   1 -14   1    0.48    0.24
   2 -14   1    0.64    0.24
  -2 -14  -1    0.39    0.16
  -2 -14  -1    0.32    0.25
   2 -14   1    0.43    0.32
   3 -14   1    2.80    0.45
   3 -14   1    2.35    0.33
  -3 -14  -1    2.56    0.28
  -3 -14  -1    2.83    0.37
   4 -14   1    1.46    0.41
   4 -14   1    1.50    0.30
  -4 -14  -1    1.51    0.33
  -4 -14  -1    1.90    0.28
  -5 -14  -1    4.35    0.59
   5 -14   1    4.43    0.73
   5 -14   1    6.03    0.55
   6 -14   1    0.07    0.49
  -6 -14  -1   -0.25    0.32
   6 -14   1   -0.05    0.46
   7 -14   1    3.06    0.67
  -7 -14  -1    2.81    0.49
   7  14   1    1.95    0.40
   8 -14   1    0.23    0.68
  -8 -14  -1    0.11    0.43
   8 -15  -1    4.73    0.92
  -8 -15   1    2.81    0.60
   7 -15  -1    1.41    0.65
  -7 -15   1    1.01    0.46
   6 -15  -1    1.42    0.37
  -6 -15   1    1.01    0.42
   6 -15  -1    0.83    0.56
   5 -15  -1    1.11    0.46
  -5 -15   1    0.55    0.35
   5 -15  -1    0.91    0.29
  -4 -15   1    0.66    0.22
   4 -15  -1    0.74    0.27
  -4 -15   1    0.64    0.33
   4 -15  -1    1.25    0.44
  -3 -15   1    3.96    0.54
  -3 -15   1    4.64    0.38
   3 -15  -1    4.37    0.47
   3 -15  -1    4.27    0.63
  -2 -15   1    2.95    0.31
   2 -15  -1    3.36    0.52
  -2 -15   1    3.09    0.41
   2 -15  -1    3.69    0.46
  -1 -15   1    1.94    0.29
   1 -15  -1    1.16    0.28
  -1 -15   1    1.28    0.31
   1 -15  -1    0.94    0.31
   0 -15   1    7.58    0.56
   0 -15  -1    7.61    0.61
   0 -15   1    8.43    0.61
   0 -15  -1    7.12    0.55
   1 -15   1   11.66    0.79
   1 -15   1   12.11    0.75
  -1 -15  -1   11.96    0.67
  -1 -15  -1   11.15    0.78
  -2 -15  -1    1.49    0.32
   2 -15   1    2.48    0.43
  -2 -15  -1    2.28    0.29
   2 -15   1    2.43    0.33
  -3 -15  -1    9.40    0.55
   3 -15   1    9.39    0.65
   3 -15   1    9.60    0.80
  -3 -15  -1    9.08    0.71
   4 -15   1    2.12    0.47
  -4 -15  -1    1.86    0.39
   4 -15   1    1.76    0.32
   5 -15   1    2.27    0.35
   5 -15   1    1.24    0.48
  -5 -15  -1    1.51    0.38
   6 -15   1    1.43    0.58
  -6 -15  -1    1.27    0.41
  -7 -15  -1    0.70    0.43
   7 -15   1    1.56    0.69
  -8 -15  -1    2.04    0.56
   8 -15   1    2.09    0.78
   7 -16  -1    5.68    0.90
  -7 -16   1    7.29    0.89
  -6 -16   1    1.44    0.50
   6 -16  -1    1.73    0.60
   5 -16  -1   20.04    1.39
  -5 -16   1   18.65    1.20
   5 -16  -1   20.23    1.13
  -4 -16   1    0.06    0.26
   4 -16  -1    0.74    0.31
   4 -16  -1    0.19    0.46
  -4 -16   1    0.41    0.37
  -3 -16   1   19.84    1.05
   3 -16  -1   19.69    1.26
  -3 -16   1   20.00    1.19
   3 -16  -1   21.52    1.15
   2 -16  -1    4.66    0.62
   2 -16  -1    4.60    0.51
  -2 -16   1    4.41    0.38
  -2 -16   1    3.58    0.52
  -1 -16   1    3.70    0.51
  -1 -16   1    2.50    0.35
   1 -16  -1    3.13    0.40
   1 -16  -1    2.89    0.44
   0 -16   1    2.68    0.39
   0 -16  -1    2.54    0.35
   0 -16   1    2.44    0.36
   0 -16  -1    3.43    0.49
   1 -16   1    0.55    0.29
   1 -16   1    0.72    0.35
  -1 -16  -1    0.46    0.31
  -1 -16  -1    0.38    0.22
  -2 -16  -1    0.37    0.31
   2 -16   1    0.31    0.27
  -2 -16  -1    0.02    0.18
   2 -16   1    0.75    0.36
   3 -16   1   14.29    0.86
  -3 -16  -1   13.17    0.75
   3 -16   1   13.85    1.01
  -3 -16  -1   14.17    0.95
   4 -16   1    2.22    0.37
   4 -16   1    1.21    0.48
  -4 -16  -1    1.73    0.44
   5 -16   1   17.40    1.27
   5 -16   1   16.78    1.04
  -5 -16  -1   16.27    1.12
   6 -16   1    1.18    0.56
  -6 -16  -1    1.39    0.45
   7 -16   1   -0.21    0.64
  -7 -16  -1    0.21    0.47
  -6 -17   1   -0.15    0.49
   6 -17  -1    1.07    0.64
   5 -17  -1    0.88    0.57
   5 -17  -1    0.58    0.40
  -5 -17   1    0.75    0.46
   4 -17  -1    0.05    0.47
  -4 -17   1    0.05    0.39
   4 -17  -1   -0.42    0.33
  -3 -17   1   -0.17    0.37
   3 -17  -1   -0.65    0.41
  -3 -17   1   -0.20    0.22
   3 -17  -1    0.17    0.32
  -2 -17   1    2.50    0.44
   2 -17  -1    3.66    0.51
  -2 -17   1    3.24    0.38
   2 -17  -1    3.14    0.41
  -1 -17   1   21.45    1.21
  -1 -17   1   21.39    1.12
   1 -17  -1   20.60    1.21
   1 -17  -1   20.31    1.24
   0 -17  -1    0.48    0.31
   0 -17   1    0.58    0.33
   0 -17  -1    0.67    0.32
   0 -17   1    0.91    0.34
   1 -17   1    9.17    0.74
  -1 -17  -1    9.88    0.77
   1 -17   1    9.12    0.71
  -1 -17  -1    9.06    0.60
   2 -17   1    8.83    0.76
  -2 -17  -1    8.75    0.73
  -2 -17  -1    8.79    0.56
   2 -17   1    9.51    0.70
   3 -17   1    0.54    0.42
  -3 -17  -1   -0.49    0.33
   3 -17   1   -0.40    0.30
   4 -17   1   -0.14    0.48
  -4 -17  -1   -0.22    0.41
   4 -17   1    0.20    0.35
   5 -17   1   10.27    1.06
  -5 -17  -1    8.65    0.90
   6 -17   1    1.64    0.67
  -6 -17  -1    0.91    0.51
   6 -18  -1    4.10    0.82
  -6 -18   1    3.70    0.68
  -5 -18   1    1.47    0.49
   5 -18  -1    0.25    0.47
   5 -18  -1    1.70    0.65
  -4 -18   1    0.92    0.50
   4 -18  -1    0.57    0.43
   4 -18  -1   -0.09    0.53
   3 -18  -1    0.41    0.47
  -3 -18   1    0.81    0.40
   3 -18  -1    0.70    0.37
  -2 -18   1    7.97    0.76
   2 -18  -1    7.84    0.73
  -2 -18   1    6.96    0.56
   2 -18  -1    7.23    0.77
   1 -18  -1    0.33    0.38
   1 -18  -1    0.30    0.35
  -1 -18   1    0.50    0.31
  -1 -18   1   -0.12    0.36
   0 -18   1   10.56    0.81
   0 -18   1    8.99    0.70
   0 -18  -1    9.72    0.77
   0 -18  -1    8.71    0.74
  -1 -18  -1   -0.23    0.27
  -1 -18  -1    0.66    0.38
   1 -18   1    0.01    0.35
   1 -18   1    0.07    0.33
  -2 -18  -1   12.64    0.92
  -2 -18  -1   10.63    0.77
   2 -18   1   13.25    0.94
   2 -18   1   12.67    0.86
   3 -18   1    3.46    0.59
   3 -18   1    4.25    0.64
  -3 -18  -1    3.44    0.52
  -4 -18  -1    1.13    0.49
   4 -18   1    0.16    0.53
   4 -18   1   -0.12    0.42
  -5 -18  -1   -0.84    0.46
   5 -18   1   -0.07    0.58
   6 -18   1    3.34    0.79
  -6 -18  -1    2.47    0.64
   5 -19  -1   -0.30    0.65
  -5 -19   1    0.32    0.54
   4 -19  -1    0.07    0.56
   4 -19  -1   -0.29    0.48
  -4 -19   1    0.25    0.49
   3 -19  -1   -0.16    0.42
  -3 -19   1    0.24    0.46
   3 -19  -1    0.64    0.50
  -2 -19   1    2.56    0.38
  -2 -19   1    2.76    0.51
  -1 -19   1    1.33    0.35
   1 -19  -1    1.52    0.45
   1 -19  -1    2.04    0.43
  -1 -19   1    1.83    0.44
   0 -19  -1    3.38    0.53
   0 -19   1    3.57    0.56
   0 -19   1    3.59    0.52
   0 -19  -1    4.22    0.56
  -1 -19  -1    2.26    0.46
   1 -19   1    1.95    0.45
  -1 -19  -1    1.12    0.33
   1 -19   1    0.87    0.43
  -2 -19  -1    3.78    0.56
   2 -19   1    3.69    0.51
   2 -19   1    3.35    0.56
   3 -19   1    1.25    0.53
   3 -19   1    0.91    0.47
  -3 -19  -1    0.73    0.49
  -4 -19  -1    2.87    0.59
   4 -19   1    2.47    0.64
   4 -19   1    2.50    0.63
  -5 -19  -1    2.86    0.65
   5 -19   1    2.38    0.73
   4 -20  -1    0.35    0.63
   4 -20  -1    1.61    0.60
  -4 -20   1    0.19    0.57
   3 -20  -1    1.30    0.55
   3 -20  -1    1.98    0.60
  -3 -20   1    1.34    0.57
   2 -20  -1    1.88    0.56
   2 -20  -1    2.52    0.54
  -2 -20   1    1.75    0.57
   1 -20  -1    0.28    0.47
  -1 -20   1   -0.08    0.32
   1 -20  -1   -0.22    0.43
  -1 -20   1    0.04    0.50
   0 -20   1    1.43    0.50
   0 -20  -1    1.99    0.50
   0 -20  -1    1.17    0.39
   0 -20   1    0.52    0.38
  -1 -20  -1    1.04    0.53
   1 -20   1    0.59    0.43
   1 -20   1   -0.25    0.49
   2 -20   1    2.35    0.54
  -2 -20  -1    1.98    0.53
   2 -20   1    2.48    0.54
   3 -20   1    0.20    0.55
   3 -20   1    0.67    0.53
  -3 -20  -1   -0.44    0.53
   4 -20   1   -0.24    0.61
  -4 -20  -1    0.56    0.58
   2 -21  -1    0.80    0.61
   2 -21  -1   -0.11    0.53
  -2 -21   1    0.39    0.55
  -1 -21   1    0.91    0.56
   1 -21  -1    0.00    0.57
   1 -21  -1    0.67    0.46
   0 -21  -1    3.47    0.67
   0 -21   1    3.21    0.66
   0 -21   1    2.43    0.48
  -1 -21  -1    0.29    0.53
   1 -21   1   -0.01    0.45
   1 -21   1    1.03    0.61
   2 -21   1    0.50    0.55
  -2 -21  -1    1.17    0.60
   2 -21   1    0.69    0.61
  11   0  -2    0.34    0.47
  11   0  -2    0.46    0.71
  11   0  -2    1.54    0.53
  10   0  -2    4.27    0.67
  10   0  -2    3.86    0.58
   9   0  -2    0.77    0.26
   9   0  -2    0.06    0.26
   9   0  -2    0.37    0.46
   8   0  -2    4.72    0.45
   8   0  -2    4.39    0.44
   8   0  -2    4.18    0.71
   7   0  -2    0.15    0.24
   7   0  -2   -0.06    0.24
   6   0  -2    1.52    0.23
   6   0  -2    1.44    0.23
  -6   0   2    1.61    0.20
  -5   0   2    0.19    0.11
  -4   0   2    7.87    0.43
  -3   0   2    2.72    0.19
  -2   0   2   78.10    3.68
   2   0  -2   81.71    3.68
   0   0  -2    0.01    0.02
   0   0  -2   -0.02    0.01
  -1   0  -2   -0.12    0.04
   1   0   2   -0.18    0.03
  -1   0  -2   -0.14    0.05
   1   0   2   -0.25    0.04
   2   0   2   62.84    2.78
  -2   0  -2   61.53    2.78
   2   0   2   56.69    2.81
   3   0   2    1.04    0.17
  -3   0  -2    0.76    0.10
   3   0   2    0.74    0.11
   4   0   2    0.24    0.17
  -4   0  -2    0.11    0.08
  -5   0  -2    0.27    0.10
   5   0   2    0.09    0.21
  -6   0  -2    6.13    0.37
   6   0   2    5.72    0.54
   7   0   2    0.02    0.33
  -7   0  -2    0.50    0.17
   8   0   2   28.94    1.49
   8   0   2   26.57    1.68
   8   0   2   30.21    1.50
   9   0   2   -0.32    0.37
   9   0   2    0.39    0.29
   9   0   2    0.56    0.27
   9   0   2    0.75    0.45
  10   0   2    0.10    0.43
  10   0   2    0.30    0.35
  10   0   2    0.14    0.33
  10   0   2   -0.75    0.61
  11   0   2    0.75    0.77
  11   0   2   -0.56    0.55
  11  -1  -2    0.33    0.43
  11  -1  -2   -0.87    0.68
  11   1  -2   -0.97    0.68
  11   1  -2    0.45    0.53
  11   1  -2    0.31    0.47
  10  -1  -2    1.31    0.56
  10  -1  -2    0.60    0.33
  10   1  -2    0.05    0.34
  10   1  -2    0.43    0.36
  10   1  -2    0.20    0.40
  10   1  -2    0.84    0.52
   9  -1  -2   -0.29    0.47
   9  -1  -2    0.54    0.25
   9   1  -2    0.50    0.28
   9   1  -2    0.13    0.27
   9   1  -2    0.98    0.45
   8  -1  -2    0.68    0.41
   8  -1  -2    0.80    0.24
   8  -1  -2    1.44    0.26
   8   1  -2    1.12    0.28
   8   1  -2    0.86    0.27
   7  -1  -2    1.83    0.30
   7  -1  -2    2.08    0.31
  -7  -1   2    2.33    0.32
   7  -1  -2    1.83    0.46
   6  -1  -2    2.25    0.28
   6  -1  -2    1.96    0.27
  -6  -1   2    1.70    0.25
   5  -1  -2    6.54    0.42
  -5  -1   2    7.04    0.40
   5  -1  -2    6.28    0.41
   3  -1  -2    1.12    0.14
  -3  -1   2    1.16    0.13
   3  -1  -2    0.96    0.13
   2  -1  -2    5.75    0.30
   2  -1  -2    5.88    0.30
   2  -1  -2    5.31    0.29
  -2  -1   2    5.53    0.30
   2   1  -2    5.51    0.30
  -1  -1   2  305.89   13.95
   1  -1  -2  296.85   13.95
  -1   1   2  291.17   13.95
   1   1  -2  326.97   13.95
   0  -1   2  146.39    6.35
   0  -1   2  135.40    6.35
   0  -1  -2  128.86    6.35
   0   1   2  145.32    6.36
   1  -1   2  408.69   17.71
   1   1   2  417.19   17.71
  -1   1  -2  336.40   17.71
   2  -1   2    7.94    0.43
  -2  -1  -2    8.18    0.39
   2  -1   2    8.64    0.38
   2   1   2    8.11    0.39
  -2   1  -2    7.09    0.37
   2   1   2    6.42    0.41
   2   1   2    7.29    0.41
   3  -1   2   38.55    1.88
   3  -1   2   42.17    1.81
  -3  -1  -2   39.73    1.82
   3   1   2   39.99    1.82
   3   1   2   34.23    1.85
  -3   1  -2   39.07    1.81
  -4  -1  -2  194.55    8.91
   4  -1   2  186.29    8.98
   4  -1   2  201.16    8.90
  -4   1  -2  196.47    8.89
   4   1   2  191.45    8.96
   5  -1   2    2.46    0.34
  -5  -1  -2    3.13    0.24
   5   1   2    3.04    0.35
  -5   1  -2    2.63    0.21
   6  -1   2    7.85    0.51
   6  -1   2    8.25    0.51
  -6  -1  -2    8.43    0.48
   6  -1   2    8.50    0.66
  -6   1  -2    8.65    0.47
   6   1   2    8.40    0.64
   7  -1   2   33.48    1.65
   7  -1   2   34.43    1.81
   7  -1   2   32.77    1.64
  -7  -1  -2   32.25    1.62
   7   1   2   32.73    1.77
   8  -1   2    0.86    0.48
   8  -1   2    0.72    0.29
  -8  -1  -2    0.92    0.24
   8  -1   2    0.62    0.28
   8   1   2    0.53    0.33
   8   1   2    1.09    0.47
   9  -1   2    3.61    0.49
   9  -1   2    3.75    0.48
   9  -1   2    4.12    0.63
   9   1   2    4.22    0.67
   9   1   2    4.74    0.75
   9   1   2    3.79    0.49
   9   1   2    4.00    0.52
  10  -1   2   -0.35    0.58
  10  -1   2    0.16    0.35
  10  -1   2    0.55    0.44
  10   1   2   -0.28    0.36
  10   1   2    0.18    0.36
  10   1   2   -0.07    0.55
  10   1   2   -0.13    0.41
  11  -1   2    0.15    0.55
  11  -1   2    1.72    0.77
  11   1   2    1.57    0.56
  11   1   2    1.67    0.79
  11  -2  -2    1.33    0.80
  11   2  -2    1.07    0.48
  11   2  -2    0.56    0.53
  11   2  -2   -0.86    0.69
  11   2  -2    0.47    0.48
  10  -2  -2    0.97    0.58
  10  -2  -2    1.51    0.36
  10   2  -2    0.93    0.60
  10   2  -2    1.75    0.43
  10   2  -2    1.51    0.40
  10   2  -2    1.41    0.41
   9  -2  -2    0.72    0.48
   9  -2  -2    0.43    0.24
   9   2  -2   -0.46    0.31
   9   2  -2   -0.14    0.28
   9   2  -2    0.86    0.45
   9   2  -2    0.30    0.29
   8  -2  -2    2.83    0.57
  -8  -2   2    3.82    0.38
   8  -2  -2    3.61    0.39
   8   2  -2    3.71    0.59
  -7  -2   2    0.45    0.19
   7  -2  -2    0.12    0.21
   7  -2  -2    0.44    0.41
   6  -2  -2   13.00    0.87
  -6  -2   2   12.66    0.70
   6  -2  -2   12.72    0.70
  -5  -2   2    6.06    0.38
   5  -2  -2    5.93    0.38
  -4  -2   2    5.14    0.33
  -3  -2   2    1.99    0.17
   3  -2  -2    1.94    0.16
   2  -2  -2  186.00    8.89
  -2  -2   2  193.77    8.89
  -2   2   2  196.67    8.90
   2   2  -2  201.86    8.90
  -2   2   2  191.96    8.89
  -1  -2   2    1.35    0.09
   1  -2  -2    1.23    0.09
  -1  -2   2    1.13    0.10
   1   2  -2    1.49    0.07
  -1   2   2    1.36    0.10
   1   2  -2    1.01    0.10
   0  -2   2  121.60    5.68
   0  -2  -2  122.21    5.68
   0   2  -2  126.94    5.68
   0   2   2  120.82    5.68
   0   2   2  128.69    5.68
   1  -2   2    2.46    0.12
   1  -2   2    2.12    0.17
  -1  -2  -2    2.40    0.14
   1   2   2    2.38    0.14
  -2  -2  -2   25.99    1.24
   2  -2   2   24.31    1.27
   2  -2   2   27.53    1.21
   2   2   2   25.22    1.23
   2   2   2   28.09    1.26
   3  -2   2    6.74    0.44
   3  -2   2    7.43    0.35
  -3  -2  -2    7.23    0.38
   3  -2   2    6.57    0.35
   3  -2   2    6.39    0.35
   3   2   2    6.56    0.40
   4  -2   2   27.51    1.25
   4  -2   2   24.01    1.34
   4  -2   2   25.54    1.24
  -4  -2  -2   25.93    1.26
   4  -2   2   26.95    1.25
   4   2   2   26.88    1.31
   5  -2   2    3.94    0.28
  -5  -2  -2    4.18    0.29
   5  -2   2    3.87    0.43
   5  -2   2    3.79    0.28
   5   2   2    3.88    0.39
   5   2   2    3.58    0.36
   6  -2   2    3.79    0.47
   6  -2   2    3.60    0.30
   6  -2   2    3.69    0.30
  -6  -2  -2    3.42    0.31
   6   2   2    3.24    0.38
   6   2   2    3.80    0.46
   7  -2   2   20.24    1.05
   7  -2   2   21.40    1.28
   7  -2   2   20.24    1.05
  -7  -2  -2   20.32    1.06
   7   2   2   19.84    1.17
   7   2   2   20.38    1.20
   8  -2   2    1.44    0.29
   8  -2   2    1.47    0.46
  -8  -2  -2    1.50    0.25
   8   2   2    0.69    0.49
   8   2   2    0.73    0.34
   9  -2   2    5.00    0.81
   9  -2   2    3.09    0.44
  -9  -2  -2    3.12    0.36
   9   2   2    2.87    0.45
   9   2   2    2.66    0.56
  10  -2   2    0.89    0.60
  10   2   2    0.52    0.41
  10   2   2    0.87    0.41
  10   2   2    0.50    0.40
  10   2   2    0.54    0.59
  11  -2   2    0.67    0.59
  11  -2   2    1.70    0.80
  11   2   2   -0.31    0.53
  11   2   2    1.19    0.78
  11  -3  -2    0.15    0.77
  11   3  -2   -0.16    0.50
  11   3  -2    0.89    0.54
  11   3  -2    0.03    0.73
  11   3  -2    0.26    0.52
  10  -3  -2   -0.19    0.30
  10  -3  -2    0.26    0.57
  10   3  -2    0.11    0.39
  10   3  -2    0.31    0.38
  10   3  -2    0.87    0.54
  10   3  -2   -0.53    0.36
  -9  -3   2   -0.15    0.24
   9  -3  -2    0.05    0.22
   9  -3  -2    0.73    0.50
   9   3  -2    0.32    0.30
   9   3  -2   -0.54    0.45
   8  -3  -2   15.26    1.14
   8  -3  -2   15.07    0.87
  -8  -3   2   16.48    0.90
   8   3  -2   16.88    1.04
   7  -3  -2   10.64    0.63
  -7  -3   2   10.28    0.62
   7  -3  -2    8.60    0.85
   7   3  -2    9.65    0.67
  -6  -3   2   21.96    1.11
   6  -3  -2   22.30    1.09
   6  -3  -2   21.38    1.27
   6   3  -2   20.61    1.14
   5  -3  -2   27.69    1.50
  -5  -3   2   28.44    1.38
   5  -3  -2   29.32    1.36
   5   3  -2   26.75    1.39
  -4  -3   2  162.37    7.23
   4  -3  -2  158.98    7.22
   4   3  -2  149.04    7.23
   3  -3  -2  127.54    5.88
  -3  -3   2  132.96    5.90
   3   3  -2  123.18    5.89
   2  -3  -2    9.53    0.47
  -2  -3   2    8.31    0.46
  -2  -3   2    9.16    0.48
   2   3  -2   10.22    0.46
  -2   3   2    9.83    0.48
   1   3  -2  898.93   41.05
   1  -3   2  716.19   32.62
   1   3   2  711.67   32.60
  -2  -3  -2    1.72    0.15
   2  -3   2    1.77    0.20
   2  -3   2    1.85    0.11
   2   3   2    1.52    0.14
   2   3   2    1.72    0.11
   3  -3   2  133.31    6.16
  -3  -3  -2  135.88    6.19
   3  -3   2  131.68    6.25
   3  -3   2  140.94    6.16
   3   3   2  130.42    6.21
   4  -3   2   67.81    3.13
   4  -3   2   70.69    3.13
   4  -3   2   66.93    3.24
  -4  -3  -2   67.23    3.16
   4   3   2   65.86    3.19
  -5  -3  -2   28.70    1.35
   5  -3   2   27.03    1.31
   5  -3   2   27.88    1.46
   5   3   2   26.29    1.38
  -6  -3  -2    9.31    0.56
   6  -3   2   10.02    0.73
   6  -3   2    9.41    0.53
   6   3   2    8.95    0.62
   6   3   2    9.68    0.66
   7  -3   2    0.04    0.16
  -7  -3  -2    0.22    0.20
   7  -3   2   -0.39    0.39
   7   3   2    0.14    0.31
   7   3   2    0.18    0.26
   8  -3   2    4.60    0.45
  -8  -3  -2    6.49    0.47
   8  -3   2    5.66    0.81
   8   3   2    6.16    0.64
   8   3   2    5.09    0.71
   9  -3   2    1.14    0.51
  -9  -3  -2    0.51    0.26
   9  -3   2    0.09    0.27
   9   3   2    0.32    0.48
   9   3   2    0.56    0.34
  10  -3   2    2.36    0.65
 -10  -3  -2    1.19    0.34
  10   3   2    1.42    0.42
  10   3   2    1.79    0.61
  11  -3   2    0.53    0.77
  11   3   2    0.44    0.56
  11   3   2    1.28    0.52
  11   3   2    0.49    0.82
  11   3   2    0.36    0.56
  11  -4  -2    3.30    0.85
  11   4  -2    2.56    0.63
  11   4  -2    1.63    0.62
  11   4  -2    2.37    0.57
  11   4  -2    2.97    0.83
 -10  -4   2    1.13    0.34
  10  -4  -2    1.22    0.33
  10  -4  -2    1.34    0.69
  10   4  -2    1.21    0.40
  10   4  -2    1.23    0.58
   9  -4  -2    6.44    0.50
   9  -4  -2    5.87    0.90
  -9  -4   2    6.78    0.55
   9   4  -2    5.59    0.63
   8  -4  -2   18.03    1.24
  -8  -4   2   16.80    0.96
   8  -4  -2   17.41    0.94
   8   4  -2   17.23    1.05
   7  -4  -2    0.54    0.21
   7  -4  -2    0.57    0.38
  -7  -4   2    0.59    0.19
   7   4  -2    0.56    0.22
  -6  -4   2    3.30    0.37
   6  -4  -2    4.03    0.53
   6  -4  -2    3.76    0.31
   6   4  -2    3.77    0.37
   5  -4  -2   27.14    1.30
   5  -4  -2   25.80    1.44
  -5  -4   2   27.00    1.32
   5   4  -2   26.58    1.33
  -4  -4   2   15.09    0.77
   4  -4  -2   14.04    0.87
   4  -4  -2   14.95    0.74
   4   4  -2   15.14    0.76
  -3  -4   2    0.27    0.10
   3  -4  -2    0.55    0.09
   3  -4  -2    0.22    0.18
   3   4  -2    0.65    0.09
   2  -4  -2  141.04    6.59
  -2  -4   2  146.23    6.54
  -2  -4   2  136.94    6.51
   2  -4  -2  140.64    6.52
  -2   4   2  144.94    6.53
   2   4  -2  142.71    6.51
   0  -4   2    8.16    0.41
   0  -4  -2    8.23    0.42
   0  -4  -2    8.63    0.41
   0  -4   2    9.16    0.41
   0   4  -2    8.12    0.40
   0   4   2    7.17    0.42
   0   4   2    7.74    0.40
   1  -4   2 1000.00   44.10
   1   4   2  930.35   44.07
   2  -4   2  276.45   13.45
   2  -4   2  293.75   13.38
  -2  -4  -2  287.92   13.41
   2   4   2  303.12   13.38
   2   4   2  300.98   13.41
  -2   4  -2  294.83   13.39
   3  -4   2   57.64    2.87
  -3  -4  -2   63.01    2.81
   3  -4   2   59.97    2.77
   3   4   2   58.42    2.81
  -3   4  -2   61.14    2.78
  -3   4  -2   60.94    2.78
  -4  -4  -2    9.20    0.53
   4  -4   2    8.47    0.62
   4  -4   2    9.97    0.49
   4  -4   2    9.77    0.49
   4   4   2   10.75    0.56
   5  -4   2   13.17    0.66
  -5  -4  -2   13.10    0.70
   5  -4   2   13.24    0.83
   5   4   2   12.62    0.73
   6  -4   2   42.43    2.01
   6  -4   2   42.66    2.19
  -6  -4  -2   42.79    2.05
   6   4   2   41.80    2.09
   7  -4   2    0.79    0.18
  -7  -4  -2    0.96    0.22
   7  -4   2    0.63    0.43
   7   4   2    1.06    0.33
   7   4   2    1.26    0.28
   8  -4   2   -0.09    0.19
  -8  -4  -2    0.44    0.22
   8  -4   2    0.21    0.44
   8   4   2   -0.03    0.27
   8   4   2    0.47    0.39
  -9  -4  -2    1.72    0.32
   9  -4   2    1.39    0.32
   9  -4   2    1.20    0.55
   9   4   2    1.95    0.60
   9   4   2    1.93    0.37
  10  -4   2    2.54    0.69
 -10  -4  -2    1.86    0.40
  10   4   2    2.13    0.44
  10   4   2    3.13    0.68
  11  -4   2    0.83    0.79
 -11  -4  -2    0.39    0.42
  11   4   2    1.30    0.61
  11   4   2    0.47    0.50
  11   4   2    0.21    0.59
  10  -5  -2    0.56    0.64
  10  -5  -2    0.51    0.37
 -10  -5   2    0.11    0.34
  10   5  -2    0.69    0.55
  10   5  -2   -0.19    0.36
   9  -5  -2    0.05    0.52
   9  -5  -2    0.73    0.24
  -9  -5   2    0.71    0.28
   9   5  -2    0.81    0.32
  -8  -5   2   10.12    0.64
   8  -5  -2    8.57    0.86
   8  -5  -2    9.30    0.58
   8   5  -2    9.88    0.71
   7  -5  -2    5.47    0.42
   7  -5  -2    5.42    0.67
  -7  -5   2    5.63    0.45
   7   5  -2    5.25    0.47
   6  -5  -2    1.37    0.19
   6  -5  -2    0.95    0.39
  -6  -5   2    1.70    0.24
   6   5  -2    1.36    0.21
   5  -5  -2   10.89    0.58
  -5  -5   2   10.94    0.64
   5  -5  -2   10.34    0.76
   5   5  -2   11.77    0.62
   4  -5  -2   47.17    2.39
   4  -5  -2   48.33    2.26
  -4  -5   2   49.44    2.30
   4   5  -2   48.32    2.27
   3  -5  -2   39.74    1.95
  -3  -5   2   41.00    1.87
  -3  -5   2   37.81    1.83
   3  -5  -2   40.45    1.83
   3   5  -2   36.87    1.82
   2  -5  -2  136.84    6.51
   2  -5  -2  141.77    6.44
  -2  -5   2  135.42    6.43
  -2  -5   2  143.42    6.46
   2   5  -2  143.61    6.42
  -1  -5   2    7.06    0.38
   1  -5  -2    5.93    0.42
  -1  -5   2    8.16    0.36
   1  -5  -2    6.79    0.37
   0  -5  -2    4.12    0.25
   0  -5  -2    4.18    0.25
   0  -5   2    4.31    0.25
   0  -5   2    4.68    0.25
   0   5  -2    3.88    0.23
   1  -5   2   30.90    1.44
  -1  -5  -2   30.30    1.38
   1  -5   2   30.97    1.40
  -1  -5  -2   31.71    1.42
  -1   5  -2   26.98    1.39
   1   5   2   32.59    1.41
   1   5   2   25.32    1.39
   2  -5   2  263.23   11.67
  -2  -5  -2  246.11   11.66
  -2  -5  -2  260.04   11.70
   2  -5   2  250.92   11.74
   2   5   2  257.05   11.69
   2   5   2  245.87   11.66
  -2   5  -2  262.81   11.67
  -3  -5  -2   66.66    3.09
   3  -5   2   68.18    3.04
   3  -5   2   62.75    3.15
   3   5   2   66.82    3.08
  -3   5  -2   65.81    3.05
   4  -5   2    9.94    0.47
   4  -5   2    8.04    0.61
  -4  -5  -2    8.94    0.53
   4  -5   2    9.53    0.48
   4   5   2   10.09    0.53
  -5  -5  -2    9.51    0.55
   5  -5   2    9.40    0.48
   5  -5   2    9.47    0.68
   5   5   2    8.85    0.55
   6  -5   2    6.14    0.39
  -6  -5  -2    7.06    0.51
   6  -5   2    7.17    0.67
   6   5   2    7.31    0.51
   7  -5   2    4.26    0.32
  -7  -5  -2    4.11    0.40
   7  -5   2    3.75    0.64
   7   5   2    4.45    0.48
   7   5   2    3.16    0.51
   8  -5   2    3.34    0.58
  -8  -5  -2    4.01    0.41
   8  -5   2    3.12    0.34
   8   5   2    3.99    0.52
   8   5   2    3.43    0.49
  -9  -5  -2    0.32    0.27
   9  -5   2    1.11    0.55
   9   5   2   -0.32    0.54
   9   5   2    0.69    0.32
 -10  -5  -2    0.26    0.33
  10  -5   2    0.87    0.64
  10   5   2    0.32    0.39
  10  -6  -2    1.06    0.71
 -10  -6   2    1.16    0.36
  10   6  -2    0.93    0.64
  10   6  -2    1.24    0.41
   9  -6  -2    1.59    0.59
   9  -6  -2    1.00    0.26
  -9  -6   2    1.25    0.29
   9   6  -2    1.14    0.32
   8  -6  -2    0.34    0.20
   8  -6  -2    0.84    0.48
  -8  -6   2    0.76    0.24
   8   6  -2    0.69    0.25
  -7  -6   2   -0.12    0.20
   7  -6  -2    0.21    0.19
   7  -6  -2   -0.65    0.35
   7   6  -2    0.33    0.19
   6  -6  -2   28.95    1.40
   6  -6  -2   28.22    1.63
  -6  -6   2   28.30    1.45
   6   6  -2   29.29    1.43
   5  -6  -2   30.69    1.50
   5  -6  -2   30.76    1.68
  -5  -6   2   30.42    1.55
   5   6  -2   33.03    1.52
   4  -6  -2    1.86    0.18
   4  -6  -2    1.83    0.31
  -4  -6   2    1.45    0.21
   4   6  -2    2.19    0.19
  -3  -6   2    4.87    0.32
  -3  -6   2    5.52    0.37
   3  -6  -2    5.61    0.32
   3  -6  -2    5.66    0.47
   3   6  -2    6.00    0.31
   2  -6  -2  125.35    6.05
  -2  -6   2  126.09    5.96
   2  -6  -2  132.62    5.98
  -2  -6   2  130.64    6.00
   2   6  -2  134.75    5.96
   1  -6  -2    0.45    0.14
  -1  -6   2    0.41    0.10
   1  -6  -2    0.32    0.08
   0  -6   2   78.04    3.78
   0  -6   2   85.72    3.78
   0  -6  -2   80.26    3.79
   0  -6  -2   83.28    3.79
   1  -6   2   10.84    0.52
  -1  -6  -2   10.84    0.54
  -1  -6  -2   10.49    0.50
   1  -6   2    9.75    0.56
   1   6   2   10.85    0.53
  -1   6  -2    8.82    0.50
   2  -6   2  107.65    4.74
   2  -6   2  102.36    4.81
  -2  -6  -2  103.79    4.77
  -2  -6  -2  105.57    4.72
   2   6   2  108.32    4.75
  -2   6  -2  102.49    4.73
   2   6   2   90.62    4.72
   3  -6   2  221.06    9.74
  -3  -6  -2  211.13    9.78
   3  -6   2  208.15    9.84
   3   6   2  209.64    9.76
  -3   6  -2  213.07    9.74
   4  -6   2    2.93    0.21
   4  -6   2    2.32    0.37
  -4  -6  -2    3.23    0.30
  -4   6  -2    3.41    0.26
   4   6   2    3.37    0.26
  -4   6  -2    3.20    0.26
   5  -6   2    0.64    0.11
  -5  -6  -2    0.59    0.20
   5  -6   2    0.62    0.29
   5   6   2    0.75    0.16
  -6  -6  -2   44.93    2.23
   6  -6   2   47.07    2.16
   6  -6   2   47.07    2.41
   6   6   2   44.82    2.23
   7  -6   2   47.35    2.47
  -7  -6  -2   46.42    2.29
   7  -6   2   49.37    2.22
   7   6   2   46.38    2.31
   7   6   2   45.59    2.34
   8  -6   2    0.21    0.18
  -8  -6  -2    0.40    0.22
   8  -6   2   -0.32    0.45
   8   6   2    0.01    0.25
   8   6   2    0.07    0.37
  -9  -6  -2    0.59    0.30
   9  -6   2    0.70    0.55
   9   6   2    0.46    0.53
   9   6   2    0.44    0.30
  10  -6   2    1.10    0.66
 -10  -6  -2    0.91    0.38
  10   6   2    0.56    0.37
  10  -7  -2    1.62    0.72
 -10  -7   2    1.62    0.41
  10   7  -2    0.91    0.81
  10   7  -2    0.59    0.39
   9  -7  -2    0.31    0.60
  -9  -7   2    0.07    0.29
   9  -7  -2   -0.20    0.25
   9   7  -2   -0.03    0.29
   8  -7  -2    0.17    0.45
   8  -7  -2   -0.14    0.19
  -8  -7   2    0.30    0.25
   8   7  -2   -0.33    0.22
   7  -7  -2    1.75    0.24
  -7  -7   2    1.51    0.27
   7  -7  -2    1.77    0.46
   7   7  -2    1.47    0.23
   6  -7  -2    4.59    0.34
   6  -7  -2    4.26    0.61
  -6  -7   2    4.23    0.41
   6   7  -2    5.01    0.36
   5  -7  -2    1.70    0.38
   5  -7  -2    1.35    0.20
  -5  -7   2    1.44    0.22
   5   7  -2    1.50    0.21
   4  -7  -2   14.69    0.74
   4  -7  -2   14.39    0.90
  -4  -7   2   14.47    0.80
   4   7  -2   15.01    0.73
   3  -7  -2  124.92    5.68
   3  -7  -2  123.66    5.80
  -3  -7   2  123.23    5.71
  -3  -7   2  116.43    5.67
   3   7  -2  127.88    5.66
  -2  -7   2    9.55    0.45
   2  -7  -2    7.92    0.56
  -2  -7   2    8.77    0.50
   2  -7  -2    8.75    0.47
   1  -7  -2    1.04    0.16
   1  -7  -2    1.29    0.22
  -1  -7   2    1.44    0.18
  -1  -7   2    1.68    0.14
   0  -7  -2    6.83    0.41
   0  -7  -2    7.58    0.41
   0  -7   2    7.73    0.41
   0  -7   2    7.08    0.40
  -1  -7  -2    0.07    0.06
   1  -7   2   -0.03    0.08
   1  -7   2   -0.13    0.11
  -1  -7  -2   -0.05    0.09
  -2  -7  -2  149.05    6.73
  -2  -7  -2  143.54    6.78
   2  -7   2  149.03    6.75
   2  -7   2  140.26    6.82
   2   7   2  152.78    6.76
  -3  -7  -2   10.43    0.61
   3  -7   2   10.14    0.68
   3  -7   2   11.57    0.56
   3   7   2   11.57    0.58
   4  -7   2    0.47    0.10
   4  -7   2    0.55    0.24
  -4  -7  -2    0.37    0.16
   4   7   2    0.63    0.13
  -5  -7  -2    2.50    0.32
   5  -7   2    1.78    0.38
   5  -7   2    2.35    0.21
   5   7   2    2.60    0.27
   6  -7   2    1.75    0.21
   6  -7   2    2.46    0.45
  -6  -7  -2    1.57    0.26
   6   7   2    1.89    0.29
  -7  -7  -2    0.65    0.23
   7  -7   2    0.44    0.16
   7  -7   2    0.35    0.41
   7   7   2    0.69    0.24
  -8  -7  -2    5.25    0.52
   8  -7   2    4.63    0.69
   8  -7   2    6.47    0.52
   8   7   2    4.82    0.63
   8   7   2    5.56    0.52
   9  -7   2    2.00    0.63
  -9  -7  -2    1.35    0.33
   9   7   2    0.78    0.31
 -10  -7  -2    1.07    0.38
  10  -7   2    0.13    0.73
  10   7   2    0.89    0.39
  10  -8  -2    1.01    0.72
 -10  -8   2    0.64    0.42
  -9  -8   2    1.06    0.32
   9  -8  -2    0.68    0.33
   9  -8  -2    0.95    0.63
   9   8  -2    0.48    0.31
   8  -8  -2    4.19    0.66
  -8  -8   2    3.43    0.42
   8  -8  -2    4.06    0.38
   8   8  -2    3.90    0.44
   7  -8  -2    0.98    0.23
  -7  -8   2    1.53    0.27
   7  -8  -2    0.65    0.39
   7   8  -2    0.94    0.20
  -6  -8   2   24.16    1.28
   6  -8  -2   24.67    1.22
   6  -8  -2   24.74    1.46
   6   8  -2   24.78    1.22
  -5  -8   2   13.28    0.78
   5  -8  -2   14.10    0.98
   5  -8  -2   13.89    0.72
   5   8  -2   14.19    0.72
  -4  -8   2    1.09    0.16
  -4  -8   2    1.07    0.21
   4  -8  -2    1.30    0.16
   4  -8  -2    1.35    0.31
   4   8  -2    1.10    0.18
   3  -8  -2   63.21    2.85
  -3  -8   2   58.26    2.83
   3  -8  -2   59.18    2.96
  -3  -8   2   60.74    2.88
   3   8  -2   62.99    2.83
   2  -8  -2   82.27    4.01
  -2  -8   2   85.19    3.96
  -2  -8   2   85.50    3.91
   2  -8  -2   86.19    3.93
  -1  -8   2   12.06    0.64
   1  -8  -2   12.58    0.64
  -1  -8   2   12.85    0.61
   1  -8  -2   11.11    0.68
   0  -8   2    0.38    0.12
   0  -8   2    0.39    0.11
   0  -8  -2    0.40    0.13
   0  -8  -2    0.38    0.11
  -1  -8  -2    0.04    0.11
   1  -8   2   -0.01    0.14
   1  -8   2    0.01    0.10
   2  -8   2   19.47    0.98
  -2  -8  -2   19.79    1.02
   2  -8   2   18.22    1.06
  -2  -8  -2   22.06    0.95
   2   8   2   21.18    1.00
   3  -8   2   29.94    1.58
  -3  -8  -2   29.55    1.50
  -3  -8  -2   29.46    1.43
   3  -8   2   32.39    1.45
   3   8   2   31.52    1.47
   4  -8   2   24.25    1.35
   4  -8   2   25.73    1.18
  -4  -8  -2   23.93    1.25
   4   8   2   24.28    1.21
  -5  -8  -2    7.76    0.53
   5  -8   2    7.28    0.71
   5  -8   2    7.52    0.44
   5   8   2    9.30    0.51
   6  -8   2   49.12    2.15
  -6  -8  -2   43.98    2.22
   6  -8   2   44.19    2.38
   6   8   2   44.28    2.19
  -7  -8  -2    0.19    0.23
   7  -8   2    0.02    0.15
   7  -8   2    0.49    0.42
   7   8   2   -0.08    0.22
   8  -8   2    1.17    0.51
  -8  -8  -2    1.15    0.31
   8   8   2    1.07    0.27
   9  -8   2    1.19    0.64
  -9  -8  -2    0.16    0.32
   9   8   2    0.67    0.28
 -10  -8  -2    1.88    0.46
  10  -8   2    3.17    0.82
  10   8   2    2.68    0.44
 -10  -9   2   -0.45    0.40
  10  -9  -2    0.98    0.80
   9  -9  -2    0.46    0.64
  -9  -9   2    0.87    0.33
   8  -9  -2    0.33    0.49
   8  -9  -2    0.32    0.22
  -8  -9   2   -0.16    0.25
   7  -9  -2    0.42    0.21
   7  -9  -2    0.85    0.43
  -7  -9   2    0.56    0.26
   7   9  -2    0.42    0.19
   6  -9  -2    5.67    0.66
   6  -9  -2    4.82    0.40
  -6  -9   2    4.63    0.48
   6   9  -2    4.85    0.38
  -5  -9   2    7.98    0.56
   5  -9  -2    7.62    0.77
   5  -9  -2    8.73    0.50
   5   9  -2    8.90    0.49
  -4  -9   2    4.86    0.40
  -4  -9   2    4.58    0.33
   4  -9  -2    5.07    0.34
   4  -9  -2    5.00    0.54
   4   9  -2    5.43    0.34
  -3  -9   2    4.18    0.29
   3  -9  -2    4.82    0.32
   3  -9  -2    4.90    0.46
  -3  -9   2    4.03    0.38
  -2  -9   2   84.42    3.87
   2  -9  -2   84.72    3.90
  -2  -9   2   83.30    3.92
   2  -9  -2   82.76    3.98
   1  -9  -2    0.42    0.13
   1  -9  -2    0.60    0.18
  -1  -9   2    0.43    0.14
   0  -9  -2   14.59    0.78
   0  -9   2   15.33    0.78
   0  -9   2   14.89    0.78
   0  -9  -2   15.77    0.79
  -1  -9  -2   13.92    0.76
   1  -9   2   14.66    0.74
   1  -9   2   13.74    0.78
  -1  -9  -2   14.75    0.71
   2  -9   2    1.22    0.16
   2  -9   2    1.49    0.26
  -2  -9  -2    1.02    0.19
   3  -9   2   81.43    3.54
  -3  -9  -2   75.26    3.51
  -3  -9  -2   70.90    3.58
   3  -9   2   75.64    3.66
   3   9   2   77.31    3.55
   4  -9   2    3.25    0.47
  -4  -9  -2    3.59    0.35
   4  -9   2    3.75    0.28
   4   9   2    3.83    0.30
   5  -9   2    0.85    0.38
   5  -9   2    1.64    0.22
   5   9   2    1.57    0.25
   6  -9   2    5.96    0.40
  -6  -9  -2    5.34    0.50
   6  -9   2    6.13    0.69
   6   9   2    6.52    0.47
   7  -9   2    4.00    0.59
   7  -9   2    4.55    0.35
  -7  -9  -2    3.67    0.48
   7   9   2    4.11    0.46
   8  -9   2    6.12    0.82
  -8  -9  -2    6.68    0.60
   8   9   2    5.86    0.53
  -9  -9  -2    0.90    0.34
   9  -9   2    0.25    0.65
   9   9   2    0.42    0.29
  10  -9   2   -1.22    0.72
 -10  -9  -2   -0.11    0.44
  10   9   2    0.03    0.37
  10 -10  -2    1.67    0.85
 -10 -10   2    1.83    0.46
  -9 -10   2    5.18    0.70
   9 -10  -2    8.47    1.19
   8 -10  -2    0.20    0.51
   8 -10  -2   -0.28    0.24
  -8 -10   2    0.03    0.29
   8  10  -2   -0.28    0.22
   7 -10  -2    0.24    0.21
   7 -10  -2    0.27    0.44
  -7 -10   2   -0.24    0.24
   6 -10  -2    8.39    0.54
   6 -10  -2    7.76    0.81
  -6 -10   2    8.03    0.60
   6  10  -2    8.88    0.51
   5 -10  -2    9.80    0.57
   5 -10  -2    8.93    0.81
  -5 -10   2    9.13    0.62
   5  10  -2    9.79    0.54
  -4 -10   2    1.07    0.22
   4 -10  -2    0.79    0.34
   4 -10  -2    0.82    0.17
   4  10  -2    0.73    0.15
   3 -10  -2   25.05    1.21
   3 -10  -2   24.90    1.33
  -3 -10   2   24.20    1.25
  -3 -10   2   23.40    1.18
  -2 -10   2    0.12    0.17
   2 -10  -2    0.23    0.21
   2 -10  -2    0.13    0.14
  -2 -10   2    0.22    0.11
  -1 -10   2    5.63    0.40
   1 -10  -2    5.81    0.40
  -1 -10   2    6.16    0.35
   1 -10  -2    5.69    0.44
   0 -10  -2   15.01    0.79
   0 -10  -2   13.96    0.77
   0 -10   2   14.36    0.76
   0 -10   2   15.19    0.77
  -1 -10  -2    3.08    0.23
   1 -10   2    2.46    0.27
   1 -10   2    2.56    0.30
  -1 -10  -2    3.22    0.30
   2 -10   2    1.73    0.29
  -2 -10  -2    1.53    0.24
  -2 -10  -2    2.10    0.17
   2 -10   2    1.93    0.24
   3 -10   2    4.48    0.32
   3 -10   2    3.91    0.49
  -3 -10  -2    4.27    0.27
  -3 -10  -2    3.86    0.37
   3  10   2    4.48    0.35
   4 -10   2    2.23    0.41
   4 -10   2    1.84    0.24
  -4 -10  -2    2.07    0.27
   4  10   2    2.05    0.27
   5 -10   2    5.25    0.60
   5 -10   2    5.51    0.37
  -5 -10  -2    5.63    0.45
   5  10   2    5.04    0.39
   6 -10   2   13.72    0.97
   6 -10   2   13.94    0.70
  -6 -10  -2   11.07    0.78
   6  10   2   13.14    0.75
  -7 -10  -2    3.41    0.41
   7 -10   2    3.26    0.56
   7  10   2    2.47    0.40
  -8 -10  -2    1.08    0.34
   8 -10   2    0.82    0.61
   8  10   2    0.75    0.25
  -9 -10  -2    0.66    0.36
   9 -10   2   -0.63    0.65
   9  10   2    0.03    0.29
  -9 -11   2   -0.23    0.37
   9 -11  -2    0.07    0.70
  -8 -11   2   18.90    1.14
   8 -11  -2   18.42    1.13
   8 -11  -2   20.92    1.50
   7 -11  -2    0.41    0.21
   7 -11  -2    0.26    0.46
  -7 -11   2    0.28    0.28
   7  11  -2    0.09    0.19
   6 -11  -2    1.95    0.47
  -6 -11   2    2.10    0.33
   6 -11  -2    2.76    0.34
   6  11  -2    2.03    0.31
  -5 -11   2   -0.05    0.21
   5 -11  -2    0.17    0.22
   5 -11  -2   -0.42    0.35
   5  11  -2   -0.10    0.16
   4 -11  -2   16.00    1.07
  -4 -11   2   14.61    0.81
   4 -11  -2   17.15    0.85
  -4 -11   2   14.84    0.88
   3 -11  -2   10.75    0.60
  -3 -11   2   10.15    0.55
   3 -11  -2    9.13    0.71
  -3 -11   2    9.72    0.62
  -2 -11   2    4.59    0.42
   2 -11  -2    5.16    0.39
   2 -11  -2    4.96    0.48
  -2 -11   2    5.08    0.33
   1 -11  -2   14.23    0.78
  -1 -11   2   13.40    0.79
   1 -11  -2   13.41    0.80
  -1 -11   2   15.10    0.73
   0 -11   2    6.91    0.45
   0 -11   2    6.78    0.44
   0 -11  -2    7.11    0.49
   0 -11  -2    6.47    0.44
  -1 -11  -2   12.31    0.63
  -1 -11  -2   11.74    0.70
   1 -11   2   11.89    0.71
   1 -11   2   12.05    0.67
  -2 -11  -2    8.20    0.43
   2 -11   2    7.63    0.58
  -2 -11  -2    8.05    0.53
   2 -11   2    7.79    0.49
   3 -11   2   11.03    0.79
  -3 -11  -2   11.34    0.59
  -3 -11  -2   11.45    0.70
   3 -11   2   12.15    0.64
  -4 -11  -2   26.26    1.39
   4 -11   2   26.71    1.51
   4 -11   2   27.88    1.33
   4  11   2   27.00    1.35
   5 -11   2    5.71    0.42
   5 -11   2    6.49    0.66
  -5 -11  -2    5.92    0.51
   5  11   2    6.22    0.46
  -6 -11  -2   12.37    0.82
   6 -11   2   13.72    0.72
   6 -11   2   13.40    1.02
   6  11   2   12.98    0.76
  -7 -11  -2    1.13    0.31
   7 -11   2    1.80    0.53
   7  11   2    0.99    0.25
  -8 -11  -2   -0.04    0.35
   8 -11   2    0.48    0.58
   8  11   2    0.15    0.25
   9 -11   2    0.38    0.70
  -9 -11  -2    0.29    0.42
   9  11   2   -0.26    0.32
   9 -12  -2    3.38    0.86
  -9 -12   2    2.54    0.51
  -8 -12   2    2.84    0.47
   8 -12  -2    3.38    0.73
   7 -12  -2    0.28    0.25
   7 -12  -2    0.52    0.49
  -7 -12   2    0.32    0.32
   6 -12  -2    1.33    0.45
  -6 -12   2    0.91    0.31
   6 -12  -2    0.46    0.22
   6  12  -2    0.69    0.22
   5 -12  -2    0.83    0.39
  -5 -12   2   -0.40    0.23
   5 -12  -2    0.68    0.22
   4 -12  -2   15.77    0.87
  -4 -12   2   15.35    0.90
   4 -12  -2   14.93    1.05
  -4 -12   2   15.28    0.81
   3 -12  -2   -0.34    0.28
   3 -12  -2   -0.19    0.20
  -3 -12   2    0.17    0.20
  -3 -12   2    0.21    0.15
   2 -12  -2    6.98    0.58
  -2 -12   2    6.52    0.49
  -2 -12   2    7.66    0.43
   2 -12  -2    6.69    0.51
  -1 -12   2    2.35    0.36
   1 -12  -2    2.25    0.36
   1 -12  -2    2.32    0.36
  -1 -12   2    2.97    0.27
   0 -12  -2    0.38    0.20
   0 -12  -2    0.49    0.19
   0 -12   2    0.75    0.22
   0 -12   2    0.74    0.18
   1 -12   2    7.16    0.50
  -1 -12  -2    7.54    0.51
   1 -12   2    6.91    0.52
  -1 -12  -2    7.34    0.43
  -2 -12  -2    7.42    0.50
   2 -12   2    7.32    0.59
  -2 -12  -2    7.13    0.41
   2 -12   2    6.59    0.48
  -3 -12  -2    0.56    0.14
   3 -12   2    0.70    0.21
  -3 -12  -2    0.64    0.24
   3 -12   2    0.38    0.34
  -4 -12  -2   40.90    2.10
   4 -12   2   40.34    2.18
   4 -12   2   45.28    2.03
   4  12   2   41.74    2.04
   5 -12   2   13.89    1.00
   5 -12   2   14.37    0.75
  -5 -12  -2   12.24    0.83
   5  12   2   12.73    0.77
   6 -12   2    1.45    0.46
  -6 -12  -2    1.23    0.32
   6 -12   2    1.67    0.26
   6  12   2    1.25    0.28
   7 -12   2   -0.43    0.47
  -7 -12  -2   -0.05    0.31
   7  12   2    0.12    0.23
   8 -12   2    2.87    0.71
  -8 -12  -2    1.97    0.42
   8  12   2    1.42    0.32
  -9 -12  -2    0.61    0.46
   9 -12   2    0.68    0.78
   9 -13  -2    0.34    0.90
  -9 -13   2    0.82    0.49
  -8 -13   2    2.39    0.49
   8 -13  -2    2.92    0.74
   7 -13  -2   -0.02    0.55
   7 -13  -2   -0.02    0.30
  -7 -13   2   -0.22    0.34
  -6 -13   2    1.40    0.34
   6 -13  -2    1.54    0.29
   6 -13  -2    0.81    0.49
   5 -13  -2    3.28    0.53
   5 -13  -2    3.41    0.39
  -5 -13   2    2.68    0.41
  -4 -13   2   10.09    0.61
   4 -13  -2   11.16    0.65
   4 -13  -2    9.55    0.87
  -4 -13   2   10.93    0.71
  -3 -13   2   11.81    0.65
   3 -13  -2   12.54    0.73
  -3 -13   2   11.40    0.75
   3 -13  -2   11.99    0.88
  -2 -13   2   23.03    1.12
  -2 -13   2   21.88    1.20
   2 -13  -2   23.47    1.19
   2 -13  -2   22.24    1.26
   1 -13  -2    2.96    0.37
  -1 -13   2    4.16    0.31
  -1 -13   2    3.47    0.41
   1 -13  -2    2.83    0.41
   0 -13   2   12.65    0.71
   0 -13  -2   11.54    0.70
   0 -13   2   12.22    0.73
   0 -13  -2   12.13    0.73
   1 -13   2   20.91    1.15
  -1 -13  -2   21.87    1.14
  -1 -13  -2   21.98    1.07
   1 -13   2   20.87    1.14
   2 -13   2    3.91    0.52
  -2 -13  -2    3.52    0.42
  -2 -13  -2    4.23    0.30
   2 -13   2    4.49    0.45
   3 -13   2    0.81    0.38
  -3 -13  -2    0.92    0.16
   3 -13   2    0.51    0.25
  -3 -13  -2    0.62    0.25
   4 -13   2   18.31    0.97
  -4 -13  -2   16.91    0.88
   4 -13   2   17.37    1.12
  -4 -13  -2   18.01    1.04
   5 -13   2    3.90    0.64
   5 -13   2    4.15    0.42
  -5 -13  -2    2.95    0.41
   5  13   2    3.39    0.43
  -6 -13  -2    3.27    0.44
   6 -13   2    3.87    0.60
   6  13   2    2.85    0.47
   7 -13   2    2.52    0.62
  -7 -13  -2    1.62    0.37
   7  13   2    1.39    0.31
  -8 -13  -2    2.25    0.49
   8 -13   2    1.48    0.70
   8 -14  -2   -0.58    0.66
  -8 -14   2   -0.27    0.43
   7 -14  -2    1.47    0.60
  -7 -14   2    0.29    0.39
   6 -14  -2    0.81    0.29
  -6 -14   2    0.19    0.35
   6 -14  -2   -0.09    0.51
   5 -14  -2    0.82    0.45
  -5 -14   2    0.42    0.23
   5 -14  -2    0.64    0.24
  -4 -14   2    5.85    0.46
   4 -14  -2    6.52    0.72
   4 -14  -2    7.10    0.52
  -4 -14   2    5.65    0.60
   3 -14  -2    8.56    0.61
  -3 -14   2    9.61    0.66
  -3 -14   2    9.05    0.55
   3 -14  -2    9.35    0.81
   2 -14  -2    0.23    0.22
   2 -14  -2    0.02    0.31
  -2 -14   2    0.02    0.24
  -2 -14   2    0.26    0.16
  -1 -14   2    1.91    0.28
  -1 -14   2    2.37    0.32
   1 -14  -2    2.00    0.32
   1 -14  -2    1.50    0.28
   0 -14  -2   -0.04    0.23
   0 -14   2    0.07    0.19
   0 -14  -2    0.11    0.21
   0 -14   2    0.62    0.24
   1 -14   2    0.97    0.29
  -1 -14  -2    0.96    0.20
   1 -14   2    0.66    0.26
  -1 -14  -2    1.30    0.27
   2 -14   2    0.76    0.34
  -2 -14  -2    0.53    0.25
  -2 -14  -2    0.51    0.16
   2 -14   2    0.14    0.25
  -3 -14  -2    6.22    0.39
  -3 -14  -2    5.93    0.54
   3 -14   2    6.34    0.55
   3 -14   2    5.59    0.66
   4 -14   2   14.99    1.02
  -4 -14  -2   14.06    0.92
   4 -14   2   14.74    0.89
   5 -14   2    6.33    0.75
  -5 -14  -2    5.38    0.59
   5 -14   2    6.53    0.61
   6 -14   2    0.69    0.49
  -6 -14  -2    0.55    0.34
   6  14   2   -0.11    0.27
  -7 -14  -2    3.60    0.51
   7  14   2    2.01    0.37
  -8 -14  -2   -0.20    0.45
   8 -14   2   -0.06    0.70
   8 -15  -2    1.16    0.83
  -8 -15   2    1.59    0.56
   7 -15  -2    8.85    1.06
  -7 -15   2    6.56    0.80
  -6 -15   2    3.15    0.50
   6 -15  -2    4.91    0.55
   6 -15  -2    3.33    0.66
   5 -15  -2    0.26    0.44
  -5 -15   2    0.03    0.34
  -5 -15   2    0.44    0.26
   5 -15  -2    0.27    0.27
  -4 -15   2    0.38    0.32
   4 -15  -2    0.32    0.26
   4 -15  -2    0.88    0.41
  -4 -15   2    0.88    0.24
  -3 -15   2    1.37    0.34
   3 -15  -2    1.57    0.29
   3 -15  -2    0.56    0.40
  -3 -15   2    1.55    0.24
  -2 -15   2    0.07    0.26
   2 -15  -2    0.32    0.25
   2 -15  -2    0.34    0.39
  -2 -15   2    0.43    0.18
  -1 -15   2   14.41    0.89
  -1 -15   2   14.79    0.80
   1 -15  -2   13.96    0.89
   1 -15  -2   14.25    0.87
   0 -15   2    1.56    0.31
   0 -15  -2    2.02    0.33
   0 -15  -2    1.39    0.27
   0 -15   2    1.89    0.29
  -1 -15  -2    1.12    0.21
  -1 -15  -2    0.34    0.28
   1 -15   2    0.58    0.26
   1 -15   2    0.81    0.32
  -2 -15  -2    7.12    0.45
   2 -15   2    6.39    0.63
  -2 -15  -2    7.17    0.61
   2 -15   2    7.60    0.58
   3 -15   2    0.55    0.27
  -3 -15  -2    0.77    0.18
   3 -15   2    1.04    0.38
  -3 -15  -2    0.82    0.32
   4 -15   2    2.01    0.34
  -4 -15  -2    2.10    0.40
   4 -15   2    1.99    0.48
  -5 -15  -2    2.09    0.45
   5 -15   2    3.34    0.59
   5 -15   2    3.76    0.57
  -6 -15  -2    0.95    0.41
   6 -15   2    1.42    0.57
   7 -15   2    8.96    1.10
  -7 -15  -2    5.96    0.84
  -8 -15  -2    2.53    0.57
   8 -15   2    2.25    0.87
  -7 -16   2    1.94    0.54
   7 -16  -2    2.73    0.74
  -6 -16   2   -0.09    0.45
   6 -16  -2    0.60    0.54
   6 -16  -2    0.26    0.38
   5 -16  -2   17.48    1.02
  -5 -16   2   16.59    1.13
   5 -16  -2   17.01    1.26
  -4 -16   2    0.50    0.37
   4 -16  -2    1.33    0.31
  -4 -16   2    0.97    0.26
   4 -16  -2    0.64    0.44
   3 -16  -2   26.95    1.56
  -3 -16   2   26.28    1.50
  -3 -16   2   26.74    1.36
   3 -16  -2   28.44    1.45
  -2 -16   2    4.57    0.58
   2 -16  -2    5.29    0.53
  -2 -16   2    4.72    0.41
   2 -16  -2    5.31    0.66
  -1 -16   2    0.05    0.21
   1 -16  -2    0.39    0.34
   1 -16  -2   -0.37    0.26
  -1 -16   2   -0.04    0.28
   0 -16   2    0.62    0.29
   0 -16  -2    0.56    0.27
   0 -16   2    0.97    0.29
   0 -16  -2    0.74    0.31
   1 -16   2    3.57    0.49
   1 -16   2    4.38    0.53
  -1 -16  -2    3.87    0.51
  -1 -16  -2    4.08    0.38
  -2 -16  -2    3.62    0.35
  -2 -16  -2    3.72    0.54
   2 -16   2    4.43    0.50
   2 -16   2    4.90    0.58
   3 -16   2   59.97    3.14
  -3 -16  -2   62.71    3.10
   3 -16   2   66.15    3.04
  -4 -16  -2   -0.29    0.35
   4 -16   2   -0.12    0.30
   4 -16   2   -0.28    0.40
  -5 -16  -2    5.82    0.69
   5 -16   2    5.93    0.88
   6 -16   2    0.72    0.60
  -6 -16  -2    0.51    0.47
  -7 -16  -2    0.47    0.49
   7 -16   2    0.76    0.69
   6 -17  -2   -0.52    0.60
  -6 -17   2    0.86    0.52
   5 -17  -2    2.31    0.63
  -5 -17   2    2.90    0.55
   5 -17  -2    2.79    0.45
   4 -17  -2    0.33    0.35
  -4 -17   2    0.16    0.39
   4 -17  -2    0.83    0.48
  -3 -17   2    0.76    0.37
  -3 -17   2    0.61    0.25
   3 -17  -2    0.54    0.33
   3 -17  -2    0.02    0.41
   2 -17  -2    0.86    0.41
  -2 -17   2    1.19    0.27
   2 -17  -2    1.14    0.33
  -2 -17   2    1.14    0.36
  -1 -17   2    0.93    0.28
   1 -17  -2    0.72    0.32
   1 -17  -2    0.66    0.39
  -1 -17   2    0.34    0.33
   0 -17   2   -0.17    0.28
   0 -17  -2    0.43    0.32
   0 -17  -2    0.17    0.28
   0 -17   2   -0.02    0.32
   1 -17   2    0.43    0.32
  -1 -17  -2    0.51    0.35
   1 -17   2    0.52    0.32
  -1 -17  -2    0.80    0.24
  -2 -17  -2    6.63    0.66
   2 -17   2    6.63    0.68
   2 -17   2    6.06    0.62
  -2 -17  -2    5.81    0.44
   3 -17   2    0.58    0.43
  -3 -17  -2    1.29    0.38
   3 -17   2    0.47    0.33
   4 -17   2   -0.26    0.47
   4 -17   2   -0.36    0.37
  -4 -17  -2    0.73    0.40
   5 -17   2    8.53    0.95
  -5 -17  -2    7.24    0.83
   6 -17   2    1.48    0.68
  -6 -17  -2    1.39    0.49
  -6 -18   2    1.09    0.55
   6 -18  -2    1.61    0.72
  -5 -18   2    1.32    0.52
   5 -18  -2    0.89    0.48
   5 -18  -2    1.54    0.62
  -4 -18   2   -0.22    0.44
   4 -18  -2    0.99    0.42
   4 -18  -2    1.38    0.55
   3 -18  -2    2.85    0.58
  -3 -18   2    2.57    0.47
   3 -18  -2    4.18    0.62
  -3 -18   2    2.49    0.43
   2 -18  -2    5.20    0.74
   2 -18  -2    4.72    0.62
  -2 -18   2    4.53    0.55
  -2 -18   2    4.76    0.49
  -1 -18   2    3.47    0.47
  -1 -18   2    2.92    0.44
   1 -18  -2    3.37    0.49
   1 -18  -2    2.78    0.45
   0 -18   2    0.62    0.32
   0 -18   2    0.31    0.37
   0 -18  -2    0.97    0.37
   0 -18  -2    0.24    0.33
  -1 -18  -2    4.08    0.43
   1 -18   2    4.19    0.61
  -1 -18  -2    2.83    0.48
   1 -18   2    3.95    0.49
   2 -18   2    5.56    0.69
  -2 -18  -2    6.95    0.75
   2 -18   2    6.01    0.65
   3 -18   2    1.05    0.40
  -3 -18  -2    1.22    0.43
   3 -18   2    0.86    0.48
   4 -18   2    0.92    0.46
   4 -18   2   -0.22    0.54
  -4 -18  -2    0.21    0.48
   5 -18   2    0.11    0.61
  -5 -18  -2    0.60    0.49
  -6 -18  -2    2.27    0.64
   6 -18   2    1.91    0.76
  -5 -19   2    3.37    0.66
   5 -19  -2    3.72    0.79
  -4 -19   2    0.38    0.50
   4 -19  -2    1.09    0.49
   4 -19  -2   -0.24    0.63
   3 -19  -2    0.92    0.54
  -3 -19   2    0.16    0.48
   3 -19  -2    1.14    0.43
   2 -19  -2    0.79    0.48
   2 -19  -2    0.80    0.41
  -2 -19   2    0.29    0.31
  -2 -19   2    0.69    0.46
  -1 -19   2    0.14    0.31
   1 -19  -2   -0.38    0.38
   1 -19  -2    0.64    0.41
  -1 -19   2    0.13    0.40
   0 -19  -2    0.25    0.34
   0 -19   2   -0.17    0.34
   0 -19  -2    0.75    0.41
   0 -19   2   -0.30    0.39
  -1 -19  -2    6.42    0.68
   1 -19   2    5.35    0.73
   1 -19   2    6.16    0.71
  -2 -19  -2    6.85    0.80
   2 -19   2    7.35    0.80
   2 -19   2    7.39    0.80
   3 -19   2    1.39    0.51
  -3 -19  -2    2.07    0.55
   3 -19   2    2.11    0.55
   4 -19   2    1.27    0.56
  -4 -19  -2    1.55    0.56
  -5 -19  -2    1.57    0.63
   5 -19   2    1.65    0.70
   4 -20  -2    0.89    0.57
  -4 -20   2    0.37    0.58
   4 -20  -2    0.98    0.69
   3 -20  -2    0.12    0.56
   3 -20  -2    0.39    0.51
  -3 -20   2    0.12    0.51
  -2 -20   2   -0.02    0.50
   2 -20  -2    0.29    0.47
   2 -20  -2    0.20    0.50
   1 -20  -2    3.99    0.55
  -1 -20   2    2.73    0.42
  -1 -20   2    3.69    0.57
   1 -20  -2    2.01    0.49
   0 -20  -2    0.15    0.36
   0 -20  -2   -0.25    0.46
   0 -20   2    0.19    0.38
   0 -20   2    0.48    0.49
   1 -20   2    0.16    0.42
   1 -20   2    0.29    0.48
  -1 -20  -2    1.40    0.54
   2 -20   2    0.90    0.52
   2 -20   2   -0.10    0.48
  -2 -20  -2    0.41    0.53
   3 -20   2    0.47    0.55
  -3 -20  -2    0.84    0.54
   3 -20   2    1.60    0.57
  -4 -20  -2    1.36    0.63
   4 -20   2    1.27    0.63
   2 -21  -2    0.66    0.60
  -2 -21   2   -0.30    0.56
   2 -21  -2   -0.28    0.53
   1 -21  -2    0.94    0.58
   1 -21  -2    0.48    0.46
  -1 -21   2    0.55    0.49
  -1 -21   2    1.34    0.60
   0 -21   2   -0.88    0.56
   0 -21  -2    1.03    0.57
   0 -21   2   -0.34    0.39
  -1 -21  -2   -0.31    0.55
   1 -21   2    0.63    0.45
   1 -21   2   -0.21    0.58
   2 -21   2    1.24    0.62
  -2 -21  -2   -0.11    0.55
   2 -21   2    0.69    0.54
  11   0  -3    0.88    0.54
  11   0  -3    0.88    0.46
  11   0  -3    1.36    0.72
  10   0  -3   -0.43    0.32
  10   0  -3   -0.14    0.55
   9   0  -3    0.76    0.27
   9   0  -3    0.76    0.48
   9   0  -3    0.65    0.27
   8   0  -3   -0.08    0.22
   8   0  -3   -0.05    0.22
   7   0  -3   72.69    3.45
   7   0  -3   71.63    3.44
   6   0  -3   -0.12    0.17
   6   0  -3    0.05    0.16
  -5   0   3  127.76    5.93
   5   0  -3  128.32    5.96
   5   0  -3  129.07    5.96
  -4   0   3   -0.03    0.08
  -3   0   3    9.01    0.46
  -2   0   3   -0.02    0.05
   2   0  -3   -0.07    0.06
   2   0  -3   -0.03    0.06
   2   0  -3    0.00    0.07
   1   0  -3  356.18   16.22
  -1   0   3  366.07   16.23
   1   0  -3  339.76   16.22
   1   0  -3  344.53   16.22
  -1   0   3  368.07   16.23
   0   0   3    0.09    0.04
   1   0   3  191.41    8.83
  -1   0  -3  191.90    8.82
   1   0   3  207.70    8.82
   1   0   3  192.10    8.85
  -1   0  -3  182.40    8.84
   2   0   3   -0.09    0.08
   2   0   3   -0.10    0.04
  -2   0  -3   -0.09    0.05
  -3   0  -3    1.56    0.13
   3   0   3    1.47    0.13
   3   0   3    1.47    0.20
   4   0   3    0.00    0.16
  -4   0  -3   -0.03    0.07
   4   0   3    0.03    0.10
  -5   0  -3    0.84    0.13
   5   0   3    0.66    0.23
   6   0   3   -0.32    0.25
  -6   0  -3    0.26    0.12
   7   0   3  187.37    8.84
  -7   0  -3  189.99    8.69
   8   0   3    0.02    0.27
   8   0   3    0.32    0.29
   8   0   3    0.35    0.49
   9   0   3    1.41    0.50
   9   0   3    1.16    0.41
   9   0   3    1.14    0.33
   9   0   3    1.54    0.32
  10   0   3    0.63    0.41
  10   0   3    0.37    0.43
  10   0   3   -0.35    0.57
  10   0   3   -0.71    0.42
  11   0   3    2.64    0.82
  11   0   3    2.52    0.63
  11  -1  -3    3.59    0.55
  11  -1  -3    4.25    0.80
  11   1  -3    3.66    0.57
  11   1  -3    4.80    0.81
  11   1  -3    3.22    0.64
  10  -1  -3    3.45    0.47
  10  -1  -3    4.81    0.74
  10   1  -3    5.49    0.62
  10   1  -3    3.85    0.50
  10   1  -3    3.49    0.54
  10   1  -3    5.15    0.69
   9  -1  -3    2.05    0.33
   9  -1  -3    2.22    0.53
   9   1  -3    2.03    0.54
   9   1  -3    2.30    0.35
   9   1  -3    2.26    0.34
   8  -1  -3    1.28    0.24
   8  -1  -3    0.86    0.24
   8  -1  -3    1.10    0.44
   8   1  -3    1.14    0.28
   8   1  -3    1.18    0.28
   7  -1  -3    3.12    0.39
  -7  -1   3    2.86    0.34
   7  -1  -3    2.92    0.40
   6  -1  -3   28.98    1.44
   6  -1  -3   28.34    1.43
  -6  -1   3   28.87    1.41
   5  -1  -3    5.38    0.37
  -5  -1   3    5.45    0.35
   5  -1  -3    5.69    0.38
   4  -1  -3  220.07   10.32
  -4  -1   3  229.76   10.30
   4  -1  -3  223.27   10.31
   3  -1  -3   25.34    1.21
   3  -1  -3   24.73    1.21
  -3  -1   3   25.04    1.20
  -2  -1   3    0.37    0.07
   2  -1  -3    0.32    0.07
  -2   1   3    0.41    0.09
  -2   1   3    0.40    0.09
   2   1  -3    0.34    0.08
  -1  -1   3   40.04    1.87
   1  -1  -3   40.22    1.87
  -1  -1   3   38.64    1.87
   1   1  -3   41.63    1.87
  -1   1   3   41.29    1.87
   0  -1   3    1.11    0.08
   0  -1  -3    1.37    0.08
   0  -1   3    1.43    0.08
   0  -1   3    1.25    0.08
   0  -1  -3    1.25    0.08
   0   1   3    1.44    0.09
   0   1   3    1.15    0.08
   0   1   3    1.22    0.08
   0   1  -3    1.31    0.08
   0   1  -3    1.11    0.08
   1  -1   3   24.86    1.14
  -1  -1  -3   21.33    1.12
  -1  -1  -3   24.19    1.12
   1   1   3   24.80    1.12
   1   1   3   23.62    1.12
   1   1   3   25.87    1.14
  -2  -1  -3    0.25    0.06
   2  -1   3    0.28    0.04
   2  -1   3    0.09    0.08
   2   1   3    0.22    0.08
  -2   1  -3    0.25    0.04
   2   1   3    0.21    0.08
   3  -1   3   54.01    2.24
   3  -1   3   46.70    2.30
  -3  -1  -3   51.76    2.25
   3   1   3   41.34    2.27
  -3   1  -3   49.22    2.23
   3   1   3   45.63    2.29
   3   1   3   49.22    2.24
   4  -1   3    0.32    0.19
   4  -1   3    0.45    0.10
   4   1   3    0.34    0.18
  -5  -1  -3    1.75    0.19
   5  -1   3    1.47    0.28
  -5   1  -3    1.76    0.17
   5   1   3    1.92    0.33
  -6  -1  -3    1.71    0.23
   6  -1   3    1.71    0.34
   6   1   3    1.93    0.30
  -6   1  -3    2.13    0.21
   6   1   3    1.94    0.34
   7  -1   3    0.11    0.35
   7  -1   3   -0.04    0.18
   7  -1   3    0.06    0.18
  -7  -1  -3    0.33    0.17
   7   1   3    0.58    0.32
   7   1   3   -0.12    0.30
  -8  -1  -3    5.97    0.51
   8  -1   3    6.13    0.55
   8  -1   3    6.20    0.56
   8  -1   3    8.43    0.90
   8   1   3    5.74    0.80
   8   1   3    6.30    0.67
   9  -1   3    2.08    0.33
   9  -1   3    1.83    0.52
   9  -1   3    1.76    0.31
  -9  -1  -3    1.73    0.30
   9   1   3    1.89    0.35
   9   1   3    1.51    0.51
   9   1   3    1.80    0.36
   9   1   3    1.26    0.41
  10  -1   3    0.05    0.57
  10  -1   3    0.05    0.45
  10   1   3    0.19    0.37
  10   1   3   -0.31    0.42
  10   1   3    0.60    0.57
  10   1   3   -0.09    0.38
  11  -1   3    2.81    0.68
  11  -1   3    2.30    0.80
  11   1   3    3.76    0.85
  11   1   3    2.54    0.64
  11  -2  -3    0.96    0.45
  11  -2  -3    1.07    0.75
  11   2  -3    1.73    0.57
  11   2  -3    0.99    0.53
  11   2  -3    2.14    0.55
  11   2  -3    1.58    0.69
  10  -2  -3    1.64    0.36
  10  -2  -3    0.70    0.55
  10   2  -3    1.28    0.57
  10   2  -3    2.63    0.42
  10   2  -3    2.26    0.43
  10   2  -3    1.61    0.39
   9  -2  -3    0.41    0.25
   9  -2  -3    0.56    0.48
   9   2  -3    0.95    0.31
   9   2  -3    0.42    0.32
   9   2  -3    1.12    0.31
   8  -2  -3    9.59    0.92
   8  -2  -3   11.15    0.66
  -8  -2   3    9.56    0.63
  -7  -2   3   58.75    2.75
   7  -2  -3   53.87    2.92
   7  -2  -3   60.39    2.77
  -6  -2   3    8.95    0.54
   6  -2  -3    9.23    0.55
   5  -2  -3   26.52    1.33
  -5  -2   3   27.58    1.33
   4  -2  -3   80.57    3.77
  -4  -2   3   81.37    3.77
  -3  -2   3   27.47    1.29
   3  -2  -3   26.36    1.29
  -2  -2   3  236.01   12.59
  -2  -2   3  286.13   12.60
   2  -2  -3  274.09   12.60
   2   2  -3  288.39   12.61
  -2   2   3  291.69   12.61
  -1  -2   3   66.86    3.08
  -1  -2   3   66.23    3.07
   1  -2  -3   63.68    3.08
   1   2  -3   68.95    3.08
  -1   2   3   68.41    3.08
   0  -2   3   16.51    0.84
   0  -2   3   15.52    0.83
   0   2   3   16.78    0.84
   0   2  -3   17.39    0.83
   0   2   3   17.32    0.84
   1  -2   3   41.78    2.01
  -1  -2  -3   43.29    1.99
   1   2   3   46.28    2.01
   1   2   3   41.26    1.99
   2  -2   3  262.53   11.73
   2  -2   3  246.51   11.79
   2  -2   3  280.30   11.73
  -2  -2  -3  256.10   11.76
   2   2   3  247.70   11.78
   2   2   3  244.21   11.75
   2   2   3  261.18   11.76
   3  -2   3   26.82    1.17
  -3  -2  -3   25.87    1.20
   3  -2   3   25.21    1.17
   3  -2   3   25.19    1.17
   3  -2   3   24.47    1.25
   3   2   3   23.95    1.21
   3   2   3   23.82    1.23
   4  -2   3   16.03    0.89
   4  -2   3   16.75    0.78
   4  -2   3   16.36    0.79
  -4  -2  -3   16.54    0.81
   4  -2   3   15.76    0.79
   4   2   3   15.32    0.86
   4   2   3   16.00    0.85
   5  -2   3   38.72    1.81
   5  -2   3   37.60    1.92
   5  -2   3   38.89    1.81
  -5  -2  -3   39.42    1.82
   5   2   3   36.49    1.88
   5   2   3   37.48    1.88
   6  -2   3   16.98    0.87
   6  -2   3   17.03    0.87
  -6  -2  -3   16.78    0.88
   6  -2   3   18.18    1.04
   6   2   3   16.65    0.99
   6   2   3   16.71    0.97
  -7  -2  -3   58.92    2.84
   7  -2   3   60.26    2.83
   7  -2   3   61.98    3.01
   7  -2   3   60.34    2.83
   7   2   3   58.89    2.96
   7   2   3   58.74    2.95
   8  -2   3   44.40    2.11
  -8  -2  -3   40.67    2.10
   8  -2   3   44.85    2.33
   8   2   3   44.13    2.28
   8   2   3   42.74    2.26
   9  -2   3    6.15    0.83
  -9  -2  -3    4.15    0.48
   9  -2   3    4.66    0.53
   9   2   3    4.74    0.64
   9   2   3    5.55    0.69
  10  -2   3   -0.17    0.59
  10   2   3   -0.41    0.39
  10   2   3    0.36    0.41
  10   2   3    0.21    0.42
  10   2   3    0.02    0.57
  11  -2   3   -1.01    0.57
  11  -2   3   -0.43    0.74
  11   2   3    0.58    0.51
  11   2   3   -0.02    0.78
  11  -3  -3   -0.34    0.77
  11   3  -3   -1.34    0.75
  11   3  -3   -0.30    0.52
  11   3  -3    0.11    0.53
  11   3  -3    0.43    0.52
  10  -3  -3    1.09    0.62
  10  -3  -3    1.56    0.35
  10   3  -3    1.02    0.60
  10   3  -3    1.80    0.41
  10   3  -3    1.44    0.42
  10   3  -3    1.84    0.41
  -9  -3   3    0.56    0.26
   9  -3  -3    0.45    0.51
   9  -3  -3    0.38    0.24
   9   3  -3    0.33    0.34
   8  -3  -3    4.12    0.39
   8  -3  -3    2.76    0.56
  -8  -3   3    4.37    0.42
   8   3  -3    3.78    0.57
   7  -3  -3    3.01    0.39
  -7  -3   3    3.14    0.33
   7  -3  -3    3.30    0.54
   7   3  -3    3.21    0.43
   6  -3  -3    5.08    0.37
  -6  -3   3    5.16    0.41
   6  -3  -3    4.85    0.56
   6   3  -3    4.97    0.43
   5  -3  -3    0.62    0.14
  -5  -3   3    0.37    0.14
  -4  -3   3    6.41    0.43
   4  -3  -3    8.50    0.43
  -3  -3   3   61.07    2.77
   3  -3  -3   58.48    2.76
   3   3  -3   58.51    2.76
   2  -3  -3   43.12    2.06
  -2  -3   3   41.61    2.05
  -2  -3   3   45.96    2.07
  -2   3   3   45.52    2.07
   2   3  -3   45.00    2.04
   0  -3  -3   69.43    3.17
   0  -3   3   70.64    3.16
   0  -3   3   65.17    3.17
   0   3  -3   70.49    3.16
   0   3   3   71.24    3.17
   0   3   3   65.71    3.16
   2  -3   3   68.03    2.95
  -2  -3  -3   63.95    2.98
   2  -3   3   60.44    3.01
  -2   3  -3   65.48    2.95
   2   3   3   61.76    2.96
   2   3   3   66.25    2.99
   3  -3   3   15.99    0.78
   3  -3   3   17.60    0.78
   3  -3   3   15.84    0.87
  -3  -3  -3   17.35    0.82
   3   3   3   16.81    0.84
   3   3   3   15.54    0.82
   4  -3   3    3.20    0.19
  -4  -3  -3    2.83    0.23
   4  -3   3    2.70    0.20
   4  -3   3    2.38    0.32
   4   3   3    2.41    0.30
   4   3   3    3.07    0.28
  -5  -3  -3    6.09    0.39
   5  -3   3    6.72    0.52
   5  -3   3    6.32    0.35
   5   3   3    5.76    0.46
   5   3   3    5.52    0.44
   6  -3   3    1.49    0.21
   6  -3   3    1.99    0.37
  -6  -3  -3    1.42    0.21
   6   3   3    1.47    0.25
   6   3   3    1.40    0.31
   7  -3   3    4.40    0.36
   7  -3   3    6.04    0.73
  -7  -3  -3    4.64    0.45
   7   3   3    4.66    0.55
   7   3   3    4.23    0.55
  -8  -3  -3   14.85    0.83
   8  -3   3   14.63    1.14
   8  -3   3   14.18    0.81
   8   3   3   14.81    0.98
   8   3   3   14.47    1.01
   9  -3   3    5.08    0.80
   9  -3   3    4.08    0.50
  -9  -3  -3    3.09    0.44
   9   3   3    4.10    0.63
   9   3   3    4.39    0.63
  10  -3   3    3.10    0.69
 -10  -3  -3    2.13    0.38
  10   3   3    1.61    0.64
  10   3   3    2.18    0.46
  11  -3   3    3.02    0.86
  11   3   3    2.08    0.60
  11  -4  -3   -0.07    0.80
  11   4  -3    0.19    0.49
  11   4  -3    0.27    0.55
  11   4  -3   -1.20    0.76
  11   4  -3   -0.09    0.57
 -10  -4   3    1.43    0.37
  10  -4  -3    1.00    0.63
  10  -4  -3    1.85    0.34
  10   4  -3    1.07    0.44
  10   4  -3    1.91    0.46
  10   4  -3    1.77    0.42
  10   4  -3    1.13    0.55
   9  -4  -3    6.79    0.92
   9  -4  -3    9.63    0.62
  -9  -4   3    9.40    0.66
   9   4  -3    9.10    0.77
   8  -4  -3    1.22    0.47
   8  -4  -3    2.01    0.27
  -8  -4   3    1.87    0.28
   8   4  -3    1.69    0.34
  -7  -4   3   30.91    1.52
   7  -4  -3   29.90    1.71
   7  -4  -3   27.87    1.51
   7   4  -3   32.45    1.57
  -6  -4   3   49.55    2.41
   6  -4  -3   49.72    2.56
   6  -4  -3   50.89    2.39
   6   4  -3   50.87    2.42
   5  -4  -3    7.68    0.44
   5  -4  -3    6.40    0.60
  -5  -4   3    7.62    0.48
   5   4  -3    7.72    0.47
   4  -4  -3   44.01    2.12
  -4  -4   3   45.83    2.15
   4   4  -3   45.72    2.13
  -3  -4   3   80.33    3.98
   3  -4  -3   84.39    3.98
  -3  -4   3   91.06    4.01
   3   4  -3   89.13    3.97
  -2  -4   3  316.64   13.62
  -2  -4   3  291.12   13.60
   2  -4  -3  298.15   13.60
  -2  -4   3  266.74   13.59
   2   4  -3  313.82   13.58
  -1  -4   3  575.69   25.92
   1  -4  -3  547.07   25.95
  -1   4   3  560.78   25.91
   1   4  -3  584.80   25.92
   0  -4   3    1.43    0.13
   0  -4  -3    1.61    0.13
   0  -4  -3    1.50    0.14
   0   4   3    1.50    0.12
   0   4  -3    1.56    0.12
   1  -4   3  313.63   13.62
   1  -4   3  289.57   13.66
  -1  -4  -3  302.50   13.64
   1   4   3  310.14   13.64
  -1   4  -3  274.39   13.61
   2  -4   3  127.10    5.78
  -2  -4  -3  127.36    5.82
   2  -4   3  120.81    5.86
   2   4   3  127.31    5.82
  -2   4  -3  129.54    5.79
  -3  -4  -3   83.02    3.82
   3  -4   3   86.57    3.78
   3  -4   3   82.53    3.78
   3  -4   3   78.13    3.88
   3   4   3   81.42    3.83
   4  -4   3   68.16    3.07
   4  -4   3   68.48    3.06
  -4  -4  -3   66.63    3.11
   4  -4   3   63.84    3.19
   4   4   3   64.97    3.13
   5  -4   3    1.85    0.17
   5  -4   3    2.09    0.33
  -5  -4  -3    1.91    0.24
   5  -4   3    1.77    0.21
   5   4   3    2.02    0.32
   5   4   3    1.96    0.27
  -6  -4  -3    5.95    0.46
   6  -4   3    6.88    0.64
   6  -4   3    6.58    0.38
   6   4   3    6.16    0.54
   6   4   3    6.68    0.50
  -7  -4  -3    0.60    0.20
   7  -4   3   -0.06    0.15
   7  -4   3    0.29    0.40
   7   4   3    0.35    0.29
   7   4   3    0.07    0.25
   8  -4   3   13.55    0.76
  -8  -4  -3   13.63    0.80
   8  -4   3   15.80    1.07
   8   4   3   13.58    0.92
   8   4   3   13.05    0.95
  -9  -4  -3    2.64    0.35
   9  -4   3    3.08    0.62
   9   4   3    3.23    0.65
   9   4   3    2.61    0.41
 -10  -4  -3    0.33    0.33
  10  -4   3   -0.28    0.61
  10   4   3    0.35    0.64
  10   4   3    1.01    0.40
  10  -5  -3    2.10    0.68
 -10  -5   3    0.72    0.35
  10  -5  -3    1.51    0.32
  10   5  -3    0.79    0.39
  10   5  -3    1.62    0.62
   9  -5  -3    0.42    0.23
   9  -5  -3    0.88    0.53
  -9  -5   3    0.47    0.27
   9   5  -3    0.53    0.31
   8  -5  -3    0.38    0.19
   8  -5  -3    0.33    0.42
  -8  -5   3    0.05    0.21
   8   5  -3    0.04    0.24
   7  -5  -3   11.54    0.89
  -7  -5   3   11.22    0.68
   7  -5  -3   10.48    0.67
   7   5  -3   12.31    0.71
  -6  -5   3    2.82    0.35
   6  -5  -3    3.90    0.61
   6  -5  -3    3.93    0.31
   6   5  -3    3.27    0.34
   5  -5  -3    2.89    0.47
  -5  -5   3    3.07    0.33
   5  -5  -3    3.20    0.25
   5   5  -3    3.20    0.27
   4  -5  -3   30.86    1.63
   4  -5  -3   31.01    1.50
  -4  -5   3   31.63    1.53
   4   5  -3   31.93    1.49
  -3  -5   3   86.35    4.19
   3  -5  -3   90.86    4.29
   3  -5  -3   88.24    4.19
  -3  -5   3   93.36    4.22
   3   5  -3   94.39    4.17
   2  -5  -3   74.90    3.34
  -2  -5   3   73.10    3.33
  -2  -5   3   71.19    3.35
   2  -5  -3   67.65    3.41
   2   5  -3   73.45    3.31
   1  -5  -3   90.41    4.27
  -1  -5   3   93.32    4.23
   1  -5  -3   92.18    4.22
  -1  -5   3   90.61    4.21
   0  -5  -3   28.37    1.30
   0  -5   3   27.06    1.30
   0  -5   3   28.89    1.30
   0  -5  -3   26.83    1.31
   0   5  -3   26.20    1.29
   1  -5   3   20.76    0.94
  -1  -5  -3   20.23    0.96
   1  -5   3   18.91    0.98
  -1  -5  -3   21.38    0.92
   1   5   3   18.03    0.93
  -1   5  -3   17.35    0.92
   1   5   3   21.71    0.95
   2  -5   3   30.19    1.56
  -2  -5  -3   31.83    1.52
   2  -5   3   32.06    1.48
  -2   5  -3   33.59    1.48
  -3  -5  -3    3.02    0.24
   3  -5   3    2.81    0.31
   3  -5   3    2.98    0.18
   3   5   3    3.44    0.24
   3   5   3    2.97    0.17
  -3   5  -3    2.68    0.19
   4  -5   3   42.27    2.17
  -4  -5  -3   42.96    2.09
   4  -5   3   45.62    2.04
   4  -5   3   44.48    2.04
   4   5   3   44.08    2.10
   5  -5   3    2.92    0.20
  -5  -5  -3    2.26    0.28
   5  -5   3    2.76    0.23
   5  -5   3    2.97    0.41
   5   5   3    2.47    0.29
  -6  -5  -3   23.40    1.20
   6  -5   3   23.41    1.36
   6  -5   3   23.94    1.12
   6   5   3   23.96    1.23
   6   5   3   21.22    1.22
   7  -5   3    2.03    0.48
   7  -5   3    2.56    0.25
  -7  -5  -3    3.55    0.38
   7   5   3    1.70    0.37
   7   5   3    3.15    0.47
   8  -5   3    5.37    0.79
   8  -5   3    5.13    0.39
  -8  -5  -3    5.53    0.47
   8   5   3    6.36    0.61
   8   5   3    5.24    0.64
   9  -5   3   -0.13    0.52
  -9  -5  -3    0.18    0.27
   9   5   3    0.38    0.53
   9   5   3   -0.11    0.31
  10  -5   3   18.71    1.44
 -10  -5  -3   14.76    1.00
  10   5   3   16.51    1.11
 -10  -6   3    1.36    0.38
  10  -6  -3    2.82    0.75
  10  -6  -3    1.23    0.47
  10   6  -3    1.48    0.41
  -9  -6   3    7.03    0.60
   9  -6  -3    6.55    0.94
   9  -6  -3    6.56    0.53
   9   6  -3    6.87    0.67
   8  -6  -3    0.41    0.46
   8  -6  -3    0.73    0.21
  -8  -6   3    0.87    0.25
   8   6  -3    0.74    0.27
   7  -6  -3    3.73    0.38
   7  -6  -3    3.58    0.60
  -7  -6   3    3.62    0.42
   7   6  -3    4.32    0.40
   6  -6  -3   19.38    1.00
   6  -6  -3   17.38    1.22
  -6  -6   3   20.03    1.04
   6   6  -3   21.16    1.02
   5  -6  -3    1.76    0.36
   5  -6  -3    1.54    0.20
  -5  -6   3    2.13    0.29
   5   6  -3    1.96    0.23
  -4  -6   3   11.42    0.63
   4  -6  -3   10.37    0.74
   4  -6  -3   10.67    0.58
   4   6  -3   11.72    0.57
   3  -6  -3  154.27    7.18
  -3  -6   3  159.16    7.21
   3  -6  -3  156.46    7.29
  -3  -6   3  145.04    7.17
   3   6  -3  165.71    7.16
   2  -6  -3   22.78    1.07
  -2  -6   3   21.91    1.09
   2  -6  -3   20.96    1.15
  -2  -6   3   23.23    1.06
  -1  -6   3    3.90    0.26
   1  -6  -3    4.04    0.25
   1  -6  -3    3.54    0.31
  -1  -6   3    4.22    0.23
   0  -6   3    3.05    0.21
   0  -6   3    2.87    0.21
   0  -6  -3    3.39    0.22
   0  -6  -3    2.99    0.23
  -1  -6  -3    0.28    0.06
  -1  -6  -3    0.06    0.08
   1  -6   3    0.27    0.08
   1  -6   3    0.17    0.11
  -1   6  -3    0.11    0.06
   1   6   3    0.19    0.09
   1   6   3    0.15    0.09
   2  -6   3    4.28    0.34
  -2  -6  -3    4.34    0.29
   2  -6   3    4.08    0.24
  -2  -6  -3    4.43    0.21
   2   6   3    3.59    0.22
  -2   6  -3    4.51    0.23
  -3  -6  -3    9.63    0.55
   3  -6   3    8.98    0.61
   3  -6   3   10.05    0.49
  -3   6  -3    9.61    0.50
   3   6   3   10.22    0.47
   3   6   3   10.39    0.53
   4  -6   3    2.32    0.17
  -4  -6  -3    2.38    0.26
   4  -6   3    2.05    0.35
  -4   6  -3    2.49    0.23
   4   6   3    2.69    0.24
  -4   6  -3    2.36    0.23
   5  -6   3    0.21    0.09
   5  -6   3    0.38    0.28
  -5  -6  -3    0.31    0.18
   5  -6   3    0.23    0.13
   5   6   3    0.04    0.13
  -6  -6  -3   11.30    0.67
   6  -6   3   11.50    0.87
   6  -6   3   11.15    0.57
   6   6   3   11.50    0.68
   6   6   3    9.45    0.70
   7  -6   3    0.81    0.40
   7   6   3    0.27    0.31
   8  -6   3    8.54    0.66
   8  -6   3   10.41    0.94
  -8  -6  -3    9.89    0.65
   8   6   3    9.70    0.69
   8   6   3    8.05    0.76
   9  -6   3    6.52    0.99
  -9  -6  -3    6.48    0.60
   9   6   3    6.25    0.61
 -10  -6  -3    0.84    0.38
  10  -6   3    1.08    0.69
  10   6   3    0.32    0.37
  10  -7  -3   -0.32    0.65
 -10  -7   3    0.42    0.38
  -9  -7   3    2.28    0.37
   9  -7  -3    1.94    0.31
   9  -7  -3    2.10    0.64
   9   7  -3    1.98    0.38
   8  -7  -3    0.24    0.46
  -8  -7   3    0.11    0.24
   8  -7  -3    0.41    0.20
   8   7  -3    0.82    0.24
   7  -7  -3    4.92    0.41
  -7  -7   3    5.97    0.47
   7  -7  -3    5.46    0.69
   7   7  -3    5.05    0.43
  -6  -7   3   17.94    0.99
   6  -7  -3   17.96    1.17
   6  -7  -3   18.67    0.95
   6   7  -3   18.82    0.94
  -5  -7   3    0.15    0.16
   5  -7  -3   -0.08    0.12
   5  -7  -3   -0.12    0.27
   5   7  -3    0.01    0.10
  -4  -7   3    6.16    0.40
  -4  -7   3    6.59    0.45
   4  -7  -3    6.64    0.39
   4  -7  -3    6.75    0.57
   4   7  -3    7.03    0.37
   3  -7  -3   10.91    0.69
   3  -7  -3   10.47    0.54
  -3  -7   3    9.48    0.58
  -3  -7   3    9.32    0.53
   3   7  -3   10.77    0.52
  -2  -7   3  129.84    6.04
   2  -7  -3  134.37    6.06
   2  -7  -3  128.29    6.13
  -2  -7   3  133.14    6.08
  -1  -7   3   36.79    1.63
  -1  -7   3   34.73    1.66
   1  -7  -3   35.06    1.65
   1  -7  -3   32.52    1.69
   0  -7   3   11.17    0.61
   0  -7   3   13.01    0.61
   0  -7  -3   11.91    0.61
   0  -7  -3   11.37    0.62
   1  -7   3   32.77    1.64
  -1  -7  -3   34.66    1.63
  -1  -7  -3   33.68    1.58
   1  -7   3   34.92    1.60
  -2  -7  -3   39.65    1.88
   2  -7   3   37.45    1.91
  -2  -7  -3   42.32    1.81
   2  -7   3   39.74    1.83
  -2   7  -3   36.69    1.82
  -3  -7  -3   56.54    2.65
   3  -7   3   59.47    2.59
   3  -7   3   55.15    2.71
  -3   7  -3   55.73    2.59
   3   7   3   58.40    2.63
   3   7   3   50.59    2.57
  -4  -7  -3    3.71    0.35
   4  -7   3    3.62    0.43
   4  -7   3    4.15    0.25
  -4   7  -3    4.47    0.30
   4   7   3    4.34    0.31
   5  -7   3    0.39    0.10
  -5  -7  -3    0.14    0.18
   5  -7   3    0.61    0.31
   5   7   3    0.37    0.15
   6  -7   3    6.99    0.40
   6  -7   3    7.29    0.70
  -6  -7  -3    6.15    0.49
   6   7   3    6.64    0.50
   7  -7   3    0.19    0.15
   7  -7   3    0.61    0.42
  -7  -7  -3   -0.03    0.21
   7   7   3    0.45    0.24
   7   7   3    0.29    0.31
  -8  -7  -3    3.35    0.46
   8  -7   3    4.14    0.63
   8   7   3    2.86    0.45
   8   7   3    2.95    0.48
   9  -7   3    2.42    0.67
  -9  -7  -3    1.69    0.37
   9   7   3    1.98    0.35
 -10  -7  -3    0.51    0.36
  10  -7   3   -0.15    0.68
  10   7   3   -0.07    0.37
  10  -8  -3    0.69    0.71
 -10  -8   3    0.47    0.39
   9  -8  -3    4.43    0.49
   9  -8  -3    5.28    0.82
  -9  -8   3    5.88    0.59
   9   8  -3    4.63    0.64
  -8  -8   3    2.03    0.35
   8  -8  -3    2.73    0.57
   8  -8  -3    2.27    0.32
   8   8  -3    2.21    0.30
   7  -8  -3    3.40    0.55
   7  -8  -3    3.08    0.33
  -7  -8   3    3.31    0.40
   7   8  -3    3.23    0.34
   6  -8  -3   13.79    0.75
   6  -8  -3   13.02    1.00
  -6  -8   3   13.53    0.79
   6   8  -3   13.72    0.72
   5  -8  -3   24.54    1.50
   5  -8  -3   25.76    1.28
  -5  -8   3   26.13    1.34
   5   8  -3   28.17    1.27
  -4  -8   3    6.07    0.38
  -4  -8   3    6.27    0.44
   4  -8  -3    6.17    0.38
   4  -8  -3    5.53    0.55
   4   8  -3    6.09    0.35
   3  -8  -3    7.69    0.59
   3  -8  -3    7.99    0.44
  -3  -8   3    8.01    0.49
  -3  -8   3    7.12    0.42
  -2  -8   3   32.66    1.53
  -2  -8   3   32.45    1.58
   2  -8  -3   33.36    1.56
   2  -8  -3   31.51    1.64
   1  -8  -3    4.26    0.29
   1  -8  -3    3.74    0.34
  -1  -8   3    4.50    0.26
  -1  -8   3    4.33    0.30
   0  -8  -3    4.43    0.31
   0  -8   3    4.16    0.29
   0  -8  -3    4.48    0.31
   0  -8   3    4.68    0.30
  -1  -8  -3    0.58    0.13
   1  -8   3    0.25    0.14
   1  -8   3    0.30    0.11
  -2  -8  -3   16.06    0.86
   2  -8   3   15.43    0.90
   2  -8   3   16.27    0.82
  -2  -8  -3   17.63    0.78
   2   8   3   17.00    0.84
   3  -8   3    3.50    0.24
   3  -8   3    3.20    0.40
  -3  -8  -3    3.15    0.32
   3   8   3    3.93    0.28
   3   8   3    2.86    0.25
  -4  -8  -3    6.44    0.45
   4  -8   3    6.26    0.56
   4  -8   3    6.51    0.37
   4   8   3    6.88    0.42
  -5  -8  -3    5.04    0.40
   5  -8   3    4.50    0.31
   5  -8   3    5.25    0.64
   6  -8   3    3.84    0.29
  -6  -8  -3    3.87    0.40
   6  -8   3    4.13    0.60
   6   8   3    3.92    0.39
   7  -8   3    0.98    0.43
  -7  -8  -3    1.48    0.28
   7  -8   3    1.66    0.20
   7   8   3    1.09    0.29
   7   8   3    1.94    0.34
  -8  -8  -3    0.28    0.26
   8  -8   3    0.73    0.51
   8   8   3    0.24    0.24
  -9  -8  -3    0.79    0.33
   9  -8   3    0.59    0.63
   9   8   3    0.24    0.28
  10  -8   3    4.69    0.86
 -10  -8  -3    2.51    0.49
  10   8   3    2.65    0.46
  10  -9  -3    1.19    0.81
 -10  -9   3    0.72    0.43
   9  -9  -3    2.68    0.71
  -9  -9   3    2.82    0.41
   9  -9  -3    3.19    0.44
   8  -9  -3    1.46    0.54
  -8  -9   3    1.52    0.31
   8  -9  -3    1.22    0.25
   8   9  -3    1.01    0.24
   7  -9  -3    0.66    0.43
  -7  -9   3    0.34    0.25
   7  -9  -3    0.30    0.18
   7   9  -3   -0.17    0.16
   6  -9  -3   24.55    1.34
  -6  -9   3   27.57    1.41
   6  -9  -3   26.29    1.57
   6   9  -3   29.16    1.32
  -5  -9   3    0.06    0.18
   5  -9  -3   -0.17    0.15
   5  -9  -3    0.22    0.38
   5   9  -3   -0.05    0.12
  -4  -9   3   -0.06    0.18
   4  -9  -3   -0.46    0.26
   4  -9  -3    0.11    0.13
  -4  -9   3    0.19    0.13
   4   9  -3    0.26    0.11
   3  -9  -3   74.87    3.35
  -3  -9   3   71.22    3.33
  -3  -9   3   69.14    3.38
   3  -9  -3   71.44    3.47
   2  -9  -3    7.10    0.52
  -2  -9   3    7.50    0.40
   2  -9  -3    7.16    0.42
  -2  -9   3    6.38    0.45
   1  -9  -3    6.46    0.47
   1  -9  -3    7.13    0.42
  -1  -9   3    7.13    0.43
   0  -9   3    2.06    0.22
   0  -9  -3    1.90    0.24
   0  -9  -3    2.19    0.23
   0  -9   3    1.64    0.22
   1  -9   3   16.74    0.91
  -1  -9  -3   17.73    0.89
   1  -9   3   17.29    0.87
  -1  -9  -3   17.13    0.84
   2  -9   3   52.57    2.39
   2  -9   3   48.92    2.47
  -2  -9  -3   49.86    2.43
  -2  -9  -3   53.45    2.36
   2   9   3   49.98    2.41
  -3  -9  -3    0.25    0.09
   3  -9   3    0.40    0.12
  -3  -9  -3    0.21    0.19
   3  -9   3    0.46    0.24
   3   9   3    0.54    0.14
  -4  -9  -3   10.16    0.64
   4  -9   3   10.56    0.76
   4  -9   3   11.43    0.57
   4   9   3   10.88    0.60
   5  -9   3   17.22    1.11
  -5  -9  -3   16.47    0.95
   5  -9   3   18.32    0.87
   5   9   3   17.66    0.92
  -6  -9  -3    6.61    0.56
   6  -9   3    7.86    0.45
   6  -9   3    8.05    0.73
   6   9   3    7.03    0.52
   7  -9   3    1.47    0.49
  -7  -9  -3    1.25    0.29
   7   9   3    1.39    0.28
  -8  -9  -3    2.27    0.37
   8  -9   3    2.17    0.61
   8   9   3    1.57    0.28
  -9  -9  -3    0.77    0.36
   9  -9   3    1.18    0.66
   9   9   3    0.26    0.29
  10  -9   3    4.17    0.87
 -10  -9  -3    3.25    0.58
  10   9   3    2.55    0.46
  10 -10  -3    1.43    0.87
   9 -10  -3    0.78    0.69
  -9 -10   3    0.52    0.37
   8 -10  -3   -0.03    0.55
   8 -10  -3    0.40    0.25
  -8 -10   3    0.32    0.30
   7 -10  -3    3.25    0.59
   7 -10  -3    3.65    0.37
  -7 -10   3    3.37    0.48
   7  10  -3    3.58    0.34
   6 -10  -3   11.34    0.88
   6 -10  -3   10.14    0.62
  -6 -10   3    9.61    0.68
   6  10  -3   10.29    0.58
   5 -10  -3   -0.09    0.18
  -5 -10   3   -0.34    0.20
   5 -10  -3    0.10    0.34
   5  10  -3   -0.10    0.14
   4 -10  -3    0.41    0.32
   4 -10  -3    0.74    0.17
  -4 -10   3    0.27    0.19
  -4 -10   3    0.46    0.15
   3 -10  -3    0.61    0.25
  -3 -10   3    0.64    0.14
   3 -10  -3    0.47    0.15
  -3 -10   3    0.36    0.19
   2 -10  -3    0.80    0.24
   2 -10  -3    0.73    0.17
  -2 -10   3    0.39    0.20
  -2 -10   3    1.08    0.16
   1 -10  -3    0.86    0.17
  -1 -10   3    1.36    0.18
  -1 -10   3    1.03    0.18
   1 -10  -3    0.84    0.21
   0 -10   3    2.60    0.27
   0 -10   3    2.58    0.26
   0 -10  -3    2.82    0.28
   0 -10  -3    2.90    0.28
  -1 -10  -3    1.20    0.18
   1 -10   3    1.12    0.22
   1 -10   3    1.10    0.18
  -1 -10  -3    1.27    0.21
  -2 -10  -3    1.68    0.17
   2 -10   3    1.88    0.23
   2 -10   3    1.72    0.28
  -2 -10  -3    2.21    0.32
   3 -10   3    6.74    0.57
   3 -10   3    7.25    0.42
  -3 -10  -3    6.57    0.36
  -3 -10  -3    6.46    0.48
   3  10   3    6.72    0.45
   4 -10   3    0.09    0.13
  -4 -10  -3   -0.08    0.17
   4 -10   3    0.23    0.32
   4  10   3    0.06    0.15
  -5 -10  -3    2.54    0.39
   5 -10   3    3.43    0.53
   5 -10   3    2.20    0.27
   5  10   3    2.71    0.32
   6 -10   3    3.72    0.62
  -6 -10  -3    3.16    0.45
   6 -10   3    3.94    0.33
   6  10   3    3.64    0.41
  -7 -10  -3    0.77    0.28
   7 -10   3    0.81    0.46
   7  10   3    0.99    0.24
  -8 -10  -3    3.95    0.53
   8 -10   3    4.38    0.72
   8  10   3    3.22    0.45
  -9 -10  -3    0.52    0.38
   9 -10   3   -0.19    0.66
   9  10   3   -0.51    0.30
   9 -11  -3   -0.58    0.66
  -9 -11   3    0.45    0.42
   8 -11  -3    0.00    0.57
   8 -11  -3    0.75    0.28
  -8 -11   3    0.21    0.31
   7 -11  -3    1.20    0.49
   7 -11  -3    1.28    0.24
  -7 -11   3    1.50    0.33
   7  11  -3    1.06    0.28
   6 -11  -3    1.28    0.22
   6 -11  -3    0.98    0.45
  -6 -11   3    0.94    0.28
   6  11  -3    0.72    0.20
  -5 -11   3   25.84    1.42
   5 -11  -3   28.26    1.37
   5 -11  -3   27.03    1.59
   5  11  -3   28.01    1.34
  -4 -11   3   17.66    1.02
   4 -11  -3   19.58    1.22
  -4 -11   3   19.60    0.97
   4 -11  -3   19.16    0.99
  -3 -11   3    8.13    0.47
   3 -11  -3    8.42    0.53
  -3 -11   3    8.11    0.54
   3 -11  -3    7.72    0.64
  -2 -11   3    1.50    0.25
   2 -11  -3    1.53    0.24
  -2 -11   3    1.98    0.21
   2 -11  -3    1.78    0.31
   1 -11  -3    5.94    0.43
  -1 -11   3    6.51    0.46
   1 -11  -3    5.52    0.46
   0 -11   3    9.45    0.54
   0 -11  -3    9.37    0.58
   0 -11  -3    8.97    0.56
   0 -11   3    9.21    0.56
  -1 -11  -3   23.63    1.17
   1 -11   3   23.21    1.14
   1 -11   3   21.25    1.17
  -1 -11  -3   22.63    1.10
   2 -11   3   12.77    0.81
   2 -11   3   13.37    0.71
  -2 -11  -3   12.61    0.74
  -2 -11  -3   13.25    0.65
  -3 -11  -3    3.39    0.38
   3 -11   3    3.64    0.49
   3 -11   3    3.76    0.33
  -3 -11  -3    4.33    0.26
   3  11   3    3.77    0.35
   4 -11   3    3.86    0.33
   4 -11   3    3.48    0.52
  -4 -11  -3    3.32    0.40
   4  11   3    4.29    0.37
  -5 -11  -3   25.14    1.35
   5 -11   3   24.46    1.46
   5 -11   3   26.60    1.25
   5  11   3   25.33    1.30
  -6 -11  -3    1.43    0.31
   6 -11   3    1.66    0.44
   6 -11   3    2.15    0.30
   6  11   3    1.12    0.26
   7 -11   3    2.20    0.55
  -7 -11  -3    1.91    0.35
   7  11   3    1.62    0.27
  -8 -11  -3    1.34    0.38
   8 -11   3    2.14    0.64
   8  11   3    1.65    0.30
   9 -11   3    1.12    0.70
  -9 -11  -3    0.39    0.43
   9  11   3    0.10    0.32
  -9 -12   3    0.17    0.45
   9 -12  -3    0.23    0.71
  -8 -12   3    0.98    0.38
   8 -12  -3    0.77    0.48
   8 -12  -3    0.69    0.61
  -7 -12   3    1.94    0.39
   7 -12  -3    1.81    0.55
   7 -12  -3    2.27    0.30
  -6 -12   3    3.04    0.39
   6 -12  -3    3.39    0.57
   6 -12  -3    4.03    0.37
   6  12  -3    2.60    0.36
   5 -12  -3   13.28    0.99
   5 -12  -3   13.04    0.73
  -5 -12   3   11.90    0.80
  -5 -12   3   12.55    0.73
   4 -12  -3   28.37    1.38
  -4 -12   3   26.79    1.41
  -4 -12   3   27.27    1.34
   4 -12  -3   26.13    1.58
   3 -12  -3    0.92    0.23
  -3 -12   3    0.70    0.22
  -3 -12   3    1.01    0.18
   3 -12  -3    0.57    0.32
  -2 -12   3   18.41    1.04
   2 -12  -3   19.35    1.10
   2 -12  -3   19.66    1.03
  -2 -12   3   19.83    0.97
  -1 -12   3   20.24    0.93
   1 -12  -3   16.41    0.99
  -1 -12   3   17.97    0.98
   1 -12  -3   17.72    0.97
   0 -12  -3    0.70    0.22
   0 -12   3    0.58    0.22
   0 -12   3    0.63    0.18
   0 -12  -3    0.76    0.20
   1 -12   3   33.09    1.63
  -1 -12  -3   33.91    1.66
   1 -12   3   32.23    1.66
  -1 -12  -3   33.59    1.59
  -2 -12  -3   23.93    1.26
  -2 -12  -3   24.89    1.16
   2 -12   3   24.69    1.22
   2 -12   3   23.07    1.30
   3 -12   3    0.64    0.34
  -3 -12  -3   -0.20    0.20
   3 -12   3    0.04    0.17
  -3 -12  -3    0.24    0.12
   4 -12   3    0.43    0.20
  -4 -12  -3    0.29    0.24
   4 -12   3    0.08    0.32
   4  12   3    0.33    0.21
   5 -12   3   11.71    0.84
  -5 -12  -3    9.49    0.69
   5 -12   3   10.41    0.60
   5  12   3    9.19    0.64
  -6 -12  -3    4.68    0.53
   6 -12   3    5.24    0.72
   6  12   3    4.91    0.49
   7 -12   3    2.36    0.60
  -7 -12  -3    1.56    0.36
   7  12   3    1.24    0.27
  -8 -12  -3    2.09    0.42
   8 -12   3    1.80    0.67
   8  12   3    2.34    0.35
   9 -12   3    1.53    0.79
  -9 -12  -3    1.19    0.47
   9  12   3    1.17    0.37
   9 -13  -3    1.72    0.88
  -8 -13   3    4.34    0.57
   8 -13  -3    4.06    0.82
  -7 -13   3    1.73    0.39
   7 -13  -3    2.08    0.34
   7 -13  -3    2.72    0.63
  -6 -13   3    0.42    0.32
   6 -13  -3    0.66    0.25
   6 -13  -3    1.27    0.48
  -5 -13   3    1.20    0.32
   5 -13  -3    1.56    0.46
  -5 -13   3    2.07    0.34
   5 -13  -3    1.85    0.28
  -4 -13   3   33.53    1.74
   4 -13  -3   35.13    1.70
   4 -13  -3   33.61    1.88
  -4 -13   3   33.87    1.66
   3 -13  -3   -0.08    0.21
  -3 -13   3    0.24    0.16
  -3 -13   3    0.54    0.25
   3 -13  -3    0.44    0.36
  -2 -13   3    0.23    0.23
  -2 -13   3    0.47    0.16
   2 -13  -3    0.00    0.20
   2 -13  -3    0.45    0.30
  -1 -13   3   20.33    0.99
   1 -13  -3   19.29    1.05
  -1 -13   3   19.87    1.05
   1 -13  -3   17.84    1.06
   0 -13   3   45.62    2.22
   0 -13  -3   43.81    2.21
   0 -13  -3   47.37    2.25
   0 -13   3   47.18    2.24
  -1 -13  -3    1.06    0.25
   1 -13   3    1.23    0.26
   1 -13   3    0.86    0.25
   2 -13   3    2.14    0.29
  -2 -13  -3    1.18    0.26
   2 -13   3    1.73    0.36
  -2 -13  -3    1.56    0.22
  -3 -13  -3   11.62    0.59
  -3 -13  -3   10.46    0.72
   3 -13   3   11.39    0.85
   3 -13   3   11.96    0.69
   4 -13   3    3.98    0.57
   4 -13   3    3.60    0.42
  -4 -13  -3    3.68    0.47
   5 -13   3    5.55    0.48
  -5 -13  -3    5.37    0.54
   5 -13   3    5.60    0.69
   5  13   3    4.31    0.52
  -6 -13  -3    0.20    0.31
   6 -13   3    0.27    0.42
   6  13   3   -0.35    0.22
   7 -13   3    0.71    0.53
  -7 -13  -3    0.24    0.33
   7  13   3   -0.19    0.26
   8 -13   3   -0.52    0.64
  -8 -13  -3    1.04    0.42
   8  13   3   -0.44    0.31
   8 -14  -3    1.13    0.73
  -8 -14   3    1.33    0.46
  -7 -14   3    0.87    0.42
   7 -14  -3    1.02    0.35
   7 -14  -3   -0.10    0.55
   6 -14  -3    1.39    0.31
   6 -14  -3    1.09    0.54
  -6 -14   3    1.16    0.38
   5 -14  -3   12.53    0.74
  -5 -14   3   10.96    0.70
   5 -14  -3   11.63    0.99
  -5 -14   3   11.64    0.81
   4 -14  -3    0.71    0.40
  -4 -14   3    0.85    0.31
   4 -14  -3    0.53    0.23
  -4 -14   3    1.09    0.23
  -3 -14   3    4.08    0.48
   3 -14  -3    3.69    0.56
   3 -14  -3    4.27    0.44
  -3 -14   3    3.90    0.36
   2 -14  -3   15.31    0.98
  -2 -14   3   15.15    0.80
   2 -14  -3   15.08    0.87
  -2 -14   3   14.87    0.89
  -1 -14   3    2.73    0.40
   1 -14  -3    1.76    0.33
   1 -14  -3    1.79    0.31
  -1 -14   3    2.31    0.29
   0 -14  -3    0.32    0.22
   0 -14  -3    0.13    0.23
   0 -14   3    0.39    0.20
   0 -14   3    0.70    0.24
   1 -14   3    1.05    0.30
   1 -14   3    0.85    0.25
  -1 -14  -3    1.10    0.28
  -1 -14  -3    0.94    0.20
   2 -14   3   27.36    1.53
   2 -14   3   29.68    1.47
  -2 -14  -3   28.36    1.49
  -2 -14  -3   28.28    1.37
   3 -14   3    0.62    0.28
  -3 -14  -3    0.66    0.28
  -3 -14  -3    1.05    0.17
   3 -14   3    1.04    0.40
  -4 -14  -3   24.01    1.36
   4 -14   3   23.82    1.44
   4 -14   3   26.74    1.31
   5 -14   3    0.69    0.29
  -5 -14  -3   -0.13    0.30
   5 -14   3    0.85    0.43
   6 -14   3    2.15    0.54
  -6 -14  -3    1.88    0.40
   6  14   3    1.17    0.30
   7 -14   3    2.60    0.65
  -7 -14  -3    2.09    0.47
   7  14   3    2.08    0.36
  -8 -14  -3    2.56    0.53
   8 -14   3    3.32    0.81
   8  14   3    1.66    0.57
   8 -15  -3    4.18    0.91
  -8 -15   3    3.00    0.60
   7 -15  -3    1.15    0.59
  -7 -15   3    1.43    0.47
  -6 -15   3    2.37    0.45
   6 -15  -3    2.26    0.38
   6 -15  -3    2.10    0.61
   5 -15  -3    4.63    0.76
  -5 -15   3    3.37    0.44
  -5 -15   3    3.06    0.48
   5 -15  -3    4.38    0.47
  -4 -15   3    2.31    0.39
   4 -15  -3    1.87    0.32
   4 -15  -3    1.72    0.50
  -4 -15   3    2.36    0.35
   3 -15  -3    4.16    0.67
   3 -15  -3    4.40    0.49
  -3 -15   3    4.78    0.52
  -3 -15   3    4.32    0.40
   2 -15  -3    5.53    0.70
  -2 -15   3    4.75    0.51
  -2 -15   3    4.31    0.38
   2 -15  -3    5.11    0.49
   1 -15  -3   13.11    0.83
   1 -15  -3   11.91    0.83
  -1 -15   3   12.81    0.81
  -1 -15   3   14.02    0.74
   0 -15  -3   46.60    2.37
   0 -15   3   48.55    2.41
   0 -15  -3   51.27    2.44
   0 -15   3   50.12    2.39
   1 -15   3   14.34    0.86
   1 -15   3   14.37    0.90
  -1 -15  -3   14.82    0.89
  -1 -15  -3   14.48    0.78
  -2 -15  -3    6.10    0.41
   2 -15   3    6.91    0.63
   2 -15   3    6.12    0.52
  -2 -15  -3    6.20    0.58
  -3 -15  -3    4.18    0.52
   3 -15   3    4.06    0.48
   3 -15   3    3.34    0.50
   4 -15   3    1.89    0.45
  -4 -15  -3    0.83    0.33
   4 -15   3    1.47    0.34
  -5 -15  -3    5.40    0.66
   5 -15   3    5.54    0.77
   6 -15   3    4.79    0.73
  -6 -15  -3    3.76    0.53
   7 -15   3    1.46    0.66
  -7 -15  -3    0.74    0.47
   7  15   3    0.45    0.35
  -7 -16   3    0.30    0.50
   7 -16  -3   -0.09    0.68
   6 -16  -3    0.24    0.37
  -6 -16   3   -1.07    0.44
   6 -16  -3    0.67    0.56
   5 -16  -3    7.67    0.92
  -5 -16   3    7.80    0.77
   5 -16  -3    9.44    0.69
  -4 -16   3    0.76    0.37
   4 -16  -3    0.60    0.31
   4 -16  -3    0.74    0.48
  -4 -16   3    1.34    0.28
   3 -16  -3   26.30    1.34
  -3 -16   3   24.15    1.27
   3 -16  -3   23.89    1.47
  -3 -16   3   25.13    1.40
   2 -16  -3   14.05    1.01
   2 -16  -3   15.13    0.90
  -2 -16   3   13.60    0.90
  -2 -16   3   14.40    0.80
  -1 -16   3   -0.09    0.29
   1 -16  -3   -0.52    0.30
  -1 -16   3    0.59    0.25
   1 -16  -3    0.00    0.26
   0 -16  -3   22.82    1.23
   0 -16   3   22.21    1.27
   0 -16   3   24.01    1.27
   0 -16  -3   24.65    1.32
  -1 -16  -3    3.83    0.52
  -1 -16  -3    3.60    0.37
   1 -16   3    3.72    0.50
   1 -16   3    3.52    0.48
  -2 -16  -3   13.77    0.94
  -2 -16  -3   13.21    0.73
   2 -16   3   14.54    0.86
   2 -16   3   13.95    0.93
   3 -16   3   14.46    1.00
   3 -16   3   12.68    0.85
  -3 -16  -3   14.71    0.96
   4 -16   3    0.03    0.32
  -4 -16  -3    0.44    0.37
   4 -16   3    0.03    0.43
  -5 -16  -3    1.62    0.43
   5 -16   3    1.01    0.52
  -6 -16  -3    0.18    0.44
   6 -16   3    0.70    0.58
   7 -16   3   -0.65    0.65
  -7 -16  -3    0.09    0.49
   6 -17  -3    1.91    0.66
  -6 -17   3    1.74    0.53
   6 -17  -3    2.42    0.48
  -5 -17   3    7.96    0.88
   5 -17  -3   11.27    0.82
   5 -17  -3   10.22    1.09
  -4 -17   3    0.30    0.39
   4 -17  -3   -0.05    0.32
  -4 -17   3    0.38    0.28
   4 -17  -3   -0.12    0.46
   3 -17  -3    0.63    0.34
  -3 -17   3    0.70    0.37
   3 -17  -3    1.17    0.47
  -3 -17   3    0.44    0.28
   2 -17  -3    0.52    0.39
  -2 -17   3    0.35    0.26
   2 -17  -3    0.56    0.31
  -2 -17   3    0.40    0.35
   1 -17  -3    0.83    0.41
   1 -17  -3    1.11    0.34
  -1 -17   3    0.88    0.33
  -1 -17   3    0.86    0.31
   0 -17   3    2.73    0.40
   0 -17  -3    3.80    0.47
   0 -17   3    3.79    0.49
   0 -17  -3    3.43    0.45
  -1 -17  -3    0.91    0.25
   1 -17   3    1.16    0.33
   1 -17   3    1.86    0.34
  -1 -17  -3    1.24    0.38
   2 -17   3    4.47    0.63
   2 -17   3    5.51    0.56
  -2 -17  -3    5.42    0.61
   3 -17   3    0.80    0.40
  -3 -17  -3    0.41    0.40
   3 -17   3    0.06    0.33
   4 -17   3   -0.44    0.37
   4 -17   3    0.04    0.47
  -4 -17  -3    0.43    0.41
  -5 -17  -3    2.65    0.56
   5 -17   3    3.12    0.63
   6 -17   3    0.73    0.65
  -6 -17  -3    0.69    0.50
  -6 -18   3    4.02    0.67
   6 -18  -3    3.89    0.81
   5 -18  -3    0.35    0.44
   5 -18  -3    0.29    0.64
  -5 -18   3    0.39    0.51
   4 -18  -3   -0.08    0.39
  -4 -18   3    0.00    0.48
   4 -18  -3    0.78    0.56
   3 -18  -3    6.88    0.84
   3 -18  -3    5.73    0.67
  -3 -18   3    5.43    0.74
  -3 -18   3    5.88    0.57
   2 -18  -3    1.38    0.47
   2 -18  -3    1.36    0.37
  -2 -18   3    0.62    0.31
  -2 -18   3    1.16    0.41
   1 -18  -3    9.56    0.79
  -1 -18   3    9.19    0.79
  -1 -18   3    9.02    0.67
   1 -18  -3    9.27    0.78
   0 -18   3    4.82    0.54
   0 -18  -3    4.37    0.55
   0 -18   3    4.42    0.53
   0 -18  -3    5.73    0.64
  -1 -18  -3    2.57    0.45
   1 -18   3    2.66    0.43
   1 -18   3    2.03    0.40
  -1 -18  -3    1.85    0.29
   2 -18   3    5.35    0.67
   2 -18   3    5.04    0.68
  -2 -18  -3    6.39    0.74
   3 -18   3    1.24    0.47
   3 -18   3    2.16    0.43
  -3 -18  -3    1.13    0.45
  -4 -18  -3   -0.19    0.47
   4 -18   3   -0.28    0.51
   5 -18   3    0.28    0.61
  -5 -18  -3   -0.27    0.49
   6 -18   3    2.50    0.83
  -6 -18  -3    3.81    0.65
   5 -19  -3    0.61    0.54
   5 -19  -3    1.61    0.79
  -5 -19   3    1.19    0.58
   4 -19  -3    8.02    0.89
   4 -19  -3    8.73    1.06
  -4 -19   3    8.20    0.93
  -3 -19   3    5.17    0.78
   3 -19  -3    6.61    0.76
   3 -19  -3    4.81    0.70
  -2 -19   3    3.17    0.48
   2 -19  -3    3.10    0.50
   2 -19  -3    2.94    0.57
  -2 -19   3    3.09    0.51
  -1 -19   3    1.24    0.34
  -1 -19   3    1.35    0.44
   1 -19  -3    0.53    0.43
   1 -19  -3    1.11    0.42
   0 -19  -3    2.81    0.45
   0 -19   3    2.15    0.47
   0 -19   3    2.72    0.43
   0 -19  -3    2.89    0.47
   1 -19   3    2.70    0.47
  -1 -19  -3    3.27    0.51
   1 -19   3    2.28    0.47
   2 -19   3    0.63    0.44
   2 -19   3    2.03    0.48
  -2 -19  -3    0.75    0.47
   3 -19   3    8.92    0.88
   3 -19   3    7.02    0.89
  -3 -19  -3    7.97    0.91
  -4 -19  -3    2.33    0.59
   4 -19   3    1.26    0.60
  -5 -19  -3    0.32    0.59
   5 -19   3    0.01    0.66
   4 -20  -3   -0.29    0.64
   4 -20  -3    0.81    0.55
  -4 -20   3   -0.28    0.58
   3 -20  -3    0.51    0.52
   3 -20  -3    0.18    0.59
  -3 -20   3   -0.30    0.54
  -2 -20   3    0.80    0.52
   2 -20  -3    0.38    0.49
  -2 -20   3    0.00    0.34
   2 -20  -3    0.10    0.45
   1 -20  -3    1.53    0.48
  -1 -20   3    1.82    0.39
   1 -20  -3    2.57    0.54
  -1 -20   3    1.51    0.53
   0 -20  -3    1.95    0.53
   0 -20   3    2.98    0.45
   0 -20   3    3.57    0.57
   0 -20  -3    2.69    0.58
   1 -20   3    1.16    0.50
  -1 -20  -3    2.25    0.56
   1 -20   3    0.26    0.43
  -2 -20  -3    3.17    0.61
   2 -20   3    3.04    0.57
   2 -20   3    3.33    0.58
  -3 -20  -3    0.07    0.52
   3 -20   3   -0.10    0.54
  -4 -20  -3    0.69    0.64
   4 -20   3    0.23    0.59
   2 -21  -3    2.95    0.63
  -2 -21   3    3.28    0.67
   2 -21  -3    4.23    0.67
  -1 -21   3    2.56    0.46
  -1 -21   3    2.43    0.65
   1 -21  -3    2.49    0.52
   1 -21  -3    3.60    0.65
   0 -21   3   -0.84    0.39
   0 -21   3   -0.53    0.58
   0 -21  -3   -0.54    0.54
   1 -21   3    5.96    0.75
  -1 -21  -3    6.53    0.96
   1 -21   3    5.06    0.75
  -2 -21  -3    2.17    0.63
   2 -21   3    3.76    0.68
   2 -21   3    1.85    0.55
  11   0  -4    0.10    0.52
  11   0  -4   -0.24    0.67
  11   0  -4   -0.61    0.43
  10   0  -4    2.79    0.62
  10   0  -4    2.36    0.40
   9   0  -4    0.38    0.26
   9   0  -4    0.16    0.25
   9   0  -4   -0.03    0.46
   8   0  -4    4.47    0.47
   8   0  -4    5.06    0.48
   7   0  -4    0.39    0.23
   7   0  -4    0.17    0.22
   6   0  -4    1.23    0.23
   6   0  -4    1.04    0.23
   5   0  -4   -0.11    0.13
   5   0  -4    0.12    0.13
   4   0  -4    0.61    0.14
   4   0  -4    0.59    0.14
   3   0  -4    0.04    0.09
   3   0  -4    0.05    0.09
   2   0  -4  118.62    5.46
   2   0  -4  115.91    5.46
   2   0  -4  120.92    5.45
   1   0  -4   -0.19    0.05
  -1   0   4   -0.13    0.05
  -1   0   4   -0.16    0.06
   1   0  -4   -0.09    0.06
  -1   0   4   -0.03    0.06
  -1   0  -4   -0.04    0.03
  -1   0  -4   -0.10    0.05
   1   0   4   -0.07    0.03
   1   0   4   -0.14    0.04
   1   0   4   -0.16    0.05
   2   0   4  233.12   10.87
   2   0   4  224.51   10.89
  -2   0  -4  249.78   10.84
   2   0   4  241.03   10.84
   3   0   4   18.39    1.02
  -3   0  -4   21.62    0.98
   3   0   4   21.76    0.98
  -4   0  -4   58.00    2.69
   4   0   4   59.22    2.70
   4   0   4   57.04    2.76
  -5   0  -4   -0.11    0.08
   5   0   4    0.36    0.19
   6   0   4   11.33    0.73
  -6   0  -4   10.36    0.57
   7   0   4    0.16    0.35
  -8   0  -4    1.28    0.25
   8   0   4    0.88    0.36
   8   0   4    0.88    0.33
   8   0   4    1.18    0.52
   9   0   4   -0.24    0.48
   9   0   4   -0.35    0.29
   9   0   4   -0.11    0.36
   9   0   4    0.06    0.28
  10   0   4   -0.37    0.44
  10   0   4    0.41    0.57
  11   0   4   -0.28    0.77
  11   0   4    0.19    0.58
  11  -1  -4    6.82    0.78
  11  -1  -4    6.33    1.09
  11   1  -4    5.83    0.76
  11   1  -4    7.17    0.95
  11   1  -4    5.31    0.84
  10  -1  -4    0.15    0.32
  10  -1  -4    0.45    0.56
  10   1  -4    0.39    0.34
  10   1  -4    0.34    0.56
  10   1  -4    0.84    0.35
   9  -1  -4    0.20    0.25
   9  -1  -4    0.18    0.48
   9   1  -4    0.02    0.28
   9   1  -4    0.80    0.30
   8  -1  -4    7.55    0.55
   8   1  -4    7.06    0.60
   8   1  -4    7.77    0.60
   7  -1  -4   10.33    0.64
   7  -1  -4   10.39    0.65
   7   1  -4    9.31    0.68
   7   1  -4    9.10    0.68
   6  -1  -4   10.31    0.63
   6  -1  -4   10.64    0.63
  -6  -1   4   10.35    0.60
   5  -1  -4    0.82    0.16
   5  -1  -4    0.87    0.16
  -5  -1   4    0.75    0.15
   4  -1  -4  110.75    5.17
   4  -1  -4  111.85    5.17
  -4  -1   4  112.03    5.16
   3  -1  -4  128.86    5.97
   3  -1  -4  129.65    5.96
  -3  -1   4  129.37    5.95
  -2  -1   4   18.42    0.86
   2  -1  -4   17.93    0.86
   2   1  -4   16.71    0.86
  -2   1   4   18.25    0.87
  -1  -1   4  104.38    4.88
   1  -1  -4  104.13    4.88
  -1  -1   4  100.73    4.88
   1   1  -4  110.31    4.86
  -1   1   4  109.50    4.89
   1   1  -4  107.83    4.88
  -1  -1  -4   64.12    3.32
   1  -1   4   79.17    3.31
   1  -1   4   68.42    3.33
  -1  -1  -4   70.76    3.32
   1   1   4   74.34    3.34
   1   1   4   71.44    3.32
   1   1   4   76.50    3.32
  -1   1  -4   74.15    3.31
   2  -1   4   27.05    1.20
  -2  -1  -4   26.69    1.22
   2  -1   4   22.08    1.24
   2   1   4   26.30    1.21
   2   1   4   24.55    1.22
  -2   1  -4   28.87    1.20
   2   1   4   25.45    1.26
   3  -1   4  111.29    5.32
  -3  -1  -4  122.40    5.28
   3  -1   4  125.18    5.26
   3   1   4  109.13    5.32
   3   1   4   98.87    5.29
  -3   1  -4  118.62    5.26
   3   1   4  117.34    5.27
  -4  -1  -4   25.47    1.19
   4  -1   4   25.37    1.18
   4  -1   4   24.42    1.27
   4   1   4   23.67    1.24
   4   1   4   23.96    1.26
  -4   1  -4   26.33    1.18
  -5  -1  -4    0.43    0.12
   5  -1   4    0.59    0.22
   5   1   4    0.06    0.17
  -5   1  -4    0.48    0.10
   5   1   4    0.19    0.19
   6  -1   4    2.86    0.44
  -6  -1  -4    2.68    0.26
   6   1   4    2.60    0.36
   6   1   4    2.05    0.32
  -6   1  -4    2.29    0.22
   7  -1   4    0.20    0.19
   7  -1   4    0.71    0.19
  -7  -1  -4    0.48    0.18
   7  -1   4    0.16    0.36
   7   1   4    0.61    0.33
   7   1   4    0.35    0.33
   8  -1   4   16.91    1.17
   8  -1   4   15.59    0.89
  -8  -1  -4   14.83    0.87
   8  -1   4   15.34    0.88
   8   1   4   17.07    1.16
   8   1   4   14.57    1.03
   9  -1   4    0.48    0.30
   9  -1   4    1.27    0.49
  -9  -1  -4    0.14    0.24
   9  -1   4    0.74    0.39
   9  -1   4    1.10    0.32
   9   1   4    0.89    0.39
   9   1   4    0.31    0.47
  10  -1   4    0.05    0.60
  10  -1   4    0.34    0.46
  10   1   4    1.10    0.44
  10   1   4    0.79    0.49
  10   1   4    1.13    0.60
  10   1   4    0.86    0.46
  11  -1   4   -1.21    0.55
  11  -1   4   -0.62    0.77
  11   1   4    0.20    0.54
  11   1   4   -0.03    0.79
  11  -2  -4    0.59    0.45
  11  -2  -4    2.39    0.77
  11   2  -4    0.76    0.53
  11   2  -4    2.51    0.57
  11   2  -4    0.90    0.53
  11   2  -4    1.42    0.78
  10  -2  -4    0.39    0.32
  10  -2  -4    0.65    0.56
  10   2  -4    1.01    0.56
  10   2  -4    0.37    0.37
  10   2  -4    0.68    0.35
  10   2  -4    1.03    0.37
   9  -2  -4    0.57    0.26
   9  -2  -4    1.00    0.52
   9   2  -4    0.38    0.30
   9   2  -4    1.13    0.31
   9   2  -4   -0.11    0.33
  -8  -2   4    1.41    0.27
   8  -2  -4    1.79    0.28
   8  -2  -4    0.96    0.46
   8   2  -4    0.45    0.32
   8   2  -4    1.41    0.35
   7  -2  -4    2.31    0.34
  -7  -2   4    2.08    0.32
   6  -2  -4    0.84    0.20
  -6  -2   4    0.74    0.19
   5  -2  -4    3.16    0.26
  -5  -2   4    2.30    0.26
  -4  -2   4    0.95    0.14
   4  -2  -4    1.27    0.19
   3  -2  -4    5.49    0.33
  -3  -2   4    5.64    0.33
   2  -2  -4   72.87    2.96
  -2  -2   4   60.82    2.96
  -2  -2   4   57.26    2.95
  -2   2   4   64.36    2.97
   1  -2  -4   50.84    2.49
  -1  -2   4   53.62    2.49
  -1  -2   4   53.20    2.49
  -1   2   4   55.19    2.50
   1   2  -4   56.48    2.50
  -1  -2  -4    2.77    0.17
   1  -2   4    2.30    0.19
   1   2   4    2.52    0.17
  -2  -2  -4   25.23    1.14
   2  -2   4   23.21    1.17
   2   2   4   23.44    1.13
   2   2   4   25.55    1.17
   2   2   4   22.87    1.12
   3  -2   4   11.55    0.61
  -3  -2  -4   14.18    0.65
   3  -2   4   11.90    0.61
   3  -2   4   11.93    0.69
   3  -2   4   14.77    0.61
   3   2   4   12.08    0.65
   3   2   4   14.06    0.69
   4  -2   4   63.18    2.87
  -4  -2  -4   63.38    2.89
   4  -2   4   62.86    2.87
   4  -2   4   65.93    2.87
   4  -2   4   60.23    2.96
   4   2   4   59.39    2.95
   4   2   4   59.35    2.92
  -5  -2  -4   12.79    0.63
   5  -2   4   12.21    0.74
   5  -2   4   12.05    0.61
   5  -2   4   10.52    0.62
   5  -2   4   11.77    0.61
   5   2   4   12.04    0.71
   5   2   4   11.28    0.70
   6  -2   4    4.26    0.48
   6  -2   4    4.63    0.33
   6  -2   4    4.98    0.33
  -6  -2  -4    4.55    0.34
   6   2   4    4.30    0.44
   6   2   4    4.60    0.48
   7  -2   4    4.86    0.38
   7   2   4    4.11    0.57
   8  -2   4    3.94    0.42
  -8  -2  -4    4.85    0.45
   8  -2   4    5.39    0.79
   8   2   4    3.87    0.58
   8   2   4    4.73    0.64
  -9  -2  -4    1.25    0.28
   9  -2   4    1.10    0.36
   9  -2   4    2.16    0.53
   9   2   4    2.18    0.41
   9   2   4    1.20    0.51
 -10  -2  -4    1.49    0.34
  10  -2   4    0.85    0.48
  10  -2   4    2.08    0.64
  10   2   4    1.51    0.47
  10   2   4    1.00    0.43
  10   2   4    1.95    0.45
  10   2   4    1.31    0.64
  11  -2   4    0.83    0.57
  11  -2   4   -0.80    0.75
  11   2   4   -0.67    0.90
  11   2   4   -0.02    0.55
  11  -3  -4   -0.03    0.42
  11  -3  -4    0.82    0.71
  11   3  -4    0.74    0.54
  11   3  -4    1.18    0.75
  11   3  -4   -0.44    0.52
  11   3  -4    0.78    0.55
  10  -3  -4    0.34    0.30
  10  -3  -4    0.15    0.62
  10   3  -4    1.09    0.39
  10   3  -4   -0.20    0.56
  10   3  -4    0.47    0.39
  10   3  -4    0.27    0.39
  -9  -3   4    7.30    0.57
   9  -3  -4    6.49    0.92
   9  -3  -4    7.27    0.55
   9   3  -4    6.81    0.71
   9   3  -4    8.39    0.71
   9   3  -4    7.38    0.71
   8  -3  -4    0.43    0.21
  -8  -3   4    0.34    0.22
   8  -3  -4    0.54    0.44
   8   3  -4    0.72    0.30
   7  -3  -4    4.80    0.65
   7  -3  -4    5.25    0.44
  -7  -3   4    5.41    0.42
   7   3  -4    5.43    0.50
  -6  -3   4    0.72    0.18
   6  -3  -4    0.85    0.19
  -5  -3   4    8.34    0.52
   5  -3  -4   10.02    0.53
   4  -3  -4    8.52    0.47
  -4  -3   4    8.71    0.49
   3  -3  -4   70.72    3.29
  -3  -3   4   72.92    3.30
   3   3  -4   68.71    3.27
   2  -3  -4   54.94    2.52
  -2  -3   4   51.71    2.52
  -2  -3   4   53.60    2.53
   2   3  -4   57.13    2.50
   1  -3  -4  187.36    8.75
  -1  -3   4  165.34    8.74
  -1  -3   4  190.53    8.76
   1   3  -4  204.66    8.76
  -1   3   4  206.72    8.76
   1  -3   4  160.54    7.67
   1  -3   4  177.50    7.64
  -1  -3  -4  162.80    7.66
   1   3   4  176.25    7.66
   1   3   4  162.99    7.65
  -1   3  -4  162.03    7.63
  -2  -3  -4    0.94    0.12
   2  -3   4    1.12    0.18
   2   3   4    1.04    0.08
  -3  -3  -4   29.24    1.37
   3  -3   4   31.87    1.33
   3  -3   4   27.45    1.42
   3  -3   4   28.05    1.33
   3   3   4   28.20    1.39
   3   3   4   27.34    1.36
   4  -3   4   41.63    1.83
   4  -3   4   41.45    1.84
  -4  -3  -4   39.30    1.87
   4  -3   4   38.10    1.94
   4   3   4   38.64    1.91
   4   3   4   37.61    1.89
   5  -3   4   19.23    0.91
   5  -3   4   19.31    0.91
  -5  -3  -4   18.62    0.94
   5  -3   4   17.90    1.04
   5   3   4   18.83    1.00
   5   3   4   17.92    0.99
   6  -3   4   11.79    0.83
  -6  -3  -4   11.75    0.67
   6  -3   4   11.70    0.62
   6   3   4   11.57    0.75
   6   3   4   13.25    0.76
   7  -3   4   26.41    1.51
   7  -3   4   25.72    1.25
  -7  -3  -4   23.20    1.28
   7   3   4   24.54    1.41
   7   3   4   26.84    1.39
  -8  -3  -4    2.49    0.38
   8  -3   4    2.44    0.29
   8  -3   4    2.38    0.54
   8   3   4    2.69    0.47
   8   3   4    2.65    0.43
  -9  -3  -4    9.68    0.66
   9  -3   4    9.99    0.99
   9   3   4    8.92    1.03
   9   3   4    9.55    0.83
 -10  -3  -4    0.36    0.32
  10  -3   4    0.84    0.61
  10   3   4   -0.04    0.62
  10   3   4   -0.30    0.40
  11  -4  -4    0.24    0.74
  11   4  -4   -0.82    0.53
  11   4  -4   -0.21    0.74
  11   4  -4    0.11    0.54
  10  -4  -4    0.43    0.59
  10  -4  -4   -0.25    0.30
  10   4  -4    1.18    0.42
  10   4  -4    0.33    0.39
  10   4  -4    0.66    0.42
  -9  -4   4    0.33    0.27
   9  -4  -4    0.79    0.24
   9  -4  -4    0.78    0.51
   9   4  -4    0.08    0.34
   8  -4  -4    3.54    0.36
   8  -4  -4    3.97    0.57
  -8  -4   4    3.99    0.41
   8   4  -4    3.43    0.48
   7  -4  -4    2.21    0.46
   7  -4  -4    2.35    0.29
  -7  -4   4    2.61    0.33
   7   4  -4    2.75    0.37
  -6  -4   4   21.44    1.10
   6  -4  -4   21.03    1.29
   6  -4  -4   20.28    1.08
   6   4  -4   22.19    1.11
   5  -4  -4    5.27    0.35
  -5  -4   4    4.95    0.38
   5   4  -4    5.87    0.38
  -4  -4   4    3.62    0.29
  -3  -4   4    7.16    0.40
  -3  -4   4    8.06    0.43
   3  -4  -4    6.76    0.40
  -2  -4   4   13.58    0.76
  -2  -4   4   15.43    0.75
   2  -4  -4   17.84    0.76
   2   4  -4   15.05    0.72
  -1  -4   4   25.06    1.16
  -1  -4   4   24.97    1.14
   1  -4  -4   24.57    1.15
   1   4  -4   22.70    1.16
   0  -4   4   48.56    2.16
   0  -4   4   44.56    2.16
   0  -4  -4   46.00    2.17
   0   4  -4   47.19    2.16
   0   4   4   46.84    2.17
  -1  -4  -4    9.82    0.50
   1  -4   4   10.37    0.48
   1  -4   4    9.53    0.52
  -1   4  -4    8.52    0.47
   1   4   4   10.92    0.50
   2  -4   4   13.95    0.76
  -2  -4  -4   14.54    0.72
   2  -4   4   15.01    0.68
   3  -4   4   24.36    1.24
   3  -4   4   26.89    1.13
   3  -4   4   23.18    1.13
  -3  -4  -4   25.53    1.18
   3   4   4   22.64    1.13
   3   4   4   24.63    1.19
   3   4   4   23.02    1.15
   4  -4   4   14.88    0.71
   4  -4   4   13.65    0.84
  -4  -4  -4   14.76    0.76
   4  -4   4   16.31    0.70
   4   4   4   15.78    0.79
   4   4   4   13.08    0.76
  -5  -4  -4    0.14    0.14
   5  -4   4   -0.39    0.21
   5  -4   4    0.18    0.11
   5  -4   4    0.24    0.09
   5   4   4    0.28    0.15
   5   4   4    0.02    0.19
   6  -4   4   44.76    2.24
   6  -4   4   45.17    2.05
  -6  -4  -4   44.15    2.10
   6   4   4   42.02    2.14
   6   4   4   41.78    2.15
   7  -4   4    8.88    0.80
   7  -4   4    7.81    0.48
  -7  -4  -4    7.94    0.56
   7   4   4    7.94    0.67
   7   4   4    8.61    0.66
   8  -4   4    4.57    0.38
  -8  -4  -4    4.91    0.45
   8  -4   4    6.33    0.79
   8   4   4    4.86    0.58
   8   4   4    5.21    0.62
   9  -4   4    0.95    0.55
  -9  -4  -4    1.02    0.29
   9   4   4    0.84    0.57
   9   4   4    1.02    0.35
 -10  -4  -4    5.35    0.61
  10  -4   4    4.57    0.78
  10   4   4    5.83    0.74
 -10  -5   4    7.29    0.66
  10  -5  -4    7.16    0.63
  10  -5  -4    8.98    1.12
  10   5  -4    6.90    0.77
   9  -5  -4    1.32    0.55
   9  -5  -4    1.15    0.25
  -9  -5   4    1.21    0.31
   9   5  -4    1.08    0.37
  -8  -5   4   14.42    0.85
   8  -5  -4   13.87    0.80
   8  -5  -4   14.99    1.10
   8   5  -4   14.81    0.88
   7  -5  -4   14.61    0.82
   7  -5  -4   14.18    1.05
  -7  -5   4   15.18    0.85
   7   5  -4   15.75    0.85
   6  -5  -4   38.12    2.03
   6  -5  -4   36.56    1.81
  -6  -5   4   37.27    1.84
   6   5  -4   38.10    1.83
   5  -5  -4    4.98    0.32
  -5  -5   4    4.31    0.37
   5  -5  -4    3.68    0.50
   5   5  -4    5.10    0.33
  -4  -5   4   36.17    1.76
   4  -5  -4   36.56    1.74
   4  -5  -4   35.71    1.87
   4   5  -4   37.68    1.72
   3  -5  -4   15.94    0.80
  -3  -5   4   15.17    0.80
  -3  -5   4   16.31    0.83
   3   5  -4   17.36    0.77
  -2  -5   4  109.41    5.01
  -2  -5   4  101.73    4.99
  -2  -5   4  112.93    5.03
   2  -5  -4  111.50    5.02
  -1  -5   4    1.89    0.18
   1  -5  -4    2.53    0.17
   1  -5  -4    1.41    0.23
   0  -5   4   66.80    3.20
   0  -5   4   71.86    3.20
   0  -5  -4   70.49    3.21
   0  -5  -4   68.59    3.21
   0   5  -4   68.44    3.19
  -1  -5  -4   33.46    1.52
   1  -5   4   31.46    1.53
  -1  -5  -4   30.15    1.48
   1  -5   4   34.37    1.49
  -1   5  -4   28.53    1.48
   1   5   4   34.21    1.51
  -2  -5  -4   66.86    3.16
   2  -5   4   64.02    3.19
   2  -5   4   69.66    3.12
  -2   5  -4   68.94    3.12
   2   5   4   70.00    3.16
   3  -5   4    3.64    0.19
   3  -5   4    3.80    0.33
  -3  -5  -4    3.04    0.25
  -3   5  -4    3.44    0.20
   3   5   4    2.92    0.21
   4  -5   4   28.34    1.28
   4  -5   4   29.18    1.27
  -4  -5  -4   26.60    1.33
   4  -5   4   26.67    1.42
   4   5   4   26.07    1.31
   4   5   4   26.81    1.35
   5  -5   4   11.93    0.57
  -5  -5  -4   11.14    0.64
   5  -5   4   10.55    0.76
   5  -5   4   12.29    0.56
   5   5   4   12.34    0.67
   5   5   4    9.58    0.64
   6  -5   4  116.76    5.37
  -6  -5  -4  107.18    5.21
   6  -5   4  116.87    5.14
   6   5   4  108.19    5.22
   6   5   4  109.54    5.25
  -7  -5  -4    9.16    0.59
   7  -5   4    8.97    0.80
   7  -5   4    9.21    0.50
   7   5   4    9.04    0.70
   7   5   4    7.24    0.68
  -8  -5  -4   -0.03    0.22
   8  -5   4    0.40    0.46
   8   5   4   -0.13    0.26
   8   5   4    0.18    0.36
   9  -5   4    0.66    0.55
  -9  -5  -4   -0.31    0.26
   9   5   4    0.17    0.31
   9   5   4    0.95    0.50
  10  -5   4    3.21    0.74
 -10  -5  -4    1.79    0.40
  10   5   4    2.65    0.45
  10  -6  -4   -0.34    0.63
  10  -6  -4   -0.17    0.31
 -10  -6   4   -0.09    0.34
  -9  -6   4    0.53    0.28
   9  -6  -4   -0.07    0.52
   9  -6  -4    0.21    0.25
   9   6  -4    0.37    0.34
   8  -6  -4   -0.09    0.44
   8  -6  -4   -0.09    0.19
  -8  -6   4    0.60    0.24
   8   6  -4   -0.10    0.22
   6  -6  -4    7.11    0.49
   6  -6  -4    6.77    0.74
  -6  -6   4    8.30    0.52
   6   6  -4    8.27    0.49
  -5  -6   4    5.91    0.44
   5  -6  -4    5.72    0.38
   5  -6  -4    6.23    0.60
   5   6  -4    6.72    0.38
   4  -6  -4    8.54    0.63
  -4  -6   4    8.07    0.52
  -4  -6   4    8.33    0.48
   4  -6  -4    8.39    0.47
   4   6  -4    9.21    0.45
  -3  -6   4   23.58    1.19
  -3  -6   4   23.02    1.16
   3  -6  -4   23.36    1.28
   3  -6  -4   24.47    1.16
   3   6  -4   26.09    1.13
   2  -6  -4   19.73    1.06
  -2  -6   4   19.78    0.99
   2  -6  -4   20.48    0.98
  -2  -6   4   20.21    0.97
  -1  -6   4    8.39    0.39
   1  -6  -4    7.22    0.40
   1  -6  -4    6.66    0.45
  -1  -6   4    7.21    0.41
   0  -6  -4    1.79    0.19
   0  -6   4    1.78    0.16
   0  -6  -4    1.41    0.16
   0  -6   4    1.92    0.16
   1  -6   4    7.40    0.37
   1  -6   4    6.88    0.42
  -1  -6  -4    7.53    0.40
  -1  -6  -4    6.65    0.35
   1   6   4    7.70    0.40
  -1   6  -4    5.79    0.35
  -2  -6  -4    0.37    0.12
   2  -6   4    0.71    0.09
   2  -6   4    0.70    0.17
  -2   6  -4    0.59    0.07
  -3  -6  -4   58.96    2.78
   3  -6   4   57.47    2.84
   3  -6   4   60.63    2.73
   3   6   4   58.80    2.77
  -3   6  -4   59.83    2.73
   4  -6   4    0.40    0.21
   4  -6   4    0.19    0.08
   4  -6   4    0.36    0.08
  -4  -6  -4   -0.03    0.13
   4   6   4    0.37    0.13
   4   6   4    0.20    0.12
   5  -6   4   16.24    1.01
   5  -6   4   17.40    0.80
  -5  -6  -4   16.75    0.89
   5  -6   4   16.51    0.80
   5   6   4   15.78    0.86
   5   6   4   16.61    0.89
  -6  -6  -4   12.32    0.73
   6  -6   4   13.09    0.93
   6  -6   4   12.64    0.63
   6   6   4   12.96    0.76
   6   6   4   11.80    0.74
  -7  -6  -4   14.17    0.82
   7  -6   4   14.73    0.72
   7  -6   4   15.13    1.07
   7   6   4   13.44    0.88
   7   6   4   13.35    0.87
  -8  -6  -4   -0.03    0.23
   8  -6   4   -0.45    0.47
   8   6   4    0.25    0.36
   8   6   4    0.12    0.24
  -9  -6  -4    0.14    0.29
   9  -6   4   -0.15    0.53
   9   6   4    0.42    0.30
 -10  -6  -4    0.40    0.36
  10  -6   4    0.43    0.68
  10   6   4   -0.25    0.38
  10  -7  -4    5.50    0.90
 -10  -7   4    3.82    0.52
   9  -7  -4    1.56    0.58
   9  -7  -4    0.62    0.27
  -9  -7   4    1.41    0.32
   9   7  -4    0.77    0.32
   8  -7  -4    2.36    0.32
  -8  -7   4    2.76    0.40
   8  -7  -4    1.64    0.50
   8   7  -4    2.92    0.38
   7  -7  -4   17.66    1.19
   7  -7  -4   17.53    0.94
  -7  -7   4   17.42    1.00
   7   7  -4   18.72    0.95
  -6  -7   4    1.81    0.25
   6  -7  -4    1.15    0.39
   6  -7  -4    1.79    0.24
   6   7  -4    2.20    0.25
   5  -7  -4    8.80    0.77
   5  -7  -4    9.25    0.54
  -5  -7   4   10.11    0.60
   5   7  -4   10.10    0.52
   4  -7  -4    0.93    0.29
   4  -7  -4    1.01    0.15
  -4  -7   4    1.22    0.19
  -4  -7   4    0.81    0.20
   4   7  -4    1.23    0.15
   3  -7  -4   40.53    1.92
   3  -7  -4   40.25    2.04
  -3  -7   4   39.01    1.92
  -3  -7   4   40.43    1.95
   3   7  -4   43.05    1.89
   2  -7  -4   68.35    3.32
  -2  -7   4   69.07    3.25
  -2  -7   4   68.94    3.22
   2  -7  -4   71.46    3.23
  -1  -7   4   49.18    2.26
   1  -7  -4   46.76    2.32
  -1  -7   4   48.94    2.28
   1  -7  -4   48.92    2.27
   0  -7  -4  109.27    4.83
   0  -7   4  104.56    4.82
   0  -7  -4   92.40    4.82
   0  -7   4  110.93    4.82
   1  -7   4    4.01    0.32
  -1  -7  -4    4.28    0.30
   1  -7   4    4.65    0.28
   1   7   4    4.79    0.30
   2  -7   4  299.76   13.16
  -2  -7  -4  286.97   13.20
   2  -7   4  286.77   13.24
   2   7   4  298.07   13.19
  -2   7  -4  266.40   13.15
   3  -7   4    3.96    0.23
  -3  -7  -4    3.21    0.30
   3  -7   4    3.56    0.36
  -3   7  -4    3.83    0.24
   3   7   4    3.81    0.28
  -4  -7  -4    5.76    0.41
   4  -7   4    5.58    0.49
   4  -7   4    5.87    0.31
  -4   7  -4    5.42    0.34
   4   7   4    5.77    0.38
  -4   7  -4    5.87    0.35
   4   7   4    5.49    0.30
   5  -7   4   26.99    1.42
   5  -7   4   25.47    1.19
   5  -7   4   27.35    1.18
  -5  -7  -4   24.32    1.27
   5   7   4   20.99    1.22
   5   7   4   24.86    1.26
   6  -7   4   29.57    1.31
  -6  -7  -4   26.86    1.40
   6  -7   4   28.22    1.57
   6   7   4   26.82    1.40
   6   7   4   25.68    1.38
   7  -7   4    3.02    0.51
  -7  -7  -4    2.58    0.33
   7  -7   4    2.54    0.26
   7   7   4    2.88    0.47
   7   7   4    2.45    0.37
   8  -7   4    5.15    0.89
  -8  -7  -4    5.62    0.53
   8   7   4    5.69    0.54
  -9  -7  -4    2.51    0.40
   9  -7   4    3.94    0.73
   9   7   4    3.31    0.56
  10  -7   4    2.82    0.76
 -10  -7  -4    1.68    0.44
  10   7   4    2.12    0.44
 -10  -8   4    4.86    0.69
  -9  -8   4    0.37    0.32
   9  -8  -4    0.01    0.27
   9  -8  -4    0.94    0.61
   8  -8  -4    4.14    0.65
  -8  -8   4    3.49    0.46
   8  -8  -4    3.45    0.37
   8   8  -4    3.70    0.42
  -7  -8   4    3.47    0.42
   7  -8  -4    2.30    0.30
   7  -8  -4    2.72    0.52
   7   8  -4    2.57    0.32
   6  -8  -4    5.98    0.68
  -6  -8   4    5.41    0.46
   6  -8  -4    5.02    0.42
   6   8  -4    5.95    0.38
  -5  -8   4   42.95    2.12
   5  -8  -4   41.64    2.27
   5  -8  -4   42.70    2.07
   5   8  -4   46.28    2.05
  -4  -8   4    8.05    0.48
  -4  -8   4    7.61    0.52
   4  -8  -4    8.36    0.48
   4  -8  -4    8.39    0.67
   4   8  -4    8.98    0.45
  -3  -8   4    0.29    0.17
   3  -8  -4    0.72    0.24
  -3  -8   4    0.41    0.12
   3  -8  -4    0.49    0.12
   2  -8  -4   31.21    1.63
  -2  -8   4   31.57    1.53
   2  -8  -4   34.19    1.55
  -2  -8   4   32.33    1.57
   1  -8  -4   25.06    1.24
  -1  -8   4   26.69    1.25
  -1  -8   4   26.15    1.22
   1  -8  -4   23.93    1.28
   0  -8  -4    1.23    0.17
   0  -8   4    1.05    0.14
   0  -8   4    1.16    0.17
   0  -8  -4    0.88    0.14
   1  -8   4    0.43    0.11
   1  -8   4    0.40    0.15
  -1  -8  -4    0.53    0.14
   2  -8   4    3.09    0.24
  -2  -8  -4    3.26    0.18
  -2  -8  -4    3.33    0.29
   2  -8   4    2.69    0.33
   2   8   4    3.38    0.28
   3  -8   4    4.83    0.45
   3  -8   4    5.25    0.31
  -3  -8  -4    5.37    0.40
  -3   8  -4    5.04    0.30
   3   8   4    5.27    0.35
   4  -8   4   27.87    1.52
  -4  -8  -4   28.99    1.43
   4  -8   4   30.11    1.36
   4   8   4   29.11    1.41
  -4   8  -4   27.44    1.37
  -5  -8  -4   21.94    1.12
   5  -8   4   20.71    1.26
   5  -8   4   21.18    1.04
   5  -8   4   22.28    1.02
   5   8   4   18.46    1.05
   5   8   4   22.28    1.09
  -6  -8  -4    1.48    0.27
   6  -8   4    1.83    0.41
   6  -8   4    1.44    0.22
   6   8   4    1.73    0.28
   6   8   4    1.56    0.25
  -7  -8  -4   -0.21    0.21
   7  -8   4   -0.13    0.41
   7   8   4    0.01    0.23
  -8  -8  -4    2.11    0.35
   8  -8   4    2.64    0.63
   8   8   4    2.54    0.33
  -9  -8  -4   10.08    0.80
   9  -8   4   12.99    1.23
   9   8   4   10.16    0.77
 -10  -8  -4    1.79    0.45
  10  -8   4    1.41    0.78
  10   8   4    1.77    0.44
 -10  -9   4    1.22    0.43
  10  -9  -4    0.17    0.77
  -9  -9   4    6.35    0.65
   9  -9  -4    5.99    0.54
   9  -9  -4    6.38    0.90
  -8  -9   4    1.18    0.32
   8  -9  -4    1.80    0.57
   8  -9  -4    1.12    0.24
   7  -9  -4    0.07    0.17
   7  -9  -4    1.18    0.45
  -7  -9   4    0.10    0.23
   7   9  -4    0.09    0.17
   6  -9  -4   34.06    1.66
  -6  -9   4   33.36    1.73
   6  -9  -4   32.92    1.91
   6   9  -4   35.76    1.64
   5  -9  -4   15.36    0.80
  -5  -9   4   15.16    0.84
   5  -9  -4   13.06    1.02
   5   9  -4   15.56    0.76
  -4  -9   4   17.12    0.88
  -4  -9   4   16.78    0.93
   4  -9  -4   17.16    0.89
   4  -9  -4   17.53    1.08
   4   9  -4   17.99    0.85
  -3  -9   4    1.15    0.24
  -3  -9   4    1.74    0.20
   3  -9  -4    1.64    0.21
   3  -9  -4    1.66    0.31
  -2  -9   4    9.84    0.52
   2  -9  -4   10.09    0.65
  -2  -9   4    8.66    0.57
   2  -9  -4   10.73    0.55
  -1  -9   4   10.53    0.57
   1  -9  -4    8.93    0.60
   1  -9  -4    9.89    0.56
  -1  -9   4   10.35    0.53
   0  -9  -4   17.83    0.94
   0  -9   4   18.28    0.93
   0  -9  -4   19.00    0.94
   0  -9   4   18.79    0.93
  -1  -9  -4    1.30    0.19
   1  -9   4    0.97    0.19
  -1  -9  -4    1.37    0.16
   1  -9   4    0.86    0.16
   2  -9   4    4.54    0.42
   2  -9   4    4.98    0.32
  -2  -9  -4    5.24    0.27
  -2  -9  -4    4.80    0.39
   2   9   4    5.10    0.36
   3  -9   4   59.52    3.01
   3  -9   4   65.92    2.89
  -3  -9  -4   61.56    2.95
   3   9   4   61.45    2.92
   4  -9   4    2.28    0.39
   4  -9   4    2.85    0.22
  -4  -9  -4    2.24    0.30
   4   9   4    2.16    0.27
  -5  -9  -4    8.21    0.56
   5  -9   4    8.13    0.46
   5  -9   4    7.65    0.69
   5   9   4    8.93    0.54
   6  -9   4    7.63    0.44
  -6  -9  -4    7.11    0.55
   6  -9   4    7.95    0.72
   6   9   4    7.75    0.55
   7  -9   4    0.83    0.46
  -7  -9  -4   -0.26    0.23
   7   9   4   -0.09    0.21
  -8  -9  -4    0.37    0.30
   8  -9   4    0.02    0.53
   8   9   4   -0.07    0.23
  -9  -9  -4    0.45    0.36
   9  -9   4    0.55    0.64
   9   9   4   -0.21    0.27
 -10  -9  -4    1.33    0.49
  10  -9   4    1.91    0.86
  10   9   4    0.63    0.41
   9 -10  -4    0.51    0.67
  -9 -10   4    0.52    0.38
   8 -10  -4    1.82    0.30
   8 -10  -4    2.39    0.61
  -8 -10   4    2.23    0.38
  -7 -10   4    0.46    0.27
   7 -10  -4    0.38    0.44
   7 -10  -4    0.22    0.18
   7  10  -4    0.18    0.18
   6 -10  -4    1.90    0.46
   6 -10  -4    1.87    0.25
  -6 -10   4    2.58    0.38
   6  10  -4    1.76    0.21
   5 -10  -4    0.04    0.34
   5 -10  -4    0.32    0.19
  -5 -10   4   -0.14    0.20
   5  10  -4    0.15    0.14
   4 -10  -4   -0.21    0.16
   4 -10  -4   -0.14    0.31
  -4 -10   4   -0.07    0.18
  -4 -10   4    0.04    0.14
   3 -10  -4    1.83    0.25
  -3 -10   4    1.26    0.20
  -3 -10   4    1.51    0.24
   3 -10  -4    1.64    0.32
  -2 -10   4    0.06    0.18
   2 -10  -4    0.14    0.22
   2 -10  -4    0.48    0.16
  -1 -10   4   28.67    1.32
   1 -10  -4   27.81    1.35
  -1 -10   4   26.97    1.35
   1 -10  -4   25.47    1.38
   0 -10   4    1.96    0.22
   0 -10  -4    1.69    0.26
   0 -10  -4    1.94    0.26
   0 -10   4    1.92    0.24
   1 -10   4    2.12    0.28
  -1 -10  -4    2.53    0.30
   1 -10   4    1.81    0.25
  -2 -10  -4   69.38    3.29
   2 -10   4   64.86    3.31
   2 -10   4   70.91    3.24
  -2 -10  -4   72.38    3.20
  -3 -10  -4    6.73    0.49
   3 -10   4    7.16    0.60
   3 -10   4    7.84    0.44
   3  10   4    7.59    0.48
  -4 -10  -4    9.70    0.64
   4 -10   4   10.98    0.56
   4 -10   4    9.45    0.76
   4  10   4   10.36    0.60
   5 -10   4    6.59    0.39
   5 -10   4    5.88    0.63
  -5 -10  -4    5.73    0.51
   5  10   4    5.57    0.44
   6 -10   4   11.20    0.90
   6 -10   4   12.01    0.61
  -6 -10  -4    9.69    0.69
   6  10   4   10.83    0.71
   7 -10   4    7.79    0.81
  -7 -10  -4    6.63    0.56
   7  10   4    6.36    0.51
  -8 -10  -4    3.03    0.41
   8 -10   4    2.19    0.60
   8  10   4    1.95    0.31
   9 -10   4    2.08    0.74
  -9 -10  -4    2.20    0.45
   9  10   4    1.38    0.35
   9 -11  -4    1.16    0.71
  -9 -11   4    0.50    0.39
   8 -11  -4    1.37    0.30
   8 -11  -4    0.75    0.59
  -8 -11   4    1.52    0.36
   7 -11  -4    2.54    0.34
   7 -11  -4    3.22    0.60
  -7 -11   4    1.83    0.36
  -6 -11   4    3.01    0.45
   6 -11  -4    2.34    0.49
   6  11  -4    2.30    0.31
   5 -11  -4   24.61    1.21
  -5 -11   4   23.42    1.21
  -5 -11   4   23.39    1.26
   5 -11  -4   23.21    1.43
  -4 -11   4    5.12    0.45
   4 -11  -4    5.49    0.66
  -4 -11   4    5.73    0.39
   4 -11  -4    5.42    0.43
   3 -11  -4    0.34    0.27
  -3 -11   4    0.43    0.14
  -3 -11   4    0.36    0.20
   3 -11  -4    0.53    0.20
  -2 -11   4    0.79    0.15
   2 -11  -4    0.40    0.25
  -2 -11   4    0.53    0.21
   2 -11  -4    0.90    0.20
   1 -11  -4   24.56    1.28
  -1 -11   4   27.09    1.25
   1 -11  -4   24.39    1.31
  -1 -11   4   25.70    1.29
   0 -11   4    6.46    0.43
   0 -11   4    6.61    0.44
   0 -11  -4    7.00    0.48
   0 -11  -4    6.25    0.44
  -1 -11  -4    2.62    0.32
   1 -11   4    2.61    0.29
   2 -11   4    5.16    0.38
  -2 -11  -4    5.02    0.30
   2 -11   4    5.59    0.50
  -2 -11  -4    5.23    0.43
   3 -11   4    1.05    0.19
  -3 -11  -4    0.81    0.22
   3 -11   4    0.86    0.32
  -3 -11  -4    1.35    0.15
   3  11   4    1.17    0.21
   4 -11   4    0.46    0.17
   4 -11   4    0.34    0.30
  -4 -11  -4    0.04    0.22
   4  11   4    0.51    0.20
   5 -11   4    8.57    0.49
   5 -11   4    8.94    0.75
  -5 -11  -4    7.10    0.58
   5  11   4    7.42    0.54
  -6 -11  -4    5.57    0.54
   6 -11   4    7.35    0.73
   6  11   4    6.63    0.52
  -7 -11  -4    3.72    0.50
   7 -11   4    3.78    0.65
   7  11   4    3.43    0.41
   8 -11   4    0.33    0.57
  -8 -11  -4   -0.05    0.35
   8  11   4    0.03    0.25
  -9 -11  -4    0.21    0.43
   9 -11   4    1.42    0.74
   9  11   4   -0.29    0.32
  -9 -12   4    0.83    0.42
   9 -12  -4    0.76    0.78
   8 -12  -4    2.61    0.36
  -8 -12   4    2.39    0.46
   8 -12  -4    2.86    0.67
   7 -12  -4    3.49    0.66
  -7 -12   4    2.59    0.40
   7 -12  -4    2.82    0.34
  -6 -12   4    5.80    0.63
   6 -12  -4    8.63    0.53
   6 -12  -4    7.23    0.83
   5 -12  -4    0.21    0.40
  -5 -12   4    0.66    0.22
   5 -12  -4    0.83    0.21
  -5 -12   4    0.74    0.27
   4 -12  -4    1.88    0.48
   4 -12  -4    2.03    0.27
  -4 -12   4    1.18    0.26
  -4 -12   4    1.99    0.29
   3 -12  -4    0.05    0.19
   3 -12  -4   -0.26    0.29
  -3 -12   4    0.22    0.15
  -3 -12   4    0.31    0.21
   2 -12  -4   10.71    0.73
   2 -12  -4   11.29    0.66
  -2 -12   4   10.35    0.66
  -2 -12   4   10.92    0.60
   1 -12  -4   30.43    1.54
   1 -12  -4   29.02    1.57
  -1 -12   4   32.30    1.50
  -1 -12   4   31.47    1.55
   0 -12   4    1.46    0.22
   0 -12  -4    1.60    0.24
   0 -12   4    1.32    0.24
   0 -12  -4    0.90    0.22
  -1 -12  -4    4.73    0.31
   1 -12   4    3.76    0.40
  -1 -12  -4    3.50    0.37
   2 -12   4    2.78    0.40
  -2 -12  -4    1.53    0.26
   2 -12   4    1.71    0.24
  -2 -12  -4    1.87    0.20
   3 -12   4    8.78    0.52
   3 -12   4    8.27    0.67
  -3 -12  -4    8.01    0.43
  -3 -12  -4    7.42    0.56
   4 -12   4   47.44    2.12
  -4 -12  -4   42.87    2.18
   4 -12   4   43.90    2.28
   4  12   4   42.30    2.15
  -5 -12  -4   44.83    2.28
   5 -12   4   45.82    2.39
   5 -12   4   49.35    2.19
   5  12   4   43.14    2.23
   6 -12   4    1.76    0.44
  -6 -12  -4    1.63    0.34
   6  12   4    1.28    0.26
   7 -12   4    3.09    0.62
  -7 -12  -4    2.95    0.42
   7  12   4    2.12    0.30
   8 -12   4   -0.52    0.64
  -8 -12  -4    0.23    0.40
   8  12   4    0.22    0.27
   9 -12   4    2.63    0.86
  -9 -12  -4    1.54    0.52
   9  12   4    2.84    0.43
  -8 -13   4   -0.21    0.38
   8 -13  -4    0.62    0.64
   7 -13  -4    0.76    0.56
   7 -13  -4    0.22    0.28
  -7 -13   4    0.53    0.34
   6 -13  -4    0.36    0.23
  -6 -13   4    0.07    0.31
   6 -13  -4    0.77    0.47
   5 -13  -4    4.00    0.41
  -5 -13   4    3.32    0.39
   5 -13  -4    3.65    0.57
  -5 -13   4    3.29    0.42
  -4 -13   4    2.05    0.34
  -4 -13   4    3.24    0.34
   4 -13  -4    2.20    0.48
   4 -13  -4    2.63    0.37
   3 -13  -4    1.32    0.25
  -3 -13   4    1.49    0.22
  -3 -13   4    1.50    0.29
   3 -13  -4    1.36    0.41
  -2 -13   4    5.01    0.46
  -2 -13   4    5.36    0.37
   2 -13  -4    5.13    0.45
   2 -13  -4    4.76    0.53
  -1 -13   4    0.39    0.16
   1 -13  -4    0.02    0.24
   1 -13  -4    0.07    0.20
  -1 -13   4   -0.01    0.22
   0 -13   4   10.11    0.64
   0 -13  -4    9.90    0.62
   0 -13   4    9.87    0.59
   0 -13  -4    8.30    0.59
  -1 -13  -4    0.84    0.17
   1 -13   4    0.71    0.25
   1 -13   4    0.39    0.23
  -1 -13  -4    0.76    0.23
   2 -13   4   40.71    2.19
  -2 -13  -4   42.56    2.15
   2 -13   4   45.41    2.11
  -2 -13  -4   44.78    2.03
   3 -13   4   17.91    0.94
  -3 -13  -4   15.98    0.84
   3 -13   4   16.99    1.07
  -3 -13  -4   18.43    1.00
   4 -13   4   33.52    1.63
   4 -13   4   32.48    1.81
  -4 -13  -4   33.68    1.72
   5 -13   4    2.12    0.45
  -5 -13  -4    1.00    0.32
   5 -13   4    1.06    0.24
   5  13   4    0.68    0.28
   6 -13   4    0.27    0.45
  -6 -13  -4    0.02    0.30
   6  13   4   -0.18    0.22
  -7 -13  -4    2.80    0.45
   7 -13   4    3.24    0.65
   7  13   4    1.73    0.33
  -8 -13  -4    2.96    0.53
   8  13   4    2.61    0.39
   8 -14  -4    0.83    0.72
  -8 -14   4    0.20    0.43
  -7 -14   4    6.32    0.73
   7 -14  -4    7.37    0.98
   7 -14  -4    8.00    0.67
   6 -14  -4    1.09    0.30
   6 -14  -4    1.04    0.53
  -6 -14   4    0.89    0.39
   5 -14  -4    0.24    0.25
  -5 -14   4    0.26    0.26
  -5 -14   4    0.46    0.31
   5 -14  -4    0.30    0.46
  -4 -14   4    3.13    0.36
  -3 -14   4    0.37    0.18
  -3 -14   4    0.42    0.26
   3 -14  -4   -0.02    0.22
   3 -14  -4    0.29    0.44
   2 -14  -4   14.90    0.96
  -2 -14   4   14.91    0.80
   2 -14  -4   15.33    0.87
  -2 -14   4   14.80    0.88
   1 -14  -4    0.78    0.28
  -1 -14   4    0.99    0.22
   1 -14  -4    1.00    0.27
   0 -14  -4   -0.08    0.22
   0 -14   4   -0.30    0.22
   0 -14   4    0.08    0.21
   0 -14  -4   -0.22    0.20
  -1 -14  -4    1.34    0.31
   1 -14   4    2.62    0.44
  -1 -14  -4    1.92    0.24
   1 -14   4    2.73    0.41
  -2 -14  -4    0.97    0.17
   2 -14   4    0.82    0.29
  -2 -14  -4    0.52    0.27
   2 -14   4    0.64    0.31
  -3 -14  -4    0.08    0.25
   3 -14   4   -0.41    0.31
   3 -14   4    0.00    0.27
  -3 -14  -4    0.35    0.17
   4 -14   4    5.32    0.51
  -4 -14  -4    5.83    0.59
   5 -14   4    8.80    0.81
  -5 -14  -4    7.58    0.66
   5  14   4    6.53    0.58
   6 -14   4    0.74    0.50
  -6 -14  -4    0.54    0.36
   6  14   4    0.22    0.26
  -7 -14  -4    0.14    0.42
   7 -14   4    0.96    0.57
   7  14   4   -0.21    0.28
   8 -14   4    1.93    0.79
  -8 -14  -4    1.75    0.49
   8  14   4    1.10    0.38
   8 -15  -4    1.52    0.82
  -8 -15   4    1.34    0.52
   7 -15  -4    2.52    0.44
   7 -15  -4    2.97    0.71
  -7 -15   4    3.58    0.57
  -6 -15   4    0.51    0.43
   6 -15  -4    1.10    0.34
   6 -15  -4    0.61    0.56
   5 -15  -4    2.32    0.54
  -5 -15   4    2.35    0.43
   5 -15  -4    2.79    0.42
  -5 -15   4    2.46    0.36
   4 -15  -4    0.46    0.25
   4 -15  -4    0.59    0.44
  -4 -15   4    0.45    0.24
  -4 -15   4    0.51    0.33
  -3 -15   4    1.68    0.27
  -3 -15   4    1.39    0.34
   3 -15  -4    1.68    0.31
   3 -15  -4    1.97    0.47
   2 -15  -4    3.23    0.45
  -2 -15   4    2.28    0.36
  -2 -15   4    2.78    0.33
   2 -15  -4    2.87    0.48
   1 -15  -4    2.80    0.38
   1 -15  -4    3.27    0.51
  -1 -15   4    3.46    0.48
  -1 -15   4    3.91    0.38
   0 -15   4   13.77    0.81
   0 -15   4   13.74    0.84
   0 -15  -4   12.40    0.79
   0 -15  -4   14.00    0.85
   1 -15   4    1.23    0.29
   1 -15   4    1.53    0.34
  -1 -15  -4    0.74    0.30
  -1 -15  -4    1.68    0.23
  -2 -15  -4   16.33    1.00
  -2 -15  -4   16.13    0.83
   2 -15   4   16.89    0.95
   2 -15   4   16.25    1.01
   3 -15   4    2.14    0.34
   3 -15   4    1.95    0.39
  -3 -15  -4    1.23    0.36
   4 -15   4    0.44    0.42
   4 -15   4    0.70    0.34
  -4 -15  -4    1.13    0.34
   5 -15   4    1.66    0.48
  -5 -15  -4    1.23    0.39
  -6 -15  -4    0.52    0.41
   6 -15   4    0.52    0.54
  -7 -15  -4    0.52    0.46
   7 -15   4    0.64    0.63
   7  15   4   -0.28    0.34
   7 -16  -4    0.25    0.66
  -7 -16   4    0.29    0.51
   6 -16  -4    1.01    0.57
   6 -16  -4    0.58    0.37
  -6 -16   4    0.15    0.47
  -5 -16   4    1.18    0.32
   5 -16  -4    0.70    0.52
  -5 -16   4    1.13    0.42
   5 -16  -4    1.20    0.34
   4 -16  -4    0.01    0.29
  -4 -16   4    0.16    0.26
   4 -16  -4   -0.61    0.42
  -4 -16   4    0.15    0.35
  -3 -16   4    8.29    0.60
   3 -16  -4    8.43    0.83
  -3 -16   4    8.73    0.74
   3 -16  -4    9.08    0.65
  -2 -16   4    9.56    0.63
   2 -16  -4   10.76    0.91
  -2 -16   4    9.72    0.75
   2 -16  -4   10.01    0.71
  -1 -16   4    0.35    0.27
   1 -16  -4    0.18    0.28
  -1 -16   4    0.41    0.30
   1 -16  -4    0.42    0.31
   0 -16   4    1.19    0.32
   0 -16  -4    2.01    0.35
   0 -16  -4    1.26    0.29
  -1 -16  -4    0.99    0.33
  -1 -16  -4    0.77    0.22
   1 -16   4    1.04    0.31
   1 -16   4    1.14    0.31
   2 -16   4    2.80    0.36
   2 -16   4    3.46    0.55
  -2 -16  -4    2.91    0.32
  -2 -16  -4    3.42    0.45
  -3 -16  -4    8.57    0.77
   3 -16   4    7.76    0.75
   3 -16   4   10.63    0.72
  -4 -16  -4    3.80    0.51
   4 -16   4    3.60    0.45
   4 -16   4    4.13    0.67
  -5 -16  -4    3.38    0.50
   5 -16   4    3.56    0.63
   6 -16   4    3.66    0.70
  -6 -16  -4    3.09    0.56
   7 -16   4   -0.06    0.72
  -7 -16  -4   -0.51    0.50
  -6 -17   4    0.41    0.47
   6 -17  -4    0.41    0.66
   6 -17  -4   -0.04    0.42
  -5 -17   4    6.14    0.82
   5 -17  -4    5.76    0.94
   5 -17  -4    7.77    0.70
   4 -17  -4    0.57    0.49
  -4 -17   4    0.32    0.40
   4 -17  -4   -0.30    0.32
  -4 -17   4   -0.03    0.31
  -3 -17   4    5.06    0.52
   3 -17  -4    5.81    0.57
  -3 -17   4    4.69    0.66
   3 -17  -4    4.37    0.75
  -2 -17   4   -0.27    0.27
   2 -17  -4    0.19    0.31
  -2 -17   4   -0.06    0.34
   2 -17  -4    0.19    0.41
  -1 -17   4    8.59    0.72
   1 -17  -4    8.70    0.75
   1 -17  -4    9.30    0.72
  -1 -17   4    8.60    0.64
   0 -17  -4    0.38    0.28
   0 -17   4    0.20    0.28
   0 -17   4   -0.16    0.30
   0 -17  -4    0.43    0.35
   1 -17   4    9.24    0.69
  -1 -17  -4    8.17    0.55
  -1 -17  -4    8.54    0.71
   1 -17   4    7.66    0.69
   2 -17   4   -0.05    0.32
   2 -17   4    0.72    0.38
  -2 -17  -4    0.53    0.38
  -3 -17  -4    7.04    0.74
   3 -17   4    6.32    0.73
   3 -17   4    6.89    0.69
  -4 -17  -4    4.71    0.72
   4 -17   4    4.57    0.65
  -5 -17  -4    1.81    0.53
   5 -17   4    1.27    0.58
   6 -17   4    1.58    0.65
  -6 -17  -4    0.40    0.52
   6 -18  -4    3.12    0.79
  -6 -18   4    2.80    0.65
   6 -18  -4    4.02    0.90
   5 -18  -4    0.61    0.65
  -5 -18   4   -0.25    0.43
   5 -18  -4    0.73    0.45
  -4 -18   4    0.09    0.45
   4 -18  -4    0.17    0.57
   4 -18  -4    0.09    0.38
   3 -18  -4    0.16    0.51
   3 -18  -4    0.29    0.36
  -3 -18   4    0.28    0.31
  -3 -18   4   -0.39    0.40
   2 -18  -4    0.88    0.43
   2 -18  -4    0.49    0.33
  -2 -18   4    0.01    0.37
  -2 -18   4    0.18    0.28
  -1 -18   4    9.68    0.79
   1 -18  -4    8.35    0.79
  -1 -18   4    8.82    0.64
   1 -18  -4    8.76    0.75
   0 -18  -4    0.09    0.34
   0 -18   4    0.13    0.32
   0 -18  -4   -0.14    0.32
   0 -18   4   -0.10    0.33
   1 -18   4   10.82    0.81
   1 -18   4   12.26    0.86
  -1 -18  -4   11.70    0.88
   2 -18   4    0.31    0.37
   2 -18   4    1.60    0.41
  -2 -18  -4    0.74    0.38
   3 -18   4    1.76    0.49
   3 -18   4    1.32    0.44
  -3 -18  -4    0.96    0.48
   4 -18   4    0.15    0.49
  -4 -18  -4    0.54    0.48
  -5 -18  -4    1.86    0.54
   5 -18   4    2.63    0.67
   5 -19  -4    1.15    0.53
  -5 -19   4    0.73    0.56
   5 -19  -4   -0.10    0.68
   4 -19  -4    1.71    0.50
  -4 -19   4    1.52    0.51
   4 -19  -4    1.88    0.65
  -3 -19   4    1.96    0.38
   3 -19  -4    2.21    0.62
  -3 -19   4    1.90    0.50
   3 -19  -4    1.86    0.47
   2 -19  -4   14.32    1.11
  -2 -19   4   14.66    0.94
   2 -19  -4   17.20    1.09
  -2 -19   4   16.29    1.11
  -1 -19   4    7.09    0.81
  -1 -19   4    7.02    0.63
   1 -19  -4    7.60    0.76
   1 -19  -4    7.25    0.74
   0 -19   4   -0.15    0.35
   0 -19  -4    0.05    0.39
   0 -19  -4    0.22    0.33
   0 -19   4   -0.37    0.40
   1 -19   4    4.10    0.53
   1 -19   4    4.87    0.69
  -1 -19  -4    5.28    0.68
   2 -19   4   15.92    1.09
  -2 -19  -4   15.97    1.14
   2 -19   4   15.21    1.08
  -3 -19  -4    2.02    0.53
   3 -19   4    0.74    0.53
   3 -19   4    0.98    0.56
   4 -19   4   -0.13    0.56
  -4 -19  -4   -0.10    0.50
  -5 -19  -4    0.49    0.60
   5 -19   4   -0.67    0.64
   4 -20  -4    1.56    0.59
   4 -20  -4    0.36    0.69
  -4 -20   4    0.12    0.57
   3 -20  -4    0.82    0.60
   3 -20  -4    1.53    0.52
  -3 -20   4    0.11    0.51
   2 -20  -4    0.54    0.52
   2 -20  -4    1.16    0.51
  -2 -20   4    0.98    0.38
  -2 -20   4    1.15    0.52
   1 -20  -4    2.86    0.53
  -1 -20   4    3.08    0.46
   1 -20  -4    2.95    0.59
  -1 -20   4    2.90    0.57
   0 -20  -4    0.11    0.49
   0 -20   4   -0.05    0.37
   0 -20   4    0.41    0.49
  -1 -20  -4    2.86    0.57
   1 -20   4    2.64    0.54
   1 -20   4    2.94    0.49
   2 -20   4    6.34    0.81
  -2 -20  -4    8.54    0.94
   2 -20   4    6.69    0.91
  -3 -20  -4    0.32    0.51
   3 -20   4   -0.31    0.52
   2 -21  -4    0.64    0.56
  -2 -21   4    0.45    0.59
   2 -21  -4    2.01    0.63
  -1 -21   4   11.83    1.09
   1 -21  -4   11.83    1.07
  -1 -21   4    9.78    0.82
   0 -21   4   -0.07    0.41
   0 -21   4    0.12    0.59
   0 -21  -4    1.13    0.54
  -1 -21  -4   13.99    1.17
   1 -21   4   11.49    0.98
   1 -21   4   12.93    1.14
   2 -21   4    2.45    0.69
   2 -21   4    2.06    0.57
  -2 -21  -4    1.77    0.68
  11   0  -5    2.87    0.55
  11   0  -5    1.52    0.81
  10   0  -5   -0.13    0.32
  10   0  -5   -0.56    0.57
   9   0  -5    3.73    0.47
   9   0  -5    3.11    0.46
   8   0  -5    0.10    0.22
   8   0  -5    0.87    0.25
   7   0  -5  159.29    7.39
   7   0  -5  157.62    7.39
   6   0  -5    0.07    0.18
   6   0  -5   -0.11    0.18
   5   0  -5    1.24    0.20
   5   0  -5    1.16    0.19
   3   0  -5  192.27    8.78
   3   0  -5  189.40    8.78
   2   0  -5    0.84    0.13
  -1   0   5   38.76    1.91
  -1   0   5   41.73    1.92
   1   0  -5   43.58    1.90
   1   0  -5   40.15    1.92
  -1   0   5   41.52    1.92
   0   0  -5    0.03    0.04
   1   0   5    4.82    0.23
   1   0   5    4.18    0.22
   1   0   5    3.91    0.25
  -1   0  -5    4.03    0.21
  -2   0  -5    0.03    0.04
   2   0   5    0.05    0.09
   2   0   5   -0.02    0.08
   3   0   5  318.40   15.19
   3   0   5  309.34   15.21
  -3   0  -5  352.25   15.15
   3   0   5  345.35   15.15
   4   0   5    0.00    0.09
   4   0   5   -0.10    0.15
   5   0   5    3.66    0.37
  -5   0  -5    3.73    0.25
   6   0   5   -0.26    0.23
  -6   0  -5    0.04    0.12
   7   0   5   45.15    2.23
  -7   0  -5   42.65    2.05
   7   0   5   41.87    2.23
   8   0   5   -0.02    0.46
   8   0   5   -0.30    0.32
  -8   0  -5    0.13    0.20
   9   0   5    1.44    0.36
   9   0   5    1.58    0.34
   9   0   5    1.90    0.50
   9   0   5    1.11    0.42
  10   0   5    0.04    0.46
  10   0   5   -0.46    0.57
  11   0   5    2.49    0.85
  11   0   5    1.37    0.61
  11  -1  -5    0.99    0.46
  11  -1  -5    0.66    0.68
  11   1  -5    0.85    0.56
  11   1  -5    0.70    0.51
  11   1  -5    0.81    0.75
  10  -1  -5    2.80    0.63
  10  -1  -5    1.78    0.37
  10   1  -5    2.08    0.39
  10   1  -5    1.25    0.36
  10   1  -5    1.83    0.63
   9  -1  -5    5.13    0.52
   9  -1  -5    5.25    0.70
   9   1  -5    5.68    0.55
   9   1  -5    5.95    0.56
   8  -1  -5   22.05    1.18
   8   1  -5   21.44    1.21
   8   1  -5   21.77    1.22
   7  -1  -5    4.93    0.46
   7  -1  -5    5.24    0.47
   7   1  -5    4.09    0.49
   7   1  -5    6.07    0.51
   6  -1  -5    0.26    0.18
   6  -1  -5    0.17    0.18
  -6  -1   5   -0.10    0.17
   6   1  -5    0.13    0.20
   6   1  -5    0.55    0.21
  -5  -1   5    0.91    0.16
   5  -1  -5    0.95    0.17
   5  -1  -5    1.23    0.19
   4  -1  -5   29.27    1.41
   4  -1  -5   29.55    1.41
  -4  -1   5   27.96    1.39
  -3  -1   5   10.98    0.54
   3  -1  -5    9.50    0.54
  -2  -1   5    1.81    0.15
  -2  -1   5    1.99    0.15
   1   1  -5    7.05    0.38
   1   1  -5    7.45    0.35
   1   1  -5    7.04    0.38
   1   1  -5    7.03    0.37
   0  -1   5    5.04    0.26
   0  -1  -5    4.66    0.25
   0  -1   5    4.91    0.25
   0  -1   5    4.54    0.25
   0  -1   5    5.03    0.25
   0   1  -5    4.53    0.25
   0   1   5    4.57    0.24
   0   1  -5    3.99    0.25
   0   1   5    4.97    0.25
   1  -1   5   55.69    2.69
   1  -1   5   54.87    2.71
  -1  -1  -5   50.84    2.68
  -1  -1  -5   60.10    2.68
   1  -1   5   63.21    2.67
   1   1   5   63.41    2.68
  -1   1  -5   59.83    2.67
   1   1   5   53.06    2.70
   1   1   5   61.77    2.67
   2  -1   5    0.62    0.06
   2  -1   5    0.69    0.11
  -2  -1  -5    0.65    0.09
  -2   1  -5    0.70    0.06
   2   1   5    0.67    0.11
   2   1   5    0.86    0.08
   2   1   5    0.61    0.09
   3  -1   5    5.16    0.25
   3  -1   5    4.35    0.32
  -3  -1  -5    4.78    0.27
   3   1   5    4.81    0.26
   3   1   5    4.37    0.33
  -3   1  -5    4.82    0.25
   3   1   5    4.14    0.29
   4  -1   5   21.30    1.15
  -4  -1  -5   23.62    1.09
   4  -1   5   22.81    1.07
  -4   1  -5   24.64    1.07
   4   1   5   20.44    1.13
   4   1   5   22.19    1.16
  -5  -1  -5    1.82    0.20
   5  -1   5    2.07    0.33
   5   1   5    2.08    0.30
   5   1   5    1.94    0.32
  -5   1  -5    2.03    0.18
   6  -1   5    2.03    0.34
  -6  -1  -5    1.78    0.22
   6   1   5    1.09    0.29
   6   1   5    1.58    0.29
  -6   1  -5    1.62    0.20
   7  -1   5    4.73    0.62
  -7  -1  -5    5.48    0.39
   7  -1   5    4.38    0.41
   7  -1   5    5.11    0.40
   7   1   5    4.64    0.61
   7   1   5    5.45    0.59
  -8  -1  -5   26.25    1.43
   8  -1   5   29.89    1.46
   8  -1   5   31.57    1.72
   8  -1   5   28.05    1.45
   8   1   5   28.27    1.61
   8   1   5   29.01    1.66
   9  -1   5    4.82    0.76
   9  -1   5    8.09    0.86
  -9  -1  -5    5.40    0.50
   9  -1   5    6.87    0.63
   9  -1   5    6.04    0.65
   9   1   5    5.48    0.83
   9   1   5    7.93    0.79
  10  -1   5    0.09    0.46
  10  -1   5   -0.15    0.55
  10   1   5    0.31    0.45
  10   1   5    0.31    0.58
  11  -1   5    6.38    1.11
  11   1   5    7.43    1.05
  11  -2  -5    1.36    0.73
  11  -2  -5    0.80    0.42
  11   2  -5    0.97    0.51
  11   2  -5    0.67    0.76
  11   2  -5    0.46    0.55
  11   2  -5    0.19    0.49
  10  -2  -5    4.70    0.59
  10  -2  -5    5.09    0.79
  10   2  -5    6.37    0.66
  10   2  -5    4.56    0.75
   9  -2  -5    2.10    0.31
   9  -2  -5    2.54    0.58
   9   2  -5    1.47    0.37
   9   2  -5    1.20    0.35
   8  -2  -5    5.46    0.47
   8   2  -5    5.76    0.58
   8   2  -5    5.77    0.58
  -7  -2   5    9.00    0.55
   7  -2  -5    7.57    0.55
   6  -2  -5   25.00    1.29
  -6  -2   5   25.91    1.28
   5  -2  -5   33.57    1.62
  -5  -2   5   33.05    1.61
   4  -2  -5   22.11    1.10
  -4  -2   5   22.42    1.10
  -3  -2   5  122.06    5.55
   3  -2  -5  118.14    5.55
  -2  -2   5   15.67    0.81
  -2  -2   5   17.01    0.82
   2  -2  -5   17.50    0.82
  -1  -2   5   68.81    3.13
  -1  -2   5   68.00    3.13
   1  -2  -5   66.58    3.13
  -1   2   5   66.91    3.13
   1   2  -5   68.52    3.13
   0  -2  -5    4.40    0.24
   0  -2  -5    3.91    0.24
   0  -2   5    4.13    0.24
   0  -2   5    4.36    0.24
   0  -2   5    4.40    0.24
   0   2   5    4.67    0.25
   0   2  -5    4.51    0.24
   0   2   5    5.15    0.25
  -1  -2  -5   67.79    3.42
  -1  -2  -5   73.34    3.44
   1  -2   5   70.52    3.45
  -1   2  -5   77.51    3.42
   1   2   5   77.19    3.46
  -1   2  -5   78.17    3.42
   1   2   5   77.69    3.42
   1   2   5   76.09    3.44
   2  -2   5    0.85    0.14
  -2  -2  -5    0.84    0.11
  -2  -2  -5    1.15    0.14
   2   2   5    1.24    0.15
   2   2   5    1.02    0.10
   3  -2   5   42.89    1.82
   3  -2   5   39.08    1.90
  -3  -2  -5   41.07    1.86
   3   2   5   36.24    1.85
   3   2   5   38.60    1.90
   4  -2   5   28.87    1.31
   4  -2   5   28.76    1.31
   4  -2   5   28.52    1.30
  -4  -2  -5   29.39    1.33
   4  -2   5   26.31    1.40
   4   2   5   25.19    1.35
   4   2   5   27.00    1.39
  -5  -2  -5   18.37    0.91
   5  -2   5   17.09    1.01
   5  -2   5   18.27    0.88
   5  -2   5   18.94    0.89
   5  -2   5   19.04    0.90
   5   2   5   16.97    0.96
   5   2   5   18.70    1.00
   6  -2   5    0.99    0.15
  -6  -2  -5    0.86    0.17
   6  -2   5    0.30    0.27
   6  -2   5    0.68    0.15
   6   2   5    0.60    0.26
   6   2   5    0.98    0.24
   7  -2   5   17.51    0.92
   7  -2   5   17.75    1.17
   7  -2   5   17.94    0.93
  -7  -2  -5   19.68    0.95
   7   2   5   19.72    1.12
   7   2   5   14.53    1.04
   8  -2   5    3.10    0.56
   8  -2   5    3.04    0.38
  -8  -2  -5    3.71    0.41
   8   2   5    4.21    0.57
   8   2   5    2.95    0.50
  -9  -2  -5    0.83    0.28
   9  -2   5    1.32    0.51
   9   2   5    1.97    0.51
   9   2   5    1.25    0.39
  10  -2   5    0.61    0.46
 -10  -2  -5    0.75    0.34
  10  -2   5    0.13    0.58
  10   2   5    0.08    0.42
  10   2   5    0.16    0.59
  11  -3  -5    6.51    0.76
  11  -3  -5    7.98    1.20
  11   3  -5    7.59    1.03
  11   3  -5    6.96    1.17
  11   3  -5    6.78    0.93
  10  -3  -5    1.72    0.35
  10  -3  -5    2.33    0.61
  10   3  -5    2.15    0.43
  10   3  -5    1.47    0.46
  10   3  -5    1.29    0.43
   9  -3  -5    0.13    0.50
   9  -3  -5    0.45    0.24
   9   3  -5    0.63    0.32
   9   3  -5    0.47    0.33
   9   3  -5    0.27    0.37
  -8  -3   5   21.47    1.12
   8  -3  -5   21.14    1.11
   8  -3  -5   20.00    1.34
   8   3  -5   20.83    1.20
   7  -3  -5    7.70    0.53
  -7  -3   5    7.67    0.51
   6  -3  -5   13.64    0.75
  -6  -3   5   12.99    0.74
  -5  -3   5    0.25    0.14
   5  -3  -5    0.19    0.12
  -4  -3   5    0.33    0.11
   3  -3  -5    3.01    0.22
  -3  -3   5    3.38    0.23
  -3  -3   5    2.63    0.22
  -2  -3   5   28.71    1.34
  -2  -3   5   27.51    1.33
   2  -3  -5   27.96    1.33
  -1  -3   5   10.82    0.52
  -1  -3   5   10.40    0.53
   1  -3  -5   10.67    0.52
   1   3  -5   10.30    0.53
   0  -3   5   17.35    0.83
   0  -3   5   16.95    0.82
   0  -3  -5   16.74    0.83
   0   3  -5   17.37    0.82
   0   3   5   16.54    0.83
   0   3   5   17.43    0.84
  -1  -3  -5    6.15    0.28
  -1  -3  -5    5.64    0.32
   1  -3   5    5.44    0.33
   1  -3   5    6.00    0.29
  -1   3  -5    5.89    0.29
   1   3   5    5.36    0.31
   1   3   5    6.96    0.33
  -2  -3  -5   16.77    0.80
   2  -3   5   15.74    0.83
   3  -3   5   21.12    1.10
  -3  -3  -5   22.64    1.05
   3   3   5   22.73    1.09
   3   3   5   20.64    1.04
   4  -3   5    0.46    0.08
   4  -3   5    0.16    0.18
   4   3   5    0.25    0.14
   5  -3   5    0.90    0.12
  -5  -3  -5    0.95    0.16
   5  -3   5    0.80    0.25
   5  -3   5    0.97    0.14
   5   3   5    0.75    0.20
   5   3   5    0.77    0.19
  -6  -3  -5   22.19    1.09
   6  -3   5   22.47    1.24
   6  -3   5   21.20    1.05
   6   3   5   20.54    1.15
   6   3   5   21.67    1.18
  -7  -3  -5    0.40    0.21
   7  -3   5    0.31    0.40
   7  -3   5   -0.04    0.15
   7   3   5    0.69    0.29
   7   3   5   -0.05    0.30
   8  -3   5    9.14    0.91
   8  -3   5    8.97    0.56
  -8  -3  -5    9.20    0.61
   8   3   5    9.77    0.77
   8   3   5    8.31    0.80
   9  -3   5    0.95    0.53
  -9  -3  -5    0.52    0.26
   9   3   5    0.47    0.35
   9   3   5    0.68    0.59
  10  -3   5   -0.66    0.61
 -10  -3  -5    0.10    0.33
  10   3   5   -0.06    0.40
  10   3   5    0.37    0.61
  11  -4  -5    2.08    0.46
  11  -4  -5    1.86    0.82
  11   4  -5    1.54    0.61
  11   4  -5    2.57    0.65
  11   4  -5    3.54    0.85
  10  -4  -5    1.80    0.66
  10  -4  -5    1.16    0.34
  10   4  -5    0.94    0.44
  10   4  -5    1.03    0.42
   9  -4  -5    1.06    0.26
   9  -4  -5    1.66    0.59
  -9  -4   5    1.48    0.31
   9   4  -5    0.97    0.39
  -8  -4   5    6.85    0.51
   8  -4  -5    6.63    0.48
   8  -4  -5    6.22    0.80
   8   4  -5    5.64    0.57
   7  -4  -5    7.43    0.52
   7  -4  -5    7.40    0.74
  -7  -4   5    8.07    0.54
   7   4  -5    8.38    0.56
   6  -4  -5    8.72    0.54
  -6  -4   5    8.84    0.54
   6   4  -5    8.39    0.55
  -5  -4   5    5.00    0.38
   5  -4  -5    5.11    0.35
   5   4  -5    5.37    0.36
  -4  -4   5   39.04    1.81
   4  -4  -5   39.01    1.80
   4   4  -5   35.23    1.78
  -3  -4   5    6.80    0.41
   3  -4  -5    7.06    0.40
  -3  -4   5    7.43    0.43
   3   4  -5    8.02    0.37
   2  -4  -5   95.78    4.47
  -2  -4   5  100.28    4.48
  -2  -4   5   94.60    4.46
  -1  -4   5   73.19    3.33
  -1  -4   5   71.85    3.32
   1  -4  -5   70.80    3.33
   0  -4   5    0.22    0.07
   0  -4   5    0.04    0.07
   0  -4  -5    0.08    0.07
   0   4   5    0.13    0.08
   0   4  -5    0.22    0.07
  -1  -4  -5   26.16    1.24
   1  -4   5   24.16    1.25
   1  -4   5   26.99    1.22
  -1   4  -5   24.33    1.21
   1   4   5   29.11    1.25
  -2  -4  -5    8.17    0.45
   2  -4   5    8.17    0.49
   2   4   5    9.14    0.46
  -3  -4  -5  114.87    5.18
   3  -4   5  113.87    5.23
   3   4   5  103.10    5.14
   3   4   5  116.82    5.20
   4  -4   5   11.88    0.52
   4  -4   5   10.39    0.67
  -4  -4  -5   11.43    0.59
   4   4   5   11.16    0.62
   4   4   5    9.48    0.57
   5  -4   5    7.06    0.37
   5  -4   5    6.69    0.55
   5  -4   5    7.03    0.36
  -5  -4  -5    6.98    0.43
   5   4   5    6.97    0.46
   5   4   5    6.95    0.48
   6  -4   5   30.07    1.35
  -6  -4  -5   27.54    1.41
   6  -4   5   30.02    1.37
   6  -4   5   28.84    1.57
   6   4   5   26.45    1.44
   6   4   5   27.92    1.48
   7  -4   5   36.29    1.66
   7  -4   5   37.98    1.93
  -7  -4  -5   33.00    1.71
   7   4   5   32.80    1.77
   7   4   5   34.07    1.82
  -8  -4  -5   11.78    0.76
   8  -4   5   13.45    1.01
   8   4   5   13.37    0.89
   8   4   5   12.19    0.89
  -9  -4  -5    0.80    0.29
   9  -4   5    0.16    0.52
   9   4   5    0.92    0.36
   9   4   5    0.99    0.53
  10  -4   5    0.57    0.65
 -10  -4  -5    1.60    0.39
  10   4   5    2.37    0.48
  10  -5  -5    0.19    0.31
 -10  -5   5    0.86    0.36
  10  -5  -5    1.85    0.65
  10   5  -5    0.16    0.50
   9  -5  -5    0.88    0.56
   9  -5  -5    1.61    0.26
  -9  -5   5    2.04    0.32
   9   5  -5    1.20    0.38
   8  -5  -5    2.98    0.54
  -8  -5   5    3.40    0.42
   8  -5  -5    2.78    0.34
   8   5  -5    2.84    0.43
  -7  -5   5   13.06    0.78
   7  -5  -5   12.93    0.96
   7  -5  -5   12.70    0.74
   7   5  -5   13.67    0.77
   6  -5  -5   28.50    1.67
  -6  -5   5   29.66    1.48
   6  -5  -5   29.27    1.46
   6   5  -5   30.40    1.46
  -5  -5   5    0.76    0.18
   5  -5  -5    0.42    0.13
   5   5  -5    0.70    0.14
  -4  -5   5    0.05    0.13
  -3  -5   5    5.12    0.32
   3  -5  -5    5.40    0.32
  -3  -5   5    5.05    0.35
   3   5  -5    5.78    0.27
  -2  -5   5    5.10    0.30
  -1  -5   5   90.06    4.29
   1  -5  -5   91.22    4.28
  -1  -5   5   97.21    4.28
   0  -5   5    1.40    0.14
   0  -5  -5    1.24    0.18
   0  -5   5    1.36    0.14
   0  -5  -5    1.46    0.15
   0   5  -5    1.53    0.13
  -1  -5  -5  143.51    6.36
   1  -5   5  146.63    6.33
   1  -5   5  130.78    6.37
   1   5   5  145.31    6.36
  -1   5  -5  124.32    6.32
   2  -5   5   18.81    1.00
   2  -5   5   20.07    0.92
  -2  -5  -5   19.43    0.97
   2   5   5   20.57    0.97
  -2   5  -5   19.90    0.92
  -3  -5  -5   22.40    1.08
   3  -5   5   21.43    1.13
   3   5   5   21.85    1.08
   4  -5   5   31.27    1.61
  -4  -5  -5   31.32    1.53
   4  -5   5   34.54    1.46
   4   5   5   28.73    1.49
   4   5   5   32.02    1.55
   5  -5   5   16.31    0.96
  -5  -5  -5   15.25    0.83
   5  -5   5   16.31    0.75
   5  -5   5   16.54    0.76
   5   5   5   15.89    0.86
   5   5   5   13.83    0.81
   6  -5   5   24.16    1.38
   6  -5   5   27.24    1.16
  -6  -5  -5   21.20    1.20
   6  -5   5   24.71    1.12
   6   5   5   20.89    1.21
   6   5   5   22.39    1.25
  -7  -5  -5    3.26    0.38
   7  -5   5    3.77    0.63
   7  -5   5    3.13    0.26
   7   5   5    3.33    0.47
   7   5   5    2.77    0.39
  -8  -5  -5    2.48    0.32
   8  -5   5    2.01    0.54
   8   5   5    2.71    0.44
   8   5   5    1.95    0.37
   9  -5   5   -0.51    0.52
  -9  -5  -5    0.17    0.28
   9   5   5   -0.27    0.31
 -10  -5  -5    0.34    0.36
  10  -5   5    0.37    0.65
  10   5   5    0.35    0.39
  10  -6  -5    0.32    0.33
 -10  -6   5    0.07    0.36
  10  -6  -5    0.18    0.68
   9  -6  -5    0.14    0.24
   9  -6  -5    0.13    0.56
  -9  -6   5    0.83    0.29
   9   6  -5    0.49    0.33
   8  -6  -5    1.03    0.47
  -8  -6   5    1.09    0.27
   8  -6  -5    0.74    0.20
   8   6  -5    0.86    0.24
   7  -6  -5   37.49    1.85
   7  -6  -5   36.04    2.07
  -7  -6   5   38.96    1.89
   7   6  -5   38.86    1.86
   6  -6  -5   34.05    1.80
   6  -6  -5   38.56    2.02
  -6  -6   5   37.72    1.84
   6   6  -5   38.58    1.79
   5  -6  -5    0.21    0.12
   5  -6  -5   -0.10    0.28
  -5  -6   5   -0.03    0.14
   5   6  -5    0.14    0.10
  -4  -6   5    3.07    0.31
   4  -6  -5    2.73    0.43
   4  -6  -5    3.78    0.26
  -4  -6   5    3.56    0.27
   4   6  -5    3.71    0.22
  -3  -6   5   31.55    1.56
  -3  -6   5   33.43    1.59
   3  -6  -5   31.53    1.67
   3  -6  -5   31.47    1.56
   3   6  -5   35.58    1.52
  -2  -6   5    1.18    0.14
   2  -6  -5    1.05    0.23
  -2  -6   5    0.84    0.14
  -2  -6   5    1.02    0.10
   2  -6  -5    1.13    0.15
  -1  -6   5    7.07    0.35
  -1  -6   5    6.09    0.37
   1  -6  -5    6.72    0.36
   1  -6  -5    5.44    0.42
   0  -6  -5   42.45    2.06
   0  -6   5   43.34    2.05
   0  -6   5   45.58    2.05
   0  -6  -5   43.63    2.06
  -1  -6  -5   13.24    0.68
  -1  -6  -5   12.87    0.63
   1  -6   5   14.41    0.65
   1  -6   5   13.13    0.69
   1   6   5   14.25    0.68
  -1   6  -5   11.40    0.63
  -2  -6  -5  149.25    6.87
   2  -6   5  142.99    6.90
   2  -6   5  159.16    6.83
  -2   6  -5  140.56    6.82
   2   6   5  153.37    6.87
   3  -6   5    3.87    0.20
  -3  -6  -5    3.39    0.28
   3  -6   5    3.42    0.34
  -3   6  -5    3.25    0.21
   3   6   5    3.80    0.27
  -4  -6  -5   -0.05    0.13
   4  -6   5    0.18    0.07
   4  -6   5    0.35    0.21
   4  -6   5    0.10    0.06
   4   6   5    0.08    0.12
   5  -6   5    2.71    0.45
  -5  -6  -5    3.65    0.35
   5  -6   5    3.99    0.24
   5  -6   5    3.94    0.22
   5   6   5    3.06    0.30
   5   6   5    4.03    0.35
   6  -6   5    0.04    0.36
  -6  -6  -5    0.27    0.20
   6  -6   5   -0.07    0.10
   6   6   5    0.10    0.22
   6   6   5    0.05    0.19
   7  -6   5   12.57    0.62
  -7  -6  -5   12.22    0.72
   7  -6   5   11.16    0.93
   7   6   5   12.58    0.80
   7   6   5   10.97    0.76
  -8  -6  -5    0.04    0.25
   8  -6   5    0.14    0.48
   8   6   5   -0.40    0.25
   8   6   5   -0.54    0.43
   9  -6   5    0.84    0.57
  -9  -6  -5    0.02    0.30
   9   6   5    0.16    0.30
 -10  -6  -5    0.88    0.38
  10  -6   5    0.52    0.68
  10   6   5    0.11    0.41
  10  -7  -5    0.20    0.33
  10  -7  -5   -0.49    0.68
 -10  -7   5    0.27    0.38
  -9  -7   5    0.25    0.30
   9  -7  -5    0.14    0.57
   9  -7  -5   -0.09    0.24
  -8  -7   5    7.34    0.58
   8  -7  -5    7.21    0.51
   8  -7  -5    8.34    0.90
   8   7  -5    8.08    0.55
   7  -7  -5   -0.12    0.17
  -7  -7   5   -0.17    0.20
   7  -7  -5   -0.52    0.37
   7   7  -5   -0.01    0.17
  -6  -7   5    8.92    0.59
   6  -7  -5    7.96    0.76
   6  -7  -5    8.58    0.55
   6   7  -5    9.34    0.51
   5  -7  -5    0.60    0.35
  -5  -7   5    0.68    0.19
   5  -7  -5    0.42    0.15
   5   7  -5    0.56    0.11
  -4  -7   5    5.51    0.42
   4  -7  -5    6.27    0.55
  -4  -7   5    5.76    0.38
   4  -7  -5    5.58    0.36
   4   7  -5    6.10    0.32
   3  -7  -5    6.04    0.51
  -3  -7   5    6.57    0.42
  -3  -7   5    6.36    0.38
   3  -7  -5    6.96    0.39
   2  -7  -5  258.79   11.68
  -2  -7   5  263.23   11.70
   2  -7  -5  257.67   11.76
  -2  -7   5  238.60   11.66
   1  -7  -5    0.15    0.17
  -1  -7   5    0.30    0.11
   0  -7  -5    3.37    0.30
   0  -7   5    4.37    0.28
   0  -7  -5    4.27    0.29
   0  -7   5    4.54    0.28
   1  -7   5   66.53    2.92
  -1  -7  -5   64.47    2.95
  -1  -7  -5   59.51    2.90
   1  -7   5   59.64    2.96
   1   7   5   65.05    2.95
  -2  -7  -5   26.05    1.26
   2  -7   5   25.14    1.30
   2  -7   5   27.19    1.21
  -2   7  -5   22.57    1.20
   2   7   5   27.33    1.25
  -3  -7  -5    0.51    0.16
   3  -7   5    0.51    0.20
   3  -7   5    0.69    0.09
  -3   7  -5    0.86    0.10
   3   7   5    0.50    0.12
  -4  -7  -5   26.14    1.32
   4  -7   5   24.40    1.39
   4  -7   5   26.68    1.24
  -4   7  -5   26.87    1.25
   4   7   5   26.44    1.31
  -4   7  -5   27.58    1.25
  -5  -7  -5    6.40    0.45
   5  -7   5    5.75    0.31
   5  -7   5    5.54    0.32
   5  -7   5    5.53    0.59
   5   7   5    5.02    0.36
   6  -7   5   28.33    1.59
  -6  -7  -5   27.73    1.43
   6  -7   5   30.40    1.32
   6   7   5   24.96    1.38
   6   7   5   28.87    1.45
  -7  -7  -5    0.62    0.24
   7  -7   5    1.30    0.45
   7   7   5    0.98    0.27
   7   7   5    0.76    0.30
  -8  -7  -5    4.77    0.55
   8  -7   5    6.36    0.83
   8   7   5    5.88    0.55
  -9  -7  -5    0.19    0.32
   9  -7   5    0.76    0.59
   9   7   5    0.45    0.31
 -10  -7  -5    1.90    0.46
  10  -7   5    3.70    0.81
  10   7   5    2.79    0.48
 -10  -8   5    4.90    0.72
  10  -8  -5    6.54    0.93
   9  -8  -5    3.09    0.73
  -9  -8   5    3.37    0.50
   9  -8  -5    2.33    0.34
  -8  -8   5    1.37    0.30
   8  -8  -5    0.48    0.49
   8  -8  -5    1.07    0.22
   8   8  -5    0.91    0.35
   7  -8  -5    3.00    0.33
   7  -8  -5    4.00    0.63
  -7  -8   5    2.92    0.40
   7   8  -5    3.64    0.34
   6  -8  -5   31.57    1.60
   6  -8  -5   32.35    1.84
  -6  -8   5   32.22    1.65
   6   8  -5   34.45    1.57
   5  -8  -5   33.48    1.64
  -5  -8   5   33.65    1.68
   5  -8  -5   31.30    1.84
   5   8  -5   35.87    1.59
   4  -8  -5    5.59    0.35
   4  -8  -5    4.60    0.53
  -4  -8   5    5.85    0.36
  -4  -8   5    5.55    0.41
   4   8  -5    4.61    0.30
  -3  -8   5    0.50    0.12
  -3  -8   5    0.31    0.17
   3  -8  -5    0.48    0.13
   3  -8  -5    0.38    0.23
   2  -8  -5    4.40    0.30
   2  -8  -5    2.99    0.39
  -2  -8   5    4.49    0.27
  -2  -8   5    3.87    0.32
   1  -8  -5   18.72    1.06
  -1  -8   5   20.60    1.02
  -1  -8   5   22.11    1.00
   1  -8  -5   20.59    1.02
   0  -8   5   12.34    0.62
   0  -8   5   12.00    0.62
   0  -8  -5   11.77    0.64
   0  -8  -5   11.38    0.64
  -1  -8  -5    7.81    0.47
   1  -8   5    7.88    0.44
   1  -8   5    7.92    0.49
  -1  -8  -5    8.04    0.41
  -2  -8  -5   81.77    3.94
   2  -8   5   88.54    3.90
   2  -8   5   81.08    3.98
   2   8   5   86.12    3.93
   3  -8   5    1.51    0.26
   3  -8   5    1.21    0.16
  -3  -8  -5    1.23    0.22
   3   8   5    1.50    0.21
  -3   8  -5    1.22    0.15
  -4  -8  -5    2.24    0.32
   4  -8   5    2.53    0.37
   4  -8   5    2.42    0.20
   4   8   5    2.51    0.27
  -4   8  -5    2.83    0.23
   5  -8   5   43.84    2.04
  -5  -8  -5   43.75    2.14
   5  -8   5   46.85    2.04
   5  -8   5   40.42    2.25
   5   8   5   43.89    2.12
  -6  -8  -5    9.20    0.60
   6  -8   5    9.58    0.47
   6  -8   5    8.44    0.80
   6   8   5    7.51    0.54
   6   8   5    9.28    0.62
   7  -8   5    1.29    0.45
  -7  -8  -5    0.46    0.23
   7   8   5    0.19    0.23
   8  -8   5    1.55    0.56
  -8  -8  -5    1.69    0.32
   8   8   5    0.94    0.27
  -9  -8  -5    2.54    0.40
   9  -8   5    3.52    0.70
   9   8   5    2.04    0.36
 -10  -8  -5    0.12    0.42
  10  -8   5    1.02    0.75
  10   8   5    0.12    0.38
 -10  -9   5    0.18    0.42
  10  -9  -5   -0.19    0.77
   9  -9  -5    0.41    0.63
  -9  -9   5    0.18    0.35
   9  -9  -5   -0.12    0.28
   8  -9  -5    3.86    0.39
  -8  -9   5    4.20    0.53
   8  -9  -5    4.00    0.69
   7  -9  -5    2.85    0.52
   7  -9  -5    2.28    0.31
  -7  -9   5    3.08    0.41
   7   9  -5    2.80    0.31
   6  -9  -5    9.29    0.85
   6  -9  -5    8.97    0.56
  -6  -9   5    9.09    0.62
   6   9  -5    9.97    0.53
  -5  -9   5    5.56    0.46
   5  -9  -5    5.83    0.42
   5  -9  -5    4.54    0.64
   5   9  -5    5.16    0.34
  -4  -9   5    0.32    0.18
  -4  -9   5    0.46    0.15
   4  -9  -5    0.96    0.33
   4  -9  -5    0.51    0.16
   3  -9  -5   46.21    2.11
   3  -9  -5   44.21    2.23
  -3  -9   5   44.17    2.09
  -3  -9   5   42.06    2.13
  -2  -9   5    2.44    0.21
  -2  -9   5    2.45    0.29
   2  -9  -5    2.26    0.36
   2  -9  -5    2.56    0.25
   1  -9  -5    1.91    0.23
   1  -9  -5    1.93    0.27
  -1  -9   5    2.14    0.23
   0  -9  -5   22.73    1.14
   0  -9   5   23.90    1.13
   0  -9  -5   22.08    1.14
   0  -9   5   22.84    1.13
   1  -9   5   19.39    0.94
  -1  -9  -5   19.64    0.98
  -1  -9  -5   18.42    0.91
   1  -9   5   18.23    0.98
   2  -9   5    4.82    0.31
   2  -9   5    4.48    0.41
  -2  -9  -5    4.74    0.38
   2   9   5    5.09    0.35
  -3  -9  -5    4.07    0.38
   3  -9   5    5.17    0.31
   3  -9   5    4.60    0.48
   3   9   5    4.96    0.36
   4  -9   5   16.90    0.77
  -4  -9  -5   14.42    0.85
   4  -9   5   15.63    0.99
   4   9   5   15.44    0.83
  -4   9  -5   15.43    0.78
  -5  -9  -5   65.55    3.22
   5  -9   5   67.39    3.34
   5  -9   5   71.23    3.13
   5   9   5   65.83    3.20
   6  -9   5   15.18    0.73
  -6  -9  -5   11.73    0.78
   6  -9   5   13.16    0.94
   6   9   5   11.81    0.78
   7  -9   5    2.33    0.47
  -7  -9  -5    2.01    0.32
   7   9   5    1.40    0.27
  -8  -9  -5    0.35    0.32
   8  -9   5    0.23    0.51
   8   9   5    0.16    0.24
  -9  -9  -5   -0.20    0.37
   9  -9   5    1.23    0.67
   9   9   5    0.26    0.29
   9 -10  -5    0.33    0.69
  -9 -10   5    0.36    0.38
   9 -10  -5    0.35    0.31
   8 -10  -5    0.06    0.23
   8 -10  -5    0.47    0.57
  -8 -10   5    0.70    0.32
   7 -10  -5    4.41    0.39
   7 -10  -5    5.84    0.79
  -7 -10   5    4.82    0.50
   6 -10  -5   17.97    0.94
  -6 -10   5   17.75    1.02
   6 -10  -5   17.15    1.19
   6  10  -5   18.74    0.91
   5 -10  -5    9.37    0.82
  -5 -10   5   10.25    0.61
  -5 -10   5   10.00    0.66
   5 -10  -5   10.04    0.59
   4 -10  -5    2.43    0.43
  -4 -10   5    2.74    0.34
  -4 -10   5    2.83    0.29
   4 -10  -5    2.38    0.32
  -3 -10   5    4.50    0.33
  -3 -10   5    4.67    0.39
   3 -10  -5    4.81    0.37
   3 -10  -5    5.19    0.51
  -2 -10   5   52.38    2.54
   2 -10  -5   52.00    2.60
   2 -10  -5   55.08    2.53
  -2 -10   5   53.09    2.49
   1 -10  -5    9.61    0.62
   1 -10  -5   11.12    0.60
  -1 -10   5    9.79    0.59
   0 -10  -5   12.56    0.68
   0 -10   5   12.41    0.66
   0 -10  -5   11.40    0.67
   0 -10   5   12.09    0.66
   1 -10   5   53.41    2.42
   1 -10   5   50.69    2.46
  -1 -10  -5   50.45    2.39
  -1 -10  -5   50.68    2.46
   2 -10   5   21.90    1.06
   2 -10   5   20.13    1.14
  -2 -10  -5   22.87    1.00
  -2 -10  -5   21.11    1.11
   2  10   5   20.83    1.09
  -3 -10  -5    5.49    0.44
   3 -10   5    5.89    0.54
   3 -10   5    5.65    0.37
   3  10   5    5.99    0.42
   4 -10   5   17.59    0.83
   4 -10   5   16.03    1.02
  -4 -10  -5   16.01    0.91
   4  10   5   15.98    0.88
   5 -10   5   47.32    2.48
   5 -10   5   52.47    2.27
  -5 -10  -5   45.55    2.36
   5  10   5   47.56    2.33
   6 -10   5    0.26    0.35
  -6 -10  -5    0.01    0.22
   6  10   5   -0.04    0.22
   7 -10   5    1.01    0.47
  -7 -10  -5    1.46    0.30
   7  10   5    0.82    0.23
   8 -10   5   -0.06    0.58
  -8 -10  -5   -0.22    0.29
   8  10   5    0.19    0.25
  -9 -10  -5   -0.07    0.39
   9 -10   5   -0.01    0.69
   9  10   5   -0.02    0.31
  -9 -11   5    0.70    0.39
   9 -11  -5    0.19    0.69
  -8 -11   5   -0.02    0.31
   8 -11  -5    0.31    0.59
   8 -11  -5    0.16    0.27
   7 -11  -5    2.94    0.58
  -7 -11   5    2.64    0.39
   7 -11  -5    2.43    0.30
   6 -11  -5    2.41    0.52
   6 -11  -5    2.58    0.33
  -6 -11   5    2.80    0.43
  -5 -11   5    2.06    0.31
   5 -11  -5    3.83    0.65
   5 -11  -5    2.66    0.32
  -5 -11   5    2.56    0.34
  -4 -11   5   -0.12    0.18
  -4 -11   5    0.11    0.16
   4 -11  -5   -0.05    0.18
   4 -11  -5    0.37    0.37
  -3 -11   5    0.48    0.15
  -3 -11   5    0.23    0.20
   3 -11  -5    0.33    0.29
   3 -11  -5    0.52    0.18
  -2 -11   5   16.00    0.80
   2 -11  -5   16.14    0.85
   2 -11  -5   14.67    0.92
  -2 -11   5   15.54    0.87
  -1 -11   5    2.93    0.26
   1 -11  -5    2.94    0.32
   1 -11  -5    2.23    0.31
  -1 -11   5    2.23    0.34
   0 -11  -5    1.88    0.29
   0 -11   5    1.94    0.25
   0 -11   5    2.29    0.27
   0 -11  -5    2.34    0.29
   1 -11   5    0.20    0.18
  -1 -11  -5    0.07    0.16
  -1 -11  -5    0.08    0.13
   1 -11   5    0.04    0.15
   2 -11   5   10.62    0.72
  -2 -11  -5   10.77    0.66
  -2 -11  -5   11.80    0.55
   2 -11   5   11.05    0.62
  -3 -11  -5    0.92    0.21
   3 -11   5    0.95    0.33
   3 -11   5    0.79    0.17
   3  11   5    0.78    0.21
   4 -11   5    3.21    0.29
  -4 -11  -5    2.33    0.36
   4 -11   5    2.67    0.42
   4  11   5    2.19    0.29
  -5 -11  -5    0.24    0.24
   5 -11   5    0.11    0.33
   5 -11   5   -0.03    0.17
   5  11   5    0.09    0.21
   6 -11   5   12.66    0.96
  -6 -11  -5   11.07    0.76
   6  11   5   11.22    0.71
   7 -11   5    0.60    0.47
  -7 -11  -5    0.81    0.31
   7  11   5    0.60    0.23
  -8 -11  -5    1.14    0.36
   8 -11   5    0.51    0.59
   8  11   5    0.55    0.26
   9 -11   5    4.26    0.81
  -9 -11  -5    2.43    0.52
   9  11   5    2.36    0.40
   9 -12  -5    0.45    0.75
  -9 -12   5   -0.12    0.41
   8 -12  -5   -0.09    0.29
  -8 -12   5    1.06    0.40
   8 -12  -5    0.16    0.60
   7 -12  -5    1.75    0.57
  -7 -12   5    2.51    0.41
   7 -12  -5    2.10    0.30
  -6 -12   5    7.41    0.62
   6 -12  -5    7.88    0.53
   6 -12  -5    6.90    0.86
   5 -12  -5    2.71    0.33
  -5 -12   5    1.77    0.34
  -5 -12   5    2.12    0.34
   5 -12  -5    1.68    0.43
  -4 -12   5    8.99    0.66
  -4 -12   5   10.24    0.58
   4 -12  -5    7.90    0.82
   4 -12  -5    9.67    0.60
  -3 -12   5   15.87    0.84
   3 -12  -5   15.34    1.01
   3 -12  -5   16.20    0.88
  -3 -12   5   17.05    0.92
   2 -12  -5    9.10    0.58
   2 -12  -5    8.49    0.66
  -2 -12   5    9.08    0.60
  -2 -12   5    8.97    0.51
  -1 -12   5    6.24    0.39
   1 -12  -5    5.18    0.49
  -1 -12   5    5.54    0.46
   1 -12  -5    5.77    0.45
   0 -12   5   10.17    0.63
   0 -12  -5   10.13    0.64
   0 -12   5   10.19    0.59
   0 -12  -5    9.94    0.60
  -1 -12  -5    2.27    0.25
  -1 -12  -5    2.10    0.29
   1 -12   5    1.84    0.25
   1 -12   5    2.04    0.35
  -2 -12  -5    3.41    0.40
   2 -12   5    3.44    0.34
  -2 -12  -5    3.00    0.23
   2 -12   5    3.58    0.47
  -3 -12  -5   19.01    1.09
   3 -12   5   19.83    1.17
   3 -12   5   21.48    1.03
   4 -12   5    4.89    0.40
  -4 -12  -5    4.60    0.49
   4 -12   5    5.16    0.59
   4  12   5    4.93    0.48
   5 -12   5    0.74    0.21
  -6 -12  -5    0.50    0.30
   6 -12   5    0.55    0.43
   6  12   5    0.39    0.23
   7 -12   5    1.14    0.53
  -7 -12  -5    0.06    0.32
   7  12   5    0.24    0.24
  -8 -12  -5    0.38    0.40
   8 -12   5    0.38    0.64
   8  12   5   -0.05    0.28
   9 -12   5   13.25    1.48
  -9 -12  -5    9.57    0.98
   9  12   5   10.20    0.84
  -8 -13   5   -0.04    0.41
   8 -13  -5    0.66    0.35
   8 -13  -5    0.52    0.68
  -7 -13   5    0.88    0.36
   7 -13  -5    0.33    0.27
   7 -13  -5    0.19    0.54
   6 -13  -5    1.38    0.26
   6 -13  -5    0.81    0.50
  -6 -13   5    0.81    0.33
   5 -13  -5    2.67    0.54
   5 -13  -5    3.28    0.38
  -5 -13   5    2.97    0.41
  -5 -13   5    3.06    0.41
   4 -13  -5   28.44    1.59
  -4 -13   5   24.96    1.41
   4 -13  -5   28.34    1.38
  -4 -13   5   26.07    1.35
   3 -13  -5    1.73    0.44
   3 -13  -5    1.68    0.27
  -3 -13   5    1.85    0.28
  -3 -13   5    1.87    0.31
  -2 -13   5   13.70    0.81
   2 -13  -5   13.76    0.79
  -2 -13   5   13.54    0.73
   2 -13  -5   13.47    0.88
   1 -13  -5    3.59    0.39
   1 -13  -5    3.36    0.44
  -1 -13   5    3.73    0.33
  -1 -13   5    3.70    0.42
   0 -13   5    2.97    0.33
   0 -13   5    2.72    0.40
   0 -13  -5    2.71    0.35
   0 -13  -5    2.83    0.33
   1 -13   5   -0.27    0.21
  -1 -13  -5    0.21    0.22
  -1 -13  -5    0.25    0.16
   1 -13   5   -0.08    0.23
   2 -13   5    0.64    0.23
  -2 -13  -5    0.63    0.25
  -2 -13  -5    0.55    0.14
   2 -13   5    0.59    0.30
  -3 -13  -5    2.10    0.33
   3 -13   5    3.22    0.37
   3 -13   5    3.44    0.50
   4 -13   5   24.02    1.39
  -4 -13  -5   23.50    1.29
   4 -13   5   25.79    1.21
   4  13   5   21.49    1.25
  -5 -13  -5    5.53    0.58
   5 -13   5    5.81    0.70
   5  13   5    5.51    0.51
  -6 -13  -5    0.67    0.33
   6 -13   5    1.71    0.50
   6  13   5    0.83    0.26
  -7 -13  -5    0.24    0.35
   7 -13   5    0.54    0.56
   7  13   5   -0.05    0.26
   8 -13   5    1.07    0.71
  -8 -13  -5    0.85    0.46
   8  13   5    0.23    0.31
  -8 -14   5    0.12    0.41
   8 -14  -5    1.06    0.72
   7 -14  -5   -0.04    0.56
  -7 -14   5    0.04    0.41
   7 -14  -5    0.20    0.32
   6 -14  -5    2.07    0.57
  -6 -14   5    1.59    0.40
   6 -14  -5    1.80    0.30
  -5 -14   5    0.24    0.30
  -5 -14   5    0.47    0.27
   5 -14  -5    0.84    0.45
   5 -14  -5    0.29    0.23
   4 -14  -5   30.57    1.80
   4 -14  -5   34.67    1.64
  -4 -14   5   31.86    1.69
  -4 -14   5   31.48    1.60
   3 -14  -5    0.98    0.44
  -3 -14   5    1.14    0.30
   2 -14  -5   -0.20    0.22
  -2 -14   5    0.30    0.18
   2 -14  -5    0.41    0.33
  -2 -14   5    0.36    0.25
  -1 -14   5    2.14    0.30
   1 -14  -5    1.85    0.29
   1 -14  -5    1.71    0.33
  -1 -14   5    1.52    0.30
   0 -14   5    0.39    0.25
   0 -14  -5    0.10    0.24
   0 -14   5    0.44    0.24
   0 -14  -5    0.29    0.22
   1 -14   5    1.48    0.30
   1 -14   5    1.59    0.33
  -1 -14  -5    1.05    0.20
  -1 -14  -5    1.13    0.28
   2 -14   5    0.06    0.27
  -2 -14  -5   -0.09    0.25
  -2 -14  -5    0.26    0.14
   2 -14   5    0.12    0.29
   3 -14   5    0.77    0.37
  -3 -14  -5    1.09    0.31
   3 -14   5    0.79    0.27
  -4 -14  -5   -0.10    0.29
   4 -14   5   -0.13    0.25
   4 -14   5    0.71    0.38
  -5 -14  -5    0.43    0.31
   5 -14   5    0.00    0.40
   5  14   5   -0.12    0.24
   6 -14   5    0.03    0.49
  -6 -14  -5    0.08    0.33
   6  14   5    0.11    0.26
   7 -14   5    0.83    0.62
  -7 -14  -5    1.53    0.44
   7  14   5    0.27    0.30
  -8 -14  -5    2.15    0.53
   8 -14   5    3.18    0.82
   8  14   5    1.91    0.42
  -8 -15   5    0.53    0.51
   8 -15  -5    0.80    0.79
   7 -15  -5    4.24    0.78
   7 -15  -5    4.23    0.63
  -7 -15   5    3.56    0.55
   6 -15  -5    1.19    0.60
  -6 -15   5    0.75    0.41
   6 -15  -5    1.15    0.34
   5 -15  -5    1.62    0.32
   5 -15  -5    1.41    0.49
  -5 -15   5    1.84    0.36
  -5 -15   5    1.55    0.42
  -4 -15   5    2.66    0.41
   4 -15  -5    2.64    0.35
  -4 -15   5    2.47    0.42
   4 -15  -5    3.71    0.57
   3 -15  -5    8.95    0.63
   3 -15  -5    8.43    0.80
  -3 -15   5    8.62    0.65
  -3 -15   5    7.98    0.57
   2 -15  -5    1.27    0.42
   2 -15  -5    1.47    0.30
  -2 -15   5    0.91    0.30
  -2 -15   5    1.14    0.25
   1 -15  -5    0.81    0.28
  -1 -15   5    0.57    0.28
  -1 -15   5    0.78    0.26
   1 -15  -5    0.14    0.28
   0 -15  -5   18.50    1.08
   0 -15   5   21.71    1.11
   0 -15   5   20.84    1.12
   0 -15  -5   19.73    1.14
   1 -15   5    8.31    0.61
  -1 -15  -5    7.27    0.63
   1 -15   5    7.65    0.59
  -1 -15  -5    7.62    0.49
   2 -15   5    4.77    0.49
  -2 -15  -5    5.57    0.54
  -2 -15  -5    3.73    0.31
   3 -15   5   16.75    1.06
   3 -15   5   16.21    1.00
  -3 -15  -5   17.15    1.03
   4 -15   5   14.18    1.01
   4 -15   5   14.62    0.89
  -4 -15  -5   13.43    0.95
  -5 -15  -5   19.94    1.27
   5 -15   5   22.56    1.41
   6 -15   5    1.07    0.55
  -6 -15  -5    0.55    0.40
   6  15   5    0.38    0.29
   7 -15   5    1.00    0.67
  -7 -15  -5    0.41    0.44
  -7 -16   5   -0.74    0.47
   7 -16  -5    0.92    0.68
   7 -16  -5    0.17    0.49
   6 -16  -5    1.70    0.40
  -6 -16   5    2.00    0.51
   6 -16  -5    1.39    0.59
  -5 -16   5    0.92    0.39
   5 -16  -5    0.90    0.33
  -5 -16   5    1.29    0.37
   5 -16  -5    1.11    0.54
   4 -16  -5   -0.17    0.42
  -4 -16   5    0.33    0.29
  -4 -16   5    0.03    0.34
   4 -16  -5    0.74    0.29
  -3 -16   5    7.97    0.59
  -3 -16   5    7.39    0.68
   3 -16  -5    6.77    0.79
   3 -16  -5    7.52    0.61
  -2 -16   5    0.14    0.25
   2 -16  -5    0.01    0.27
  -2 -16   5   -0.23    0.29
   2 -16  -5    0.00    0.46
  -1 -16   5    0.04    0.27
   1 -16  -5   -0.01    0.30
   1 -16  -5    0.02    0.28
  -1 -16   5    0.10    0.27
   0 -16  -5    7.62    0.60
   0 -16   5    9.81    0.67
   0 -16  -5    8.50    0.67
   0 -16   5    8.72    0.63
  -1 -16  -5    0.39    0.20
   1 -16   5    0.33    0.28
   1 -16   5    0.09    0.26
  -1 -16  -5   -0.43    0.31
   2 -16   5    9.65    0.70
  -2 -16  -5    9.91    0.80
   2 -16   5   11.18    0.79
   3 -16   5    3.88    0.53
   3 -16   5    2.45    0.45
  -3 -16  -5    3.75    0.56
  -4 -16  -5    0.51    0.36
   4 -16   5   -0.07    0.43
   5 -16   5    5.64    0.75
  -5 -16  -5    5.93    0.76
   6 -16   5    1.20    0.62
  -6 -16  -5    1.09    0.47
   7 -16   5    0.38    0.71
  -7 -16  -5    0.01    0.50
  -6 -17   5    0.82    0.47
   6 -17  -5    0.19    0.41
   6 -17  -5    0.95    0.69
   5 -17  -5    1.97    0.65
   5 -17  -5    1.48    0.39
  -5 -17   5    2.04    0.48
   4 -17  -5    0.36    0.50
  -4 -17   5   -0.18    0.39
   4 -17  -5    0.57    0.33
  -4 -17   5    0.60    0.36
   3 -17  -5    4.72    0.76
  -3 -17   5    4.58    0.53
   3 -17  -5    4.47    0.56
  -3 -17   5    5.40    0.66
   2 -17  -5    3.14    0.56
   2 -17  -5    3.54    0.53
  -2 -17   5    3.12    0.46
  -2 -17   5    2.82    0.41
  -1 -17   5    0.16    0.27
   1 -17  -5    0.30    0.32
   1 -17  -5    0.09    0.37
  -1 -17   5    0.04    0.32
   0 -17  -5    7.04    0.67
   0 -17   5    8.21    0.60
   0 -17  -5    6.77    0.58
   0 -17   5    8.10    0.66
  -1 -17  -5    1.68    0.25
   1 -17   5    1.29    0.35
   1 -17   5    1.20    0.34
  -1 -17  -5    1.98    0.38
  -2 -17  -5    1.57    0.41
   2 -17   5    1.82    0.35
   2 -17   5    2.00    0.41
   3 -17   5    5.78    0.65
  -3 -17  -5    4.32    0.59
   3 -17   5    5.39    0.66
   4 -17   5    5.77    0.80
  -4 -17  -5    8.03    0.80
   5 -17   5   -0.32    0.50
  -5 -17  -5    0.61    0.47
  -6 -17  -5    0.14    0.49
   6 -17   5   -0.37    0.59
   6 -18  -5   -0.29    0.67
  -6 -18   5    1.15    0.57
   6 -18  -5    0.69    0.50
  -5 -18   5   -0.13    0.46
   5 -18  -5    0.73    0.45
   5 -18  -5    0.16    0.68
  -4 -18   5    0.76    0.34
   4 -18  -5    0.94    0.38
   4 -18  -5   -0.30    0.59
   3 -18  -5    7.94    0.70
  -3 -18   5    6.62    0.60
  -3 -18   5    6.85    0.77
   3 -18  -5    5.90    0.86
  -2 -18   5   17.63    1.05
   2 -18  -5   17.85    1.21
   2 -18  -5   19.75    1.15
  -2 -18   5   19.26    1.18
  -1 -18   5    4.53    0.62
   1 -18  -5    4.11    0.62
   1 -18  -5    3.18    0.53
  -1 -18   5    3.24    0.42
   0 -18  -5    6.23    0.59
   0 -18   5    7.26    0.69
   0 -18  -5    6.86    0.69
   0 -18   5    7.12    0.62
   1 -18   5    2.05    0.40
   1 -18   5    1.33    0.39
  -1 -18  -5    1.80    0.43
  -2 -18  -5    5.46    0.73
   2 -18   5    6.97    0.72
   2 -18   5    7.88    0.73
  -3 -18  -5   -0.01    0.44
   3 -18   5    0.12    0.42
   3 -18   5    0.48    0.43
  -4 -18  -5    0.50    0.50
   4 -18   5    0.66    0.48
  -5 -18  -5    0.59    0.50
   5 -18   5   -0.28    0.61
   5 -19  -5    0.91    0.51
   5 -19  -5   -0.62    0.73
  -5 -19   5    0.76    0.55
  -4 -19   5    0.89    0.51
   4 -19  -5    0.53    0.64
   4 -19  -5    1.28    0.46
   3 -19  -5    1.42    0.44
  -3 -19   5    1.16    0.35
   3 -19  -5    1.49    0.61
  -3 -19   5    0.65    0.48
  -2 -19   5   23.13    1.39
  -2 -19   5   21.77    1.24
   2 -19  -5   20.43    1.37
   2 -19  -5   25.35    1.38
   1 -19  -5    0.57    0.40
  -1 -19   5   -0.06    0.32
  -1 -19   5   -0.08    0.41
   1 -19  -5    0.53    0.42
   0 -19   5    2.78    0.43
   0 -19  -5    2.15    0.47
   0 -19   5    2.17    0.47
  -1 -19  -5   -0.19    0.42
   1 -19   5   -0.52    0.36
   1 -19   5   -0.09    0.43
  -2 -19  -5   14.60    1.10
   2 -19   5   14.25    1.07
   2 -19   5   15.61    1.05
   3 -19   5    0.89    0.48
  -3 -19  -5    0.75    0.53
   4 -19   5    0.46    0.55
  -4 -19  -5    0.81    0.53
   4 -20  -5    0.65    0.70
  -3 -20   5    0.70    0.52
   3 -20  -5    0.29    0.58
   3 -20  -5    1.28    0.54
  -2 -20   5    0.95    0.54
  -2 -20   5    0.97    0.39
   2 -20  -5    1.18    0.52
   2 -20  -5    0.88    0.53
   1 -20  -5    4.08    0.63
   1 -20  -5    3.02    0.53
  -1 -20   5    3.61    0.57
  -1 -20   5    3.79    0.60
   0 -20   5    7.33    0.84
   0 -20   5    5.09    0.68
   0 -20  -5    6.69    0.86
   1 -20   5    3.18    0.58
  -1 -20  -5    3.54    0.62
   1 -20   5    2.77    0.51
   2 -20   5    0.73    0.55
   2 -20   5    1.73    0.52
  -2 -20  -5    2.04    0.55
  -3 -20  -5    2.17    0.61
   3 -20   5    0.24    0.53
  -2 -21   5    0.30    0.43
  -2 -21   5   -0.22    0.55
   2 -21  -5    0.04    0.56
   2 -21  -5    1.08    0.59
  -1 -21   5    1.41    0.43
   1 -21  -5    1.09    0.55
  -1 -21   5    1.02    0.64
   0 -21   5   -0.04    0.60
   0 -21   5    0.18    0.43
   0 -21  -5   -0.88    0.52
   1 -21   5    6.27    0.96
   1 -21   5    5.49    0.76
  -1 -21  -5    5.65    0.74
  11   0  -6    0.62    0.79
  11   0  -6   -0.42    0.46
  10   0  -6    0.04    0.57
  10   0  -6    0.96    0.33
   9   0  -6    0.08    0.26
   8   0  -6   13.50    0.85
   8   0  -6   13.43    0.84
   7   0  -6    0.81    0.24
   6   0  -6    4.45    0.40
   6   0  -6    4.56    0.40
   5   0  -6   -0.01    0.13
   5   0  -6    0.10    0.13
   4   0  -6   50.44    2.41
   4   0  -6   50.88    2.41
   3   0  -6   30.62    1.47
   3   0  -6   30.29    1.47
   2   0  -6   11.53    0.60
   2   0  -6   11.74    0.60
  -1   0   6   -0.01    0.06
  -1   0   6   -0.11    0.07
  -1   0   6   -0.08    0.07
   1   0  -6   -0.05    0.06
   0   0   6   91.84    4.30
   0   0   6   93.04    4.31
   0   0  -6   92.21    4.31
   0   0   6   97.55    4.31
  -1   0  -6    0.01    0.04
   1   0   6   -0.07    0.06
   1   0   6   -0.02    0.04
   1   0   6    0.06    0.05
  -2   0  -6   13.11    0.62
   2   0   6   12.76    0.68
   2   0   6   11.59    0.64
   2   0   6   14.46    0.62
   3   0   6    9.15    0.54
   3   0   6    8.72    0.45
  -3   0  -6   10.05    0.46
   3   0   6    7.95    0.49
   4   0   6   97.91    4.39
   4   0   6   91.80    4.44
   4   0   6   89.32    4.48
  -4   0  -6  101.86    4.39
  -5   0  -6    0.10    0.10
   5   0   6   -0.14    0.17
   5   0   6   -0.07    0.18
  -6   0  -6   21.28    1.05
   6   0   6   21.01    1.21
   6   0   6   22.13    1.18
   7   0   6    0.07    0.33
  -7   0  -6    0.42    0.16
   7   0   6    0.24    0.28
   8   0   6    0.85    0.50
  -8   0  -6    0.61    0.20
   8   0   6    0.22    0.34
   9   0   6   -0.01    0.47
   9   0   6   -0.06    0.40
   9   0   6   -0.23    0.35
  10   0   6    0.58    0.59
  10   0   6    0.43    0.45
  11  -1  -6   -1.37    0.74
  11  -1  -6    0.40    0.46
  11   1  -6    0.26    0.54
  11   1  -6    0.60    0.79
  11   1  -6    0.35    0.48
  10  -1  -6    0.86    0.60
  10  -1  -6   -0.29    0.32
  10   1  -6    0.60    0.36
  10   1  -6    0.10    0.37
   9  -1  -6    1.28    0.30
   9   1  -6    1.18    0.33
   9   1  -6    0.87    0.32
   8  -1  -6   34.06    1.78
   8   1  -6   35.03    1.82
   8   1  -6   36.69    1.83
   7  -1  -6   -0.41    0.21
   7   1  -6   -0.31    0.22
   7   1  -6   -0.12    0.23
   6  -1  -6    0.23    0.19
   6  -1  -6    0.89    0.21
   6   1  -6    0.58    0.22
   6   1  -6    0.30    0.20
   5  -1  -6   -0.18    0.13
  -5  -1   6   -0.14    0.12
   5  -1  -6   -0.11    0.13
   5   1  -6   -0.05    0.14
   5   1  -6   -0.33    0.14
   4  -1  -6   43.01    2.09
  -4  -1   6   44.25    2.07
   4  -1  -6   44.11    2.09
   3  -1  -6    6.92    0.41
  -3  -1   6    7.26    0.40
   2  -1  -6   15.30    0.75
  -2  -1   6   14.76    0.75
   2   1  -6   15.40    0.77
   2   1  -6   15.52    0.77
   1  -1  -6  144.68    6.86
  -1  -1   6  156.56    6.84
  -1  -1   6  143.68    6.85
   1   1  -6  148.31    6.86
   1   1  -6  151.94    6.85
   1   1  -6  145.01    6.83
   1   1  -6  146.80    6.87
  -1   1   6  158.37    6.87
   0  -1   6   81.67    3.89
   0  -1   6   80.71    3.89
   0  -1   6   86.29    3.90
   0  -1  -6   83.68    3.89
   0  -1   6   87.75    3.90
   0   1   6   84.25    3.89
   0   1  -6   83.33    3.89
   0   1   6   89.27    3.90
   0   1   6   84.72    3.89
   1  -1   6   69.37    3.55
   1  -1   6   85.38    3.52
  -1  -1  -6   73.59    3.52
   1  -1   6   65.48    3.53
   1   1   6   77.34    3.55
   1   1   6   80.33    3.53
   1   1   6   78.94    3.52
  -1   1  -6   83.10    3.52
  -2  -1  -6    2.60    0.17
   2  -1   6    2.69    0.23
   2  -1   6    3.04    0.15
   2  -1   6    2.43    0.20
   2   1   6    2.81    0.22
   2   1   6    2.74    0.17
   2   1   6    2.51    0.17
  -2   1  -6    2.70    0.15
   3  -1   6  133.41    6.44
   3  -1   6  143.48    6.38
  -3  -1  -6  143.94    6.40
   3   1   6  135.98    6.46
  -3   1  -6  148.49    6.38
   3   1   6  133.14    6.41
   3   1   6  137.14    6.39
   4  -1   6   35.69    1.65
  -4  -1  -6   37.52    1.67
   4  -1   6   32.90    1.72
  -4   1  -6   37.67    1.65
   4   1   6   32.57    1.70
   4   1   6   35.79    1.75
  -5  -1  -6    9.91    0.51
   5  -1   6    9.40    0.61
   5  -1   6    9.20    0.49
  -5   1  -6    9.27    0.48
   5   1   6    9.70    0.62
   5   1   6    8.71    0.58
   6  -1   6    0.78    0.27
  -6  -1  -6    0.89    0.16
   6   1   6    0.66    0.24
  -6   1  -6    0.62    0.13
   6   1   6    0.62    0.25
   7  -1   6    0.07    0.20
  -7  -1  -6    0.51    0.17
   7  -1   6    0.41    0.36
   7   1   6    0.54    0.33
  -7   1  -6    0.76    0.16
   7   1   6    0.72    0.32
   8  -1   6   16.73    1.16
   8  -1   6   16.22    0.89
  -8  -1  -6   14.46    0.86
   8  -1   6   14.69    0.88
   8  -1   6   15.79    1.07
   8   1   6   16.74    1.09
   8   1   6   16.69    1.12
   9  -1   6    4.41    0.74
   9  -1   6    6.54    0.86
  -9  -1  -6    4.80    0.47
   9   1   6    4.75    0.69
   9   1   6    5.28    0.82
  10  -1   6    0.06    0.46
  10  -1   6    0.39    0.57
  10   1   6   -0.11    0.58
  10   1   6    0.54    0.47
  11  -2  -6    0.49    0.71
  11  -2  -6    0.25    0.41
  11   2  -6    0.20    0.53
  11   2  -6    1.47    0.78
  11   2  -6    0.25    0.51
  11   2  -6    0.81    0.52
  10  -2  -6    0.36    0.61
  10  -2  -6    0.37    0.32
  10   2  -6    0.31    0.37
  10   2  -6   -0.28    0.40
  10   2  -6    0.26    0.36
   9  -2  -6    3.23    0.64
   9  -2  -6    3.63    0.44
   9   2  -6    3.26    0.44
   9   2  -6    3.62    0.44
   8  -2  -6   19.91    1.07
   8   2  -6   19.41    1.13
   8   2  -6   19.04    1.13
   7  -2  -6   48.66    2.41
  -7  -2   6   48.67    2.39
   7   2  -6   50.33    2.47
   7   2  -6   51.64    2.47
   6  -2  -6    1.61    0.25
  -6  -2   6    1.85    0.24
  -5  -2   6    8.53    0.50
   5  -2  -6    8.38    0.51
  -4  -2   6   35.13    1.67
   4  -2  -6   34.31    1.67
   3  -2  -6    8.16    0.47
  -3  -2   6    9.40    0.48
  -2  -2   6    9.93    0.50
   2  -2  -6    9.90    0.50
  -2  -2   6    8.98    0.49
  -1  -2   6  102.93    4.85
   1  -2  -6  101.16    4.85
  -1  -2   6  107.30    4.85
  -1  -2   6  108.94    4.83
   1   2  -6  110.46    4.86
   1   2  -6  101.89    4.83
   1  -2   6   21.30    1.18
  -1  -2  -6   22.53    1.17
  -1  -2  -6   27.28    1.16
   1   2   6   22.50    1.17
  -1   2  -6   28.62    1.16
   1   2   6   27.40    1.16
   1   2   6   26.32    1.19
  -1   2  -6   23.37    1.16
   2  -2   6   61.93    2.95
  -2  -2  -6   62.60    2.92
   2   2   6   65.19    2.96
   2   2   6   63.19    2.90
   2   2   6   62.98    2.91
  -3  -2  -6    3.32    0.22
   3  -2   6    3.43    0.29
   3   2   6    3.74    0.28
   3   2   6    3.20    0.23
  -4  -2  -6   -0.01    0.10
   4  -2   6   -0.16    0.15
   4  -2   6    0.06    0.06
   4   2   6    0.19    0.13
   4   2   6   -0.12    0.12
  -4   2  -6    0.06    0.06
   5  -2   6    0.18    0.10
   5  -2   6    0.33    0.22
  -5  -2  -6    0.04    0.11
   5  -2   6    0.09    0.10
   5  -2   6    0.10    0.10
   5   2   6   -0.24    0.17
   5   2   6    0.05    0.15
   6  -2   6    5.04    0.33
   6  -2   6    4.97    0.51
  -6  -2  -6    4.50    0.35
   6  -2   6    4.70    0.33
   6   2   6    4.83    0.47
   6   2   6    5.05    0.46
   7  -2   6   61.53    2.86
   7  -2   6   62.18    3.05
   7  -2   6   61.56    2.86
  -7  -2  -6   59.54    2.87
   7   2   6   59.27    3.01
   7   2   6   60.26    2.96
  -8  -2  -6    2.22    0.30
   8  -2   6    3.02    0.55
   8  -2   6    2.30    0.28
   8   2   6    1.97    0.41
  -9  -2  -6    0.40    0.26
   9  -2   6    0.32    0.42
   9  -2   6   -0.40    0.47
   9   2   6   -0.26    0.52
   9   2   6    0.40    0.36
  10  -2   6   -0.20    0.61
 -10  -2  -6   -0.51    0.31
  10  -2   6    0.62    0.49
  10   2   6   -0.66    0.61
  10   2   6    0.00    0.45
  11  -3  -6    0.39    0.41
  11  -3  -6    0.62    0.72
  11   3  -6   -0.70    0.74
  11   3  -6   -0.05    0.51
  11   3  -6    0.14    0.53
  10  -3  -6    2.00    0.35
  10  -3  -6    1.01    0.63
  10   3  -6    2.52    0.45
  10   3  -6    1.51    0.45
  10   3  -6    1.75    0.42
   9  -3  -6    1.36    0.56
   9  -3  -6    1.76    0.30
   9   3  -6    1.61    0.38
   9   3  -6    0.61    0.41
   9   3  -6    0.87    0.35
   8  -3  -6   19.59    1.08
  -8  -3   6   20.57    1.08
   8   3  -6   19.93    1.15
   7  -3  -6    8.04    0.55
  -7  -3   6    8.32    0.55
   6  -3  -6   31.62    1.59
  -6  -3   6   32.44    1.58
   5  -3  -6   27.82    1.35
  -5  -3   6   26.92    1.35
  -4  -3   6   59.17    2.78
   4  -3  -6   58.98    2.78
  -3  -3   6   21.90    1.05
  -3  -3   6   20.62    1.04
   3  -3  -6   21.41    1.04
   2  -3  -6   54.04    2.57
  -2  -3   6   56.41    2.58
  -2  -3   6   55.41    2.57
   1  -3  -6  128.99    6.09
  -1  -3   6  133.95    6.10
  -1  -3   6  139.22    6.09
   1   3  -6  128.44    6.10
   0  -3  -6  377.96   18.10
   0  -3   6  403.98   18.09
   0  -3   6  384.88   18.09
   0   3   6  391.82   18.10
   0   3  -6  420.38   18.09
   1  -3   6  166.72    8.08
  -1  -3  -6  184.92    8.04
  -1  -3  -6  173.60    8.07
  -1   3  -6  187.02    8.05
   1   3   6  168.56    8.05
   1   3   6  175.46    8.08
  -2  -3  -6   64.31    3.21
  -2  -3  -6   68.65    3.23
   2  -3   6   66.94    3.25
   2   3   6   76.56    3.19
   2   3   6   71.83    3.25
   3  -3   6   28.54    1.42
  -3  -3  -6   29.70    1.37
   3   3   6   29.83    1.41
   3   3   6   26.99    1.35
   4  -3   6    4.42    0.38
  -4  -3  -6    4.47    0.30
   4   3   6    4.20    0.30
   4   3   6    4.24    0.34
   5  -3   6    0.86    0.11
   5  -3   6    1.13    0.13
  -5  -3  -6    0.98    0.16
   5  -3   6    1.19    0.26
   5   3   6    0.78    0.19
   5   3   6    0.69    0.18
   6  -3   6   26.99    1.28
   6  -3   6   26.74    1.46
   6  -3   6   28.33    1.28
  -6  -3  -6   26.89    1.33
   6   3   6   25.23    1.37
   6   3   6   26.54    1.42
   7  -3   6   10.91    0.59
   7  -3   6   10.58    0.93
  -7  -3  -6   11.02    0.66
   7   3   6   10.66    0.75
   7   3   6   11.02    0.80
   8  -3   6    4.01    0.60
  -8  -3  -6    3.07    0.41
   8   3   6    3.49    0.54
   8   3   6    3.73    0.59
  -9  -3  -6    0.19    0.26
   9  -3   6    0.12    0.49
   9   3   6   -0.64    0.53
   9   3   6    0.19    0.34
  10  -3   6    1.06    0.52
  10  -3   6    0.26    0.60
 -10  -3  -6    0.11    0.34
  10   3   6    0.02    0.43
  10  -4  -6    0.60    0.30
  10  -4  -6    0.68    0.59
  10   4  -6    0.71    0.42
  10   4  -6    0.29    0.43
  10   4  -6    0.32    0.42
   9  -4  -6    0.19    0.55
  -9  -4   6    0.94    0.27
   9  -4  -6    0.86    0.25
   9   4  -6    0.92    0.38
   8  -4  -6    8.20    0.87
   8  -4  -6    7.28    0.53
  -8  -4   6    7.68    0.57
   8   4  -6    7.41    0.60
   7  -4  -6    3.46    0.35
  -7  -4   6    3.00    0.36
   7   4  -6    3.55    0.40
   6  -4  -6   48.96    2.35
  -6  -4   6   48.95    2.36
   6   4  -6   49.19    2.35
   5  -4  -6    0.13    0.12
  -5  -4   6   -0.22    0.15
   5   4  -6    0.09    0.12
   4  -4  -6   14.85    0.76
  -4  -4   6   14.60    0.78
   4   4  -6   15.15    0.74
   3  -4  -6  111.28    5.32
  -3  -4   6  119.43    5.34
  -3  -4   6  109.89    5.32
   3   4  -6  120.35    5.28
  -2  -4   6    8.49    0.46
   2  -4  -6    8.57    0.45
  -2  -4   6    8.51    0.45
  -1  -4   6  155.23    7.07
   1  -4  -6  150.32    7.07
  -1  -4   6  156.46    7.08
   0   4  -6  775.37   35.41
  -1  -4  -6  222.61    9.72
   1  -4   6  200.78    9.76
   1  -4   6  219.54    9.73
  -1  -4  -6  212.22    9.76
   1   4   6  210.67    9.76
  -1   4  -6  210.86    9.73
  -2  -4  -6    1.34    0.16
   2  -4   6    1.26    0.19
   3  -4   6    7.33    0.48
  -3  -4  -6    7.66    0.42
   3   4   6    7.28    0.37
   3   4   6    7.78    0.45
   4  -4   6   13.45    0.76
  -4  -4  -6   13.63    0.68
   4   4   6   11.93    0.65
   4   4   6   13.12    0.71
  -5  -4  -6    8.75    0.50
   5  -4   6    7.87    0.61
   5   4   6    7.92    0.50
   5   4   6    9.09    0.56
   6  -4   6    4.40    0.56
  -6  -4  -6    3.25    0.36
   6  -4   6    4.23    0.28
   6  -4   6    4.00    0.25
   6   4   6    3.12    0.40
   6   4   6    4.10    0.44
   7  -4   6   14.80    1.04
   7  -4   6   14.62    0.72
  -7  -4  -6   13.95    0.82
   7   4   6   13.01    0.87
   7   4   6   14.68    0.93
  -8  -4  -6    6.97    0.56
   8  -4   6    7.27    0.83
   8   4   6    8.43    0.69
   8   4   6    6.93    0.67
  -9  -4  -6    0.06    0.28
   9  -4   6    0.77    0.53
   9   4   6    0.56    0.34
   9   4   6    0.59    0.49
  10  -4   6    1.28    0.66
 -10  -4  -6    0.16    0.34
  10   4   6    0.70    0.43
 -10  -5   6    9.45    0.77
  10  -5  -6    8.37    0.70
  10  -5  -6    9.04    1.15
  10   5  -6   10.44    0.96
  10   5  -6   11.44    0.95
   9  -5  -6    0.70    0.53
  -9  -5   6    0.42    0.27
   9  -5  -6   -0.24    0.23
   9   5  -6    0.07    0.31
   8  -5  -6   -0.03    0.19
  -8  -5   6    0.61    0.24
   8  -5  -6    0.38    0.44
   8   5  -6    0.21    0.24
   7  -5  -6    9.73    0.87
   7  -5  -6   11.44    0.66
  -7  -5   6   11.20    0.68
   7   5  -6   11.39    0.68
  -6  -5   6   22.82    1.19
   6  -5  -6   21.16    1.16
   6   5  -6   24.81    1.16
  -5  -5   6   26.94    1.37
   5  -5  -6   26.82    1.35
   5   5  -6   28.51    1.32
  -3  -5   6   15.88    0.80
   3  -5  -6   16.08    0.80
  -3  -5   6   16.05    0.82
  -2  -5   6    2.32    0.18
  -2  -5   6    1.62    0.20
   2  -5  -6    2.47    0.18
   1  -5  -6  114.02    5.28
  -1  -5   6  113.90    5.27
  -1  -5   6  115.44    5.28
   0  -5  -6   26.24    1.25
   0  -5   6   26.75    1.24
   0  -5   6   26.22    1.25
   0   5   6   25.81    1.26
   0   5  -6   26.02    1.24
   1  -5   6   76.37    3.68
   1  -5   6   83.47    3.64
  -1  -5  -6   77.47    3.64
  -1  -5  -6   78.62    3.67
   1   5   6   84.15    3.68
  -1   5  -6   74.84    3.64
  -2  -5  -6   83.09    3.91
   2  -5   6   82.26    3.94
  -2   5  -6   82.66    3.86
   2   5   6   89.04    3.92
  -3  -5  -6   40.53    1.88
   3  -5   6   38.69    1.93
   3   5   6   39.60    1.89
   4  -5   6    0.95    0.22
   4   5   6    0.66    0.11
   4   5   6    0.85    0.16
  -5  -5  -6    2.20    0.29
   5  -5   6    2.95    0.44
   5   5   6    2.97    0.27
   5   5   6    2.68    0.30
  -6  -5  -6    4.08    0.42
   6  -5   6    4.02    0.59
   6   5   6    4.80    0.48
   6   5   6    4.20    0.40
   7  -5   6    2.92    0.52
  -7  -5  -6    2.76    0.38
   7  -5   6    3.55    0.28
   7   5   6    2.74    0.45
   7   5   6    3.56    0.45
  -8  -5  -6    0.62    0.26
   8  -5   6    0.37    0.45
   8   5   6    0.19    0.34
   8   5   6    0.12    0.27
   9  -5   6    0.50    0.57
  -9  -5  -6    0.00    0.30
   9   5   6    0.46    0.32
  10  -5   6   -0.21    0.67
 -10  -5  -6    0.69    0.37
  10   5   6    0.89    0.41
 -10  -6   6    4.78    0.65
  10  -6  -6    7.61    1.13
  10  -6  -6    4.40    0.56
   9  -6  -6    0.95    0.53
   9  -6  -6    0.86    0.26
  -9  -6   6    1.23    0.31
   8  -6  -6    7.30    0.52
  -8  -6   6    7.83    0.59
   8  -6  -6    6.23    0.82
   8   6  -6    8.10    0.58
  -7  -6   6    1.61    0.26
   7  -6  -6    1.39    0.43
   7  -6  -6    1.86    0.28
   7   6  -6    1.91    0.33
   6  -6  -6   14.01    0.78
   6  -6  -6   13.36    1.00
  -6  -6   6   14.55    0.81
   6   6  -6   14.94    0.76
   5  -6  -6    6.75    0.43
  -5  -6   6    6.39    0.45
   5   6  -6    7.17    0.39
   4  -6  -6    0.70    0.13
  -4  -6   6    0.71    0.17
  -4  -6   6    0.72    0.15
   4   6  -6    0.64    0.08
   3  -6  -6   23.21    1.11
  -3  -6   6   21.94    1.11
  -3  -6   6   22.98    1.13
   2  -6  -6   65.27    2.94
  -2  -6   6   61.88    2.95
  -2  -6   6   62.00    2.93
  -1  -6   6    5.29    0.30
  -1  -6   6    4.98    0.32
   1  -6  -6    4.95    0.31
   0  -6   6   12.41    0.59
   0  -6  -6   11.44    0.60
   0  -6  -6   11.05    0.61
   0  -6   6   11.56    0.60
   1  -6   6    6.26    0.37
  -1  -6  -6    6.10    0.35
  -1  -6  -6    4.93    0.29
   1  -6   6    5.67    0.31
  -1   6  -6    4.89    0.29
  -2  -6  -6   53.81    2.51
   2  -6   6   51.84    2.54
   2  -6   6   56.57    2.46
   2   6   6   55.58    2.51
  -2   6  -6   48.87    2.45
   3  -6   6    9.44    0.61
  -3  -6  -6    9.48    0.55
   3   6   6   10.43    0.55
   4  -6   6    2.52    0.35
  -4  -6  -6    2.54    0.26
   4   6   6    2.71    0.27
   5  -6   6    8.69    0.63
  -5  -6  -6    7.98    0.53
   5   6   6    7.07    0.44
   5   6   6    8.08    0.52
   6  -6   6    1.93    0.44
  -6  -6  -6    2.32    0.35
   6   6   6    2.01    0.30
   6   6   6    1.87    0.33
  -7  -6  -6    0.55    0.22
   7  -6   6    0.14    0.40
   7   6   6    0.41    0.27
   7   6   6    0.44    0.26
  -8  -6  -6    0.54    0.28
   8  -6   6    0.22    0.48
   8   6   6    0.54    0.29
  -9  -6  -6    1.08    0.33
   9  -6   6    1.76    0.60
   9   6   6    0.53    0.34
 -10  -6  -6    0.39    0.37
  10  -6   6    1.67    0.70
  10   6   6    0.51    0.41
  10  -7  -6   -0.19    0.70
  10  -7  -6   -0.08    0.32
 -10  -7   6    0.54    0.39
  -9  -7   6    2.20    0.37
   9  -7  -6    2.03    0.30
   9  -7  -6    2.54    0.66
   8  -7  -6    2.25    0.28
   8  -7  -6    2.07    0.54
  -8  -7   6    2.63    0.37
   8   7  -6    2.58    0.38
  -7  -7   6    0.47    0.23
   7  -7  -6    0.07    0.17
   7  -7  -6    0.55    0.37
   7   7  -6    0.29    0.17
   6  -7  -6    3.83    0.65
   6  -7  -6    4.95    0.38
  -6  -7   6    5.15    0.43
   6   7  -6    5.31    0.35
  -5  -7   6    0.60    0.18
   5  -7  -6    1.05    0.38
  -4  -7   6   38.13    1.89
   4  -7  -6   37.15    2.00
   4  -7  -6   38.71    1.86
  -4  -7   6   38.35    1.86
   4   7  -6   41.53    1.80
   3  -7  -6    2.38    0.21
   3  -7  -6    2.27    0.33
  -3  -7   6    1.95    0.25
  -3  -7   6    2.34    0.21
   2  -7  -6    8.57    0.44
  -2  -7   6    7.27    0.38
  -2  -7   6    7.27    0.46
  -2  -7   6    8.19    0.43
   1  -7  -6   77.21    3.57
  -1  -7   6   75.81    3.57
   1  -7  -6   73.02    3.61
  -1  -7   6   80.88    3.56
   0  -7   6  162.03    6.96
   0  -7  -6  153.99    6.97
   0  -7  -6  131.99    6.97
   0  -7   6  156.95    6.97
  -1  -7  -6   65.73    2.98
   1  -7   6   59.89    2.98
   1  -7   6   65.19    2.95
  -1  -7  -6   60.86    2.93
   1   7   6   66.03    2.98
   2  -7   6   14.21    0.77
   2  -7   6   13.83    0.67
  -2  -7  -6   14.13    0.73
  -2   7  -6   12.67    0.65
  -3  -7  -6    1.06    0.19
   3  -7   6    1.55    0.14
   3  -7   6    1.25    0.24
  -3   7  -6    1.37    0.13
   3   7   6    1.40    0.21
  -4  -7  -6    7.92    0.51
   4  -7   6    7.50    0.58
   4   7   6    8.04    0.48
   5  -7   6   23.94    1.34
  -5  -7  -6   23.31    1.21
   5   7   6   23.28    1.20
   6  -7   6   26.64    1.46
  -6  -7  -6   25.44    1.30
   6   7   6   26.65    1.33
   6   7   6   23.00    1.24
   7  -7   6    1.50    0.44
  -7  -7  -6    1.06    0.25
   7   7   6    0.90    0.27
   8  -7   6    0.93    0.48
  -8  -7  -6    0.61    0.28
   8   7   6    0.63    0.27
  -9  -7  -6    3.22    0.45
   9  -7   6    5.91    0.93
   9   7   6    3.94    0.59
 -10  -7  -6    0.14    0.39
  10  -7   6   -0.42    0.71
  10   7   6    0.16    0.40
 -10  -8   6    1.74    0.44
  10  -8  -6    0.25    0.36
  10  -8  -6    0.64    0.75
  -9  -8   6    2.67    0.40
   9  -8  -6    2.51    0.34
   9  -8  -6    2.83    0.72
  -8  -8   6    0.48    0.27
   8  -8  -6    0.04    0.21
   8  -8  -6    0.94    0.48
   7  -8  -6    0.42    0.18
  -7  -8   6    0.38    0.24
   7  -8  -6    0.45    0.40
   7   8  -6    0.21    0.16
   6  -8  -6    3.92    0.58
  -6  -8   6    4.43    0.44
   6  -8  -6    4.23    0.37
   6   8  -6    4.44    0.31
  -5  -8   6   43.59    2.20
   5  -8  -6   45.30    2.38
   5  -8  -6   44.23    2.16
   5   8  -6   47.52    2.11
   4  -8  -6    2.24    0.25
   4  -8  -6    2.11    0.39
  -4  -8   6    1.95    0.26
  -4  -8   6    2.30    0.25
   3  -8  -6    1.15    0.28
  -3  -8   6    0.96    0.15
   3  -8  -6    1.39    0.20
  -3  -8   6    0.99    0.20
   2  -8  -6   67.36    3.32
  -2  -8   6   68.99    3.23
   2  -8  -6   72.18    3.24
  -2  -8   6   68.85    3.26
  -1  -8   6    2.68    0.24
   1  -8  -6    2.10    0.23
   1  -8  -6    1.74    0.30
   0  -8  -6    3.65    0.30
   0  -8   6    4.51    0.29
   0  -8   6    4.18    0.29
   0  -8  -6    3.72    0.31
   1  -8   6    3.26    0.25
  -1  -8  -6    3.01    0.28
   1  -8   6    3.67    0.31
  -1  -8  -6    3.09    0.22
   1   8   6    3.63    0.30
   2  -8   6   28.19    1.44
   2  -8   6   30.71    1.36
  -2  -8  -6   29.96    1.42
   2   8   6   30.10    1.40
  -2   8  -6   24.30    1.33
   3  -8   6    4.49    0.25
   3  -8   6    3.76    0.41
  -3  -8  -6    3.63    0.35
  -3   8  -6    4.14    0.24
   3   8   6    3.70    0.31
  -4  -8  -6    2.59    0.33
   4  -8   6    2.51    0.41
  -4   8  -6    2.32    0.21
   4   8   6    2.25    0.26
  -4   8  -6    2.54    0.21
   5  -8   6    0.84    0.33
  -5  -8  -6    0.50    0.22
   5   8   6    0.82    0.20
   6  -8   6    2.34    0.42
  -6  -8  -6    2.47    0.30
   6   8   6    1.71    0.31
   7  -8   6    0.45    0.42
  -7  -8  -6   -0.34    0.21
   7   8   6   -0.14    0.21
  -8  -8  -6    0.25    0.27
   8  -8   6    1.04    0.53
   8   8   6   -0.10    0.24
   9  -8   6    8.21    1.08
  -9  -8  -6    6.04    0.70
   9   8   6    6.22    0.67
 -10  -8  -6    0.46    0.44
  10  -8   6    0.87    0.75
  10   8   6    0.17    0.40
  10  -9  -6    2.59    0.87
 -10  -9   6    2.69    0.47
   9  -9  -6   -0.20    0.28
   9  -9  -6   -0.44    0.63
  -9  -9   6    0.17    0.36
   8  -9  -6    0.92    0.25
  -8  -9   6    0.98    0.31
   8  -9  -6    1.19    0.58
  -7  -9   6    0.64    0.26
   7  -9  -6    0.56    0.42
   7  -9  -6    0.39    0.18
   6  -9  -6    3.63    0.34
  -6  -9   6    3.21    0.40
   6  -9  -6    4.68    0.66
   6   9  -6    3.97    0.30
   5  -9  -6   22.32    1.13
  -5  -9   6   21.99    1.15
   5  -9  -6   22.30    1.36
  -5  -9   6   21.50    1.17
   5   9  -6   23.01    1.07
   4  -9  -6    1.25    0.21
   4  -9  -6    1.10    0.34
  -4  -9   6    1.04    0.21
   3  -9  -6    4.50    0.50
  -3  -9   6    4.94    0.39
  -3  -9   6    4.23    0.31
   3  -9  -6    4.59    0.35
   2  -9  -6    1.05    0.26
  -2  -9   6    1.37    0.21
   2  -9  -6    1.16    0.17
  -2  -9   6    1.38    0.18
  -1  -9   6   15.77    0.76
   1  -9  -6   14.67    0.78
  -1  -9   6   14.83    0.78
   1  -9  -6   14.38    0.83
   0  -9  -6   21.09    1.13
   0  -9  -6   22.89    1.14
   0  -9   6   23.03    1.12
   0  -9   6   23.62    1.13
   1  -9   6    3.56    0.28
   1  -9   6    4.17    0.34
  -1  -9  -6    3.92    0.26
  -1  -9  -6    3.89    0.33
   2  -9   6   13.74    0.69
  -2  -9  -6   14.03    0.76
   2  -9   6   12.76    0.77
   2   9   6   13.32    0.73
  -3  -9  -6    1.09    0.21
   3  -9   6    1.56    0.29
   3  -9   6    1.55    0.18
  -3   9  -6    1.18    0.14
   3   9   6    1.52    0.25
   4  -9   6    5.64    0.35
  -4  -9  -6    6.43    0.46
   4  -9   6    6.97    0.61
   4   9   6    6.71    0.45
  -4   9  -6    5.97    0.37
  -5  -9  -6   23.90    1.26
   5  -9   6   24.59    1.40
   5   9   6   24.03    1.25
   6  -9   6    1.76    0.41
  -6  -9  -6    0.81    0.24
   6   9   6    1.33    0.26
   7  -9   6    0.08    0.42
  -7  -9  -6   -0.09    0.24
   7   9   6   -0.21    0.20
  -8  -9  -6    0.45    0.31
   8  -9   6    0.93    0.57
   8   9   6    0.79    0.27
   9  -9   6    6.23    1.02
  -9  -9  -6    3.45    0.51
   9   9   6    3.39    0.44
  -9 -10   6    0.25    0.40
   9 -10  -6    0.64    0.32
   9 -10  -6   -0.04    0.66
  -8 -10   6    3.99    0.54
   8 -10  -6    4.76    0.45
   8 -10  -6    4.40    0.73
   7 -10  -6    2.16    0.28
  -7 -10   6    3.09    0.46
   7 -10  -6    2.64    0.55
  -6 -10   6    3.11    0.42
   6 -10  -6    3.16    0.33
   6 -10  -6    4.06    0.65
   5 -10  -6    0.58    0.19
  -5 -10   6    0.38    0.19
  -5 -10   6   -0.01    0.21
   5 -10  -6   -0.52    0.38
  -4 -10   6    4.37    0.43
  -4 -10   6    5.15    0.36
   4 -10  -6    3.85    0.57
   4 -10  -6    4.75    0.38
  -3 -10   6    8.60    0.54
  -3 -10   6    7.62    0.47
   3 -10  -6    8.54    0.51
   3 -10  -6    7.87    0.63
   2 -10  -6    8.61    0.51
  -2 -10   6    8.06    0.54
   2 -10  -6    7.35    0.60
  -2 -10   6    8.88    0.47
  -1 -10   6    7.52    0.49
   1 -10  -6    7.88    0.49
   1 -10  -6    6.56    0.53
  -1 -10   6    8.75    0.46
   0 -10  -6   19.89    1.05
   0 -10   6   20.52    1.02
   0 -10   6   21.06    1.03
   0 -10  -6   19.66    1.04
  -1 -10  -6   11.61    0.65
   1 -10   6   13.14    0.69
  -1 -10  -6   13.69    0.73
   1 -10   6   13.39    0.73
   2 -10   6    6.06    0.38
  -2 -10  -6    5.48    0.43
   2 -10   6    5.96    0.49
   2  10   6    6.54    0.44
   3 -10   6    6.42    0.37
  -3 -10  -6    5.22    0.45
   3 -10   6    6.60    0.55
   3  10   6    5.79    0.44
  -4 -10  -6    3.45    0.38
   4 -10   6    3.78    0.29
   4 -10   6    3.81    0.51
  -4  10  -6    3.58    0.37
   4  10   6    3.52    0.36
   5 -10   6   12.81    0.71
   5 -10   6   15.34    0.99
  -5 -10  -6   13.79    0.85
   5  10   6   14.77    0.82
  -6 -10  -6   11.02    0.76
   6 -10   6   12.62    0.93
   6  10   6   12.29    0.74
  -7 -10  -6   -0.02    0.27
   7 -10   6    0.38    0.47
   7  10   6    0.66    0.23
  -8 -10  -6    4.70    0.60
   8 -10   6    6.32    0.91
   8  10   6    4.35    0.51
  -9 -10  -6    6.18    0.73
   9  10   6    4.43    0.63
   9 -11  -6    3.46    0.45
  -9 -11   6    3.69    0.52
   9 -11  -6    3.41    0.78
   8 -11  -6    0.80    0.28
  -8 -11   6    0.73    0.35
   8 -11  -6    1.13    0.58
  -7 -11   6    0.39    0.27
   7 -11  -6    0.14    0.22
   7 -11  -6    0.72    0.47
   6 -11  -6   13.80    0.77
  -6 -11   6   13.46    0.85
   6 -11  -6   13.78    1.05
   5 -11  -6    0.55    0.41
  -5 -11   6    0.18    0.24
  -5 -11   6    0.29    0.22
   5 -11  -6    0.38    0.18
   4 -11  -6    0.40    0.39
   4 -11  -6    0.41    0.20
  -4 -11   6    0.44    0.22
  -4 -11   6    0.95    0.20
  -3 -11   6    0.13    0.20
  -3 -11   6    0.43    0.15
   3 -11  -6   -0.04    0.28
   3 -11  -6    0.32    0.17
  -2 -11   6    8.06    0.48
  -2 -11   6    8.56    0.55
   2 -11  -6    7.77    0.63
   2 -11  -6    8.57    0.52
  -1 -11   6    7.84    0.45
   1 -11  -6    6.90    0.53
  -1 -11   6    7.72    0.50
   1 -11  -6    6.71    0.48
   0 -11   6    1.44    0.22
   0 -11  -6    1.44    0.23
   0 -11   6    1.58    0.25
   0 -11  -6    1.24    0.23
  -1 -11  -6    0.25    0.17
   1 -11   6    0.41    0.19
   1 -11   6    0.29    0.16
  -1 -11  -6    0.49    0.14
   2 -11   6    7.47    0.58
  -2 -11  -6    7.80    0.52
   2 -11   6    7.38    0.46
  -3 -11  -6    3.97    0.41
   3 -11   6    4.26    0.52
   3 -11   6    5.01    0.35
   3  11   6    4.53    0.42
  -4 -11  -6    0.06    0.22
   4 -11   6    0.13    0.16
   4 -11   6    0.04    0.28
   4  11   6   -0.03    0.21
   5 -11   6    3.98    0.40
  -5 -11  -6    3.03    0.42
   5 -11   6    3.82    0.56
   5  11   6    3.39    0.43
   6 -11   6    6.92    0.74
  -6 -11  -6    5.45    0.56
   6  11   6    6.71    0.51
   7 -11   6   -0.62    0.46
  -7 -11  -6   -0.18    0.28
   7  11   6   -0.27    0.22
   8 -11   6    6.27    0.95
  -8 -11  -6    3.57    0.47
   8  11   6    3.44    0.49
   9 -11   6    0.06    0.72
  -9 -11  -6    0.56    0.47
   9  11   6   -0.44    0.33
  -9 -12   6    0.33    0.44
   9 -12  -6   -1.46    0.72
  -8 -12   6    5.12    0.66
   8 -12  -6    4.76    0.54
   8 -12  -6    4.90    0.82
   7 -12  -6    0.15    0.22
   7 -12  -6    0.07    0.49
  -7 -12   6    0.14    0.31
   6 -12  -6    0.26    0.44
   6 -12  -6    0.29    0.21
  -6 -12   6    0.20    0.28
   5 -12  -6   15.37    1.06
  -5 -12   6   12.32    0.84
  -5 -12   6   13.24    0.80
   5 -12  -6   14.46    0.78
   4 -12  -6   15.29    0.85
   4 -12  -6   14.62    1.07
  -4 -12   6   15.86    0.91
  -4 -12   6   15.50    0.84
  -3 -12   6   16.51    0.86
   3 -12  -6   17.04    0.89
  -3 -12   6   16.51    0.92
   3 -12  -6   15.30    1.04
  -2 -12   6    8.62    0.49
   2 -12  -6    8.52    0.64
   2 -12  -6    7.42    0.54
  -2 -12   6    8.51    0.57
  -1 -12   6    3.15    0.28
   1 -12  -6    2.45    0.40
   1 -12  -6    2.23    0.32
  -1 -12   6    2.43    0.31
   0 -12   6    2.94    0.32
   0 -12  -6    2.81    0.34
   0 -12  -6    2.94    0.34
   0 -12   6    2.48    0.35
   1 -12   6    3.98    0.39
  -1 -12  -6    3.46    0.29
  -1 -12  -6    3.67    0.37
   1 -12   6    3.72    0.37
  -2 -12  -6    0.55    0.11
   2 -12   6    0.31    0.17
   2 -12   6    0.64    0.27
  -2 -12  -6    0.17    0.20
   3 -12   6   99.74    4.90
   3 -12   6  111.71    4.79
  -3 -12  -6  104.95    4.86
   3  12   6   95.62    4.82
  -4 -12  -6   10.21    0.66
   4 -12   6    9.10    0.56
   4 -12   6   10.34    0.78
   4  12   6    7.96    0.64
  -5 -12  -6    0.29    0.26
   5 -12   6    0.60    0.37
   5  12   6    0.12    0.22
  -6 -12  -6    2.94    0.40
   6 -12   6    3.95    0.57
   6  12   6    2.14    0.30
   7 -12   6    3.72    0.66
  -7 -12  -6    3.74    0.47
   7  12   6    2.83    0.43
   8 -12   6    2.32    0.73
  -8 -12  -6    1.40    0.43
   8  12   6    1.60    0.32
   8 -13  -6    0.03    0.34
   8 -13  -6   -0.82    0.64
  -8 -13   6    0.14    0.40
   7 -13  -6    0.76    0.29
  -7 -13   6    0.87    0.37
   7 -13  -6    0.39    0.58
  -6 -13   6   -0.28    0.30
   6 -13  -6    0.72    0.25
   6 -13  -6    0.39    0.47
  -5 -13   6    0.75    0.26
  -5 -13   6    0.38    0.30
   5 -13  -6    0.72    0.22
   5 -13  -6   -0.02    0.41
   4 -13  -6    1.56    0.42
  -4 -13   6    1.18    0.30
  -3 -13   6   20.05    1.01
  -3 -13   6   19.06    1.08
   3 -13  -6   19.21    1.21
   3 -13  -6   19.06    1.04
  -2 -13   6    0.04    0.16
   2 -13  -6   -0.12    0.21
   2 -13  -6   -0.02    0.29
  -2 -13   6    0.12    0.23
  -1 -13   6   -0.17    0.22
   1 -13  -6   -0.23    0.20
  -1 -13   6    0.38    0.18
   1 -13  -6    0.18    0.26
   0 -13  -6    3.29    0.40
   0 -13  -6    3.01    0.37
   0 -13   6    3.88    0.37
   0 -13   6    3.27    0.44
   1 -13   6    5.83    0.49
  -1 -13  -6    5.65    0.38
   1 -13   6    5.49    0.51
  -1 -13  -6    4.87    0.47
  -2 -13  -6    0.79    0.25
  -2 -13  -6    0.85    0.13
   2 -13   6    0.84    0.22
   2 -13   6    0.87    0.30
   3 -13   6   17.00    1.05
   3 -13   6   17.75    0.92
  -3 -13  -6   17.31    1.00
  -4 -13  -6   18.83    1.07
   4 -13   6   20.12    0.98
   4 -13   6   18.59    1.15
   4  13   6   17.00    1.03
   5 -13   6   17.68    1.12
  -5 -13  -6   15.19    0.98
   5  13   6   14.81    0.91
   6 -13   6    4.90    0.82
  -6 -13  -6    4.92    0.56
   6  13   6    4.32    0.49
  -7 -13  -6    6.85    0.67
   7 -13   6    7.65    1.01
   7  13   6    5.65    0.55
  -8 -13  -6   -0.30    0.41
   8 -13   6   -0.24    0.65
   8  13   6   -0.23    0.30
   8 -14  -6    2.33    0.75
  -8 -14   6    3.24    0.53
   8 -14  -6    2.89    0.48
   7 -14  -6    3.36    0.68
  -7 -14   6    3.96    0.56
   7 -14  -6    3.49    0.53
  -6 -14   6   -0.35    0.32
   6 -14  -6   -0.19    0.26
   6 -14  -6    0.73    0.51
  -5 -14   6    1.70    0.34
   5 -14  -6    1.45    0.28
   5 -14  -6    2.13    0.49
  -5 -14   6    2.00    0.38
  -4 -14   6    5.05    0.46
  -4 -14   6    5.87    0.55
   4 -14  -6    4.22    0.71
   4 -14  -6    5.30    0.47
   3 -14  -6    2.06    0.51
  -3 -14   6    1.97    0.28
  -3 -14   6    1.48    0.32
   3 -14  -6    2.26    0.31
   2 -14  -6    4.81    0.49
  -2 -14   6    4.93    0.49
   2 -14  -6    5.55    0.59
  -2 -14   6    5.80    0.43
   1 -14  -6    5.10    0.49
  -1 -14   6    5.20    0.48
   1 -14  -6    4.52    0.53
  -1 -14   6    6.07    0.44
   0 -14   6    6.20    0.47
   0 -14  -6    5.19    0.49
   0 -14   6    5.73    0.50
   0 -14  -6    4.57    0.45
   1 -14   6   14.75    0.88
  -1 -14  -6   14.14    0.75
   1 -14   6   14.86    0.86
  -1 -14  -6   13.40    0.86
  -2 -14  -6    8.09    0.44
   2 -14   6    8.40    0.65
   2 -14   6    8.52    0.60
  -2 -14  -6    7.55    0.62
   3 -14   6    0.07    0.34
   3 -14   6   -0.01    0.23
  -3 -14  -6    0.42    0.29
   4 -14   6    0.61    0.25
   4 -14   6    0.59    0.38
  -4 -14  -6    1.02    0.33
   5 -14   6    1.87    0.45
  -5 -14  -6    1.13    0.34
   5  14   6    0.74    0.26
  -6 -14  -6    0.02    0.33
   6 -14   6    0.96    0.53
   6  14   6   -0.28    0.26
   7 -14   6    0.66    0.64
  -7 -14  -6    0.65    0.44
   7  14   6    0.53    0.31
   8 -14   6    0.03    0.76
  -8 -14  -6    0.24    0.49
   8  14   6   -0.65    0.35
   7 -15  -6   -0.18    0.38
  -7 -15   6    0.18    0.44
   7 -15  -6   -0.37    0.62
   6 -15  -6    1.46    0.61
   6 -15  -6    1.01    0.33
  -6 -15   6    0.12    0.40
   5 -15  -6    2.76    0.35
   5 -15  -6    1.79    0.54
  -5 -15   6    3.14    0.54
  -5 -15   6    2.37    0.43
  -4 -15   6   14.60    0.89
  -4 -15   6   15.65    0.98
   4 -15  -6   15.33    1.10
   4 -15  -6   15.01    0.90
   3 -15  -6   23.59    1.26
  -3 -15   6   23.83    1.30
  -3 -15   6   23.72    1.22
   3 -15  -6   22.05    1.39
   2 -15  -6   27.21    1.55
   2 -15  -6   28.08    1.46
  -2 -15   6   27.01    1.46
  -2 -15   6   29.04    1.41
  -1 -15   6   29.96    1.50
  -1 -15   6   29.07    1.53
   1 -15  -6   28.30    1.54
   1 -15  -6   30.75    1.55
   0 -15  -6    1.97    0.32
   0 -15   6    1.83    0.32
   0 -15  -6    1.80    0.34
   0 -15   6    1.85    0.32
  -1 -15  -6   11.71    0.79
   1 -15   6   12.75    0.78
   1 -15   6   11.83    0.75
  -1 -15  -6   11.35    0.65
  -2 -15  -6    1.82    0.36
   2 -15   6    2.11    0.37
   2 -15   6    3.06    0.46
   3 -15   6    9.07    0.69
   3 -15   6    9.57    0.78
  -3 -15  -6    8.80    0.71
  -4 -15  -6    9.50    0.78
   4 -15   6    9.84    0.87
   5 -15   6    6.10    0.79
  -5 -15  -6    5.24    0.64
  -6 -15  -6    0.84    0.44
   6 -15   6    1.62    0.56
   6  15   6    1.31    0.32
   7 -15   6   -0.04    0.61
  -7 -15  -6    0.04    0.45
   7  15   6   -0.66    0.35
  -7 -16   6    1.08    0.49
   7 -16  -6    1.79    0.72
   7 -16  -6    1.70    0.46
   6 -16  -6    1.37    0.61
  -6 -16   6    0.64    0.46
   6 -16  -6    2.08    0.41
  -5 -16   6    3.39    0.56
   5 -16  -6    3.66    0.52
   5 -16  -6    3.45    0.63
  -5 -16   6    2.85    0.48
  -4 -16   6    0.63    0.36
   4 -16  -6    1.05    0.30
  -4 -16   6    1.11    0.34
   4 -16  -6    0.99    0.49
  -3 -16   6   21.06    1.23
   3 -16  -6   20.77    1.34
  -3 -16   6   21.30    1.15
   3 -16  -6   21.16    1.18
  -2 -16   6   12.58    0.85
   2 -16  -6   12.08    1.01
  -2 -16   6   12.69    0.75
   2 -16  -6   12.48    0.82
   1 -16  -6    0.46    0.33
   1 -16  -6    0.78    0.30
  -1 -16   6    0.32    0.25
  -1 -16   6    0.19    0.29
   0 -16  -6    7.82    0.66
   0 -16   6    7.11    0.63
   0 -16  -6    7.44    0.58
   0 -16   6    8.56    0.60
   1 -16   6    2.66    0.36
  -1 -16  -6    1.87    0.25
   1 -16   6    2.21    0.36
  -1 -16  -6    2.23    0.42
   2 -16   6    9.04    0.68
   2 -16   6    9.38    0.73
  -2 -16  -6   10.23    0.78
   3 -16   6    3.69    0.43
  -3 -16  -6    2.89    0.45
   3 -16   6    2.84    0.47
   4 -16   6    8.95    0.86
  -4 -16  -6   10.46    0.80
   5 -16   6    1.06    0.53
  -5 -16  -6    0.23    0.42
  -6 -16  -6    0.30    0.45
   6 -16   6    0.18    0.59
   7 -16   6    1.59    0.77
  -7 -16  -6    0.76    0.50
   7  16   6    0.05    0.38
   6 -17  -6    2.56    0.49
   6 -17  -6    2.21    0.73
  -6 -17   6    2.54    0.54
  -5 -17   6    0.32    0.37
  -5 -17   6    0.34    0.43
   5 -17  -6    0.87    0.61
   5 -17  -6    0.13    0.34
  -4 -17   6    4.35    0.53
   4 -17  -6    3.78    0.57
   4 -17  -6    2.87    0.65
  -4 -17   6    3.24    0.49
  -3 -17   6    2.02    0.34
   3 -17  -6    1.73    0.34
  -3 -17   6    2.02    0.39
   3 -17  -6    1.22    0.53
  -2 -17   6    0.21    0.32
  -2 -17   6   -0.23    0.25
   2 -17  -6   -0.08    0.31
   2 -17  -6   -0.02    0.42
   1 -17  -6    0.46    0.38
   1 -17  -6    0.27    0.30
  -1 -17   6   -0.07    0.32
  -1 -17   6    0.17    0.26
   0 -17   6    0.42    0.32
   0 -17   6   -0.09    0.27
   0 -17  -6   -0.22    0.27
   0 -17  -6    0.75    0.33
   1 -17   6    0.12    0.30
   1 -17   6    0.36    0.30
  -1 -17  -6   -0.25    0.35
   2 -17   6    1.52    0.38
  -2 -17  -6    1.67    0.43
   2 -17   6    1.33    0.35
   3 -17   6    5.28    0.71
  -3 -17  -6    5.92    0.72
   3 -17   6    5.88    0.68
  -4 -17  -6    7.16    0.79
   4 -17   6    6.93    0.85
   5 -17   6    2.44    0.60
  -5 -17  -6    2.19    0.54
  -6 -17  -6    1.00    0.53
   6 -17   6    2.15    0.68
   5 -18  -6    0.92    0.67
   5 -18  -6    1.02    0.44
  -5 -18   6    1.43    0.50
  -4 -18   6   -0.58    0.43
  -4 -18   6    0.03    0.34
   4 -18  -6    0.47    0.38
   4 -18  -6    0.03    0.58
  -3 -18   6   -0.08    0.40
  -3 -18   6    0.49    0.32
   3 -18  -6    0.49    0.38
   3 -18  -6   -0.24    0.50
   2 -18  -6    6.64    0.69
  -2 -18   6    5.88    0.58
  -2 -18   6    6.58    0.71
   2 -18  -6    7.12    0.82
  -1 -18   6    1.70    0.35
   1 -18  -6    1.51    0.41
  -1 -18   6    0.98    0.40
   1 -18  -6    1.80    0.46
   0 -18  -6    0.15    0.36
   0 -18   6    0.17    0.31
   0 -18   6   -0.23    0.34
   0 -18  -6    0.53    0.30
   1 -18   6    7.52    0.69
   1 -18   6    7.90    0.71
  -1 -18  -6    9.23    0.77
   2 -18   6    0.06    0.37
  -2 -18  -6   -0.16    0.38
   2 -18   6    0.36    0.40
  -3 -18  -6   10.67    0.95
   3 -18   6   11.77    0.92
   4 -18   6    4.44    0.65
  -4 -18  -6    4.15    0.62
  -5 -18  -6    0.54    0.49
   5 -18   6    0.22    0.57
   5 -19  -6   -1.39    0.71
   5 -19  -6    1.25    0.53
  -5 -19   6   -0.45    0.54
  -4 -19   6    0.17    0.49
   4 -19  -6    0.14    0.64
   4 -19  -6    0.22    0.43
   3 -19  -6    0.61    0.57
  -3 -19   6    0.61    0.35
   3 -19  -6    0.97    0.43
  -3 -19   6    1.47    0.51
  -2 -19   6    0.77    0.35
  -2 -19   6    0.69    0.45
   2 -19  -6    1.17    0.44
   2 -19  -6    0.34    0.46
  -1 -19   6    6.67    0.64
   1 -19  -6    6.18    0.76
  -1 -19   6    6.84    0.76
   1 -19  -6    6.65    0.72
   0 -19   6   -0.10    0.33
   0 -19   6   -0.05    0.40
   0 -19  -6   -0.39    0.40
   1 -19   6    2.78    0.46
  -1 -19  -6    1.85    0.53
   1 -19   6    2.20    0.49
   2 -19   6    0.39    0.47
   2 -19   6    0.03    0.41
  -2 -19  -6    0.21    0.48
  -3 -19  -6    1.19    0.53
   3 -19   6    1.66    0.51
  -4 -19  -6   -0.30    0.50
   4 -19   6    0.15    0.55
   3 -20  -6   -0.34    0.58
   3 -20  -6    0.24    0.52
  -3 -20   6    0.60    0.40
  -3 -20   6   -0.11    0.54
   2 -20  -6    1.20    0.54
  -2 -20   6    1.20    0.54
   2 -20  -6    0.77    0.52
  -2 -20   6    0.83    0.38
  -1 -20   6    2.30    0.44
  -1 -20   6    3.29    0.57
   1 -20  -6    2.39    0.53
   0 -20   6    0.27    0.38
   0 -20   6   -0.98    0.47
   0 -20  -6    0.04    0.47
  -1 -20  -6    1.41    0.51
   1 -20   6    1.50    0.47
   1 -20   6    1.74    0.54
  -2 -20  -6    7.98    0.89
   2 -20   6    7.62    0.86
  -3 -20  -6    1.11    0.61
   3 -20   6    1.56    0.56
   1 -21  -6    0.08    0.57
  -1 -21   6    0.07    0.40
  -1 -21   6    0.45    0.62
   0 -21   6   -1.07    0.59
   0 -21  -6   -0.31    0.56
   0 -21   6   -0.35    0.43
   1 -21   6    2.17    0.65
   1 -21   6    1.95    0.51
  -1 -21  -6    3.25    0.64
  11   0  -7    2.00    0.53
  11   0  -7    3.19    0.87
  10   0  -7   -0.41    0.34
   9   0  -7    1.60    0.33
   8   0  -7   -0.01    0.25
   8   0  -7   -0.41    0.24
   7   0  -7    6.46    0.50
   7   0  -7    5.31    0.49
   6   0  -7    0.12    0.18
   6   0  -7    0.25    0.17
   5   0  -7    5.09    0.38
   5   0  -7    4.63    0.38
   3   0  -7   87.13    4.08
   3   0  -7   87.71    4.08
   2   0  -7    0.05    0.08
  -1   0   7    7.31    0.42
  -1   0   7    8.67    0.40
  -1   0   7    7.37    0.43
   1   0  -7    7.94    0.41
  -1   0   7    7.66    0.40
   0   0   7   -0.24    0.06
   0   0   7   -0.20    0.05
   0   0  -7   -0.18    0.05
   0   0   7   -0.22    0.05
   1   0   7   11.01    0.52
  -1   0  -7   10.69    0.52
   1   0   7   10.34    0.55
   1   0   7   11.05    0.52
   2   0   7   -0.03    0.07
   2   0   7    0.06    0.09
   2   0   7   -0.05    0.05
  -2   0  -7   -0.03    0.04
  -3   0  -7   10.50    0.49
   3   0   7    9.04    0.53
   3   0   7   10.22    0.48
   3   0   7    9.93    0.58
   4   0   7   -0.14    0.08
   4   0   7   -0.08    0.14
   5   0   7    5.94    0.44
  -5   0  -7    6.07    0.35
   5   0   7    5.71    0.49
  -6   0  -7    0.13    0.12
   6   0   7   -0.02    0.24
   6   0   7    0.30    0.24
  -7   0  -7    6.61    0.41
   7   0   7    5.75    0.65
  -8   0  -7   -0.08    0.19
   8   0   7   -0.13    0.32
   8   0   7    0.23    0.45
   9   0   7    5.92    0.80
   9   0   7    5.19    0.76
  10   0   7   -0.37    0.47
  10   0   7   -0.13    0.60
  11  -1  -7    2.32    0.82
  11  -1  -7    1.79    0.50
  11   1  -7    1.99    0.80
  11   1  -7    1.19    0.52
  11   1  -7    0.99    0.58
  10  -1  -7   -0.09    0.59
  10  -1  -7   -0.22    0.31
  10   1  -7    0.35    0.37
   9  -1  -7    0.54    0.27
   9   1  -7    0.76    0.30
   9   1  -7    0.77    0.30
   8  -1  -7    1.49    0.29
   8   1  -7    1.09    0.30
   8   1  -7    0.87    0.29
   7  -1  -7    2.24    0.30
   7   1  -7    2.01    0.32
   7   1  -7    1.70    0.30
   6  -1  -7    0.78    0.21
   6   1  -7    1.04    0.22
   6   1  -7    0.74    0.21
   5  -1  -7   -0.11    0.14
   5   1  -7    0.26    0.17
   5   1  -7   -0.10    0.16
   4  -1  -7   46.59    2.18
   4   1  -7   45.31    2.19
   4   1  -7   44.70    2.19
   3  -1  -7   60.02    2.85
   3   1  -7   60.25    2.86
   3   1  -7   62.02    2.87
  -2  -1   7    6.48    0.37
   2  -1  -7    6.62    0.37
   2   1  -7    6.68    0.39
   2   1  -7    6.73    0.38
  -1  -1   7   16.97    0.80
   1  -1  -7   16.99    0.81
  -1  -1   7   18.79    0.78
   1   1  -7   13.99    0.79
   1   1  -7   15.06    0.80
   1   1  -7   17.44    0.82
  -1   1   7   15.88    0.80
   1   1  -7   17.54    0.82
   0  -1   7    1.68    0.13
   0  -1  -7    1.83    0.13
   0  -1   7    2.03    0.15
   0  -1   7    1.97    0.15
   0  -1   7    1.77    0.14
   0   1   7    1.96    0.14
   0   1  -7    1.69    0.14
   0   1   7    2.02    0.14
   0   1   7    2.04    0.15
   1  -1   7    4.66    0.31
   1  -1   7    5.68    0.27
   1  -1   7    4.60    0.28
  -1  -1  -7    5.07    0.27
   1   1   7    4.99    0.28
  -1   1  -7    5.87    0.26
   1   1   7    5.24    0.31
   1   1   7    5.61    0.27
   2  -1   7   30.54    1.50
  -2  -1  -7   30.32    1.47
   2  -1   7   35.59    1.46
   2  -1   7   29.91    1.53
  -2   1  -7   29.44    1.46
   2   1   7   31.83    1.52
   2   1   7   31.32    1.47
   2   1   7   33.82    1.47
   3  -1   7   16.50    0.86
  -3  -1  -7   17.12    0.82
   3  -1   7   16.93    0.79
   3  -1   7   17.18    0.90
   3   1   7   15.84    0.81
   3   1   7   17.79    0.89
  -3   1  -7   18.45    0.80
   3   1   7   16.00    0.83
   4  -1   7   21.24    1.02
   4  -1   7   19.60    1.09
  -4  -1  -7   23.20    1.04
   4   1   7   19.72    1.07
  -4   1  -7   23.93    1.02
   4   1   7   21.87    1.14
  -5  -1  -7    6.08    0.35
   5  -1   7    5.40    0.45
   5  -1   7    5.69    0.33
   5   1   7    5.79    0.47
  -5   1  -7    6.02    0.33
   5   1   7    5.45    0.43
   6  -1   7   -0.03    0.25
  -6  -1  -7    0.32    0.14
  -6   1  -7    0.37    0.12
   6   1   7    0.59    0.24
   6   1   7    0.26    0.25
   7  -1   7   21.29    1.24
  -7  -1  -7   21.93    1.05
   7  -1   7   20.81    1.23
   7   1   7   21.64    1.24
  -7   1  -7   21.04    1.02
   7   1   7   17.49    1.16
  -8  -1  -7   22.10    1.19
   8  -1   7   23.22    1.20
   8  -1   7   24.47    1.44
   8  -1   7   20.79    1.39
   8  -1   7   24.12    1.21
   8   1   7   25.50    1.42
   8   1   7   23.56    1.39
  -9  -1  -7    2.04    0.31
   9  -1   7    1.40    0.47
   9  -1   7    1.92    0.53
   9   1   7    1.86    0.47
   9   1   7    2.64    0.55
  10  -1   7    3.28    0.61
  10  -1   7    3.37    0.71
  10   1   7    3.58    0.73
  10   1   7    4.81    0.78
  11  -2  -7    1.61    0.78
  11  -2  -7    0.75    0.46
  11   2  -7    0.66    0.53
  11   2  -7   -0.42    0.78
  10  -2  -7    0.75    0.61
  10  -2  -7   -0.21    0.32
  10   2  -7    0.72    0.37
  10   2  -7   -0.30    0.37
  10   2  -7   -0.09    0.43
   9  -2  -7    4.59    0.47
   9   2  -7    3.52    0.55
   9   2  -7    4.03    0.55
   8  -2  -7   14.43    0.85
   8   2  -7   14.89    0.93
   8   2  -7   14.66    0.94
   7  -2  -7   79.11    3.89
   7   2  -7   83.32    3.95
   7   2  -7   84.62    3.95
  -6  -2   7    1.29    0.20
   6  -2  -7    1.55    0.23
   5  -2  -7   29.17    1.40
  -5  -2   7   27.08    1.38
  -4  -2   7   -0.03    0.11
   4  -2  -7   -0.07    0.11
  -3  -2   7   10.33    0.57
  -3  -2   7   11.46    0.57
   3  -2  -7   10.41    0.57
  -2  -2   7   11.23    0.59
  -2  -2   7   11.88    0.60
   2   2  -7   11.96    0.55
  -1  -2   7   16.63    0.86
   1  -2  -7   18.17    0.86
  -1  -2   7   20.61    0.84
  -1  -2   7   19.79    0.87
   1   2  -7   17.63    0.84
   1   2  -7   16.35    0.88
   1   2  -7   15.89    0.87
   0  -2  -7    0.05    0.05
   0  -2   7    0.08    0.06
   0  -2   7    0.01    0.06
   0   2   7    0.04    0.06
   0   2  -7    0.00    0.06
   0   2   7    0.14    0.07
   0   2   7    0.22    0.07
   0   2  -7   -0.03    0.06
   0   2  -7    0.03    0.07
   1  -2   7   55.69    2.83
   1  -2   7   59.19    2.81
  -1  -2  -7   61.53    2.80
   1   2   7   63.69    2.79
   1   2   7   62.75    2.80
   1   2   7   60.82    2.82
  -1   2  -7   61.23    2.79
  -1   2  -7   60.31    2.79
  -2  -2  -7    9.53    0.49
   2  -2   7    9.35    0.52
   2   2   7    9.67    0.49
   2   2   7   10.90    0.48
   3  -2   7    6.36    0.41
  -3  -2  -7    6.62    0.36
   3   2   7    6.73    0.42
   3   2   7    6.05    0.35
   4  -2   7    0.28    0.17
  -4  -2  -7    0.03    0.10
   4  -2   7   -0.12    0.05
  -4   2  -7   -0.04    0.06
   4   2   7    0.24    0.13
   4   2   7    0.00    0.13
  -5  -2  -7    2.85    0.24
   5  -2   7    2.35    0.19
   5  -2   7    2.74    0.35
   5   2   7    2.34    0.29
   5   2   7    2.67    0.32
   6  -2   7    0.01    0.25
  -6  -2  -7    0.26    0.15
   6  -2   7    0.19    0.13
   6  -2   7    0.36    0.13
   6  -2   7    0.40    0.16
   6   2   7    0.56    0.24
   6   2   7    0.12    0.23
   7  -2   7   63.98    3.14
   7  -2   7   65.03    2.96
   7  -2   7   64.75    2.96
  -7  -2  -7   61.10    2.97
   7   2   7   60.60    3.11
   7   2   7   62.35    3.05
  -8  -2  -7    9.53    0.66
   8  -2   7   11.79    0.93
   8   2   7    9.55    0.84
   8   2   7   11.18    0.84
  -9  -2  -7    1.43    0.28
   9  -2   7    0.82    0.44
   9  -2   7    1.94    0.52
   9   2   7    0.89    0.39
   9   2   7    1.48    0.56
  10  -2   7   -0.07    0.61
  10  -2   7    0.04    0.53
  10   2   7    0.97    0.46
  10   2   7   -0.26    0.65
  11  -3  -7    1.19    0.44
  11  -3  -7    1.54    0.73
  11   3  -7    0.18    0.51
  11   3  -7    0.40    0.51
  10  -3  -7    1.43    0.33
  10  -3  -7    1.60    0.67
  10   3  -7    1.12    0.42
  10   3  -7    1.01    0.42
  10   3  -7    0.16    0.43
   9  -3  -7    1.10    0.27
   9  -3  -7    0.48    0.54
   9   3  -7    1.63    0.36
   9   3  -7    0.78    0.40
   9   3  -7    1.06    0.35
   8  -3  -7    1.39    0.26
   8   3  -7    1.37    0.36
   8   3  -7    0.61    0.35
  -7  -3   7    1.68    0.26
   7  -3  -7    1.28    0.24
   6  -3  -7   47.23    2.28
  -6  -3   7   47.53    2.28
  -5  -3   7    0.16    0.16
   5  -3  -7    0.13    0.14
  -4  -3   7    3.45    0.28
   4  -3  -7    3.88    0.28
  -3  -3   7   14.26    0.71
  -3  -3   7   13.18    0.70
   3  -3  -7   13.64    0.70
  -2  -3   7   33.83    1.63
  -2  -3   7   33.77    1.63
   2  -3  -7   35.71    1.63
  -1  -3   7   24.34    1.14
  -1  -3   7   23.63    1.14
  -1  -3   7   23.86    1.11
   1  -3  -7   23.84    1.14
   0  -3  -7   33.78    1.61
   0  -3   7   34.85    1.60
   0  -3   7   31.66    1.61
   0  -3   7   35.29    1.61
   0   3  -7   35.42    1.61
   0   3   7   35.33    1.62
  -1  -3  -7   13.48    0.68
   1  -3   7   12.95    0.69
  -1  -3  -7   15.59    0.65
   1   3   7   14.51    0.69
   1   3   7   13.44    0.65
  -1   3  -7   13.22    0.66
  -1   3  -7   13.57    0.65
  -1   3  -7   13.57    0.66
   2  -3   7   11.96    0.67
  -2  -3  -7   12.80    0.64
  -2  -3  -7   11.40    0.62
   2   3   7   15.68    0.68
  -3  -3  -7   12.65    0.62
   3  -3   7   12.15    0.67
   3   3   7   12.31    0.66
   3   3   7   11.69    0.59
  -4  -3  -7    3.06    0.24
   4  -3   7    3.19    0.31
   4   3   7    2.55    0.24
   4   3   7    3.18    0.30
   5  -3   7   11.28    0.71
   5  -3   7   11.70    0.55
  -5  -3  -7   12.09    0.63
   5   3   7   12.02    0.70
   5   3   7   10.34    0.63
   6  -3   7    1.79    0.18
   6  -3   7    1.45    0.33
   6  -3   7    1.47    0.19
  -6  -3  -7    1.50    0.22
   6   3   7    0.97    0.24
   6   3   7    1.17    0.27
   7  -3   7    1.87    0.24
   7  -3   7    1.64    0.49
   7   3   7    1.68    0.34
   7   3   7    1.65    0.34
   8  -3   7    5.01    0.74
  -8  -3  -7    4.45    0.45
   8   3   7    4.04    0.60
   8   3   7    4.72    0.62
   9  -3   7    0.26    0.49
  -9  -3  -7    0.46    0.27
   9   3   7    0.59    0.53
   9   3   7    0.13    0.36
  10  -3   7    2.03    0.58
  10  -3   7    1.19    0.67
 -10  -3  -7    2.08    0.47
  10   3   7    2.42    0.51
  10  -4  -7    0.62    0.30
  10  -4  -7    0.67    0.69
  10   4  -7    1.11    0.44
  10   4  -7    0.36    0.39
   9  -4  -7    7.04    0.54
   9  -4  -7    5.72    0.94
   9   4  -7    8.31    0.73
   9   4  -7    6.48    0.74
   9   4  -7    6.81    0.69
  -8  -4   7    0.32    0.23
   8  -4  -7   -0.16    0.20
   8   4  -7    0.15    0.25
  -7  -4   7    6.57    0.49
   7  -4  -7    5.19    0.43
   7   4  -7    5.97    0.48
   6  -4  -7   13.05    0.73
  -6  -4   7   12.55    0.73
   6   4  -7   12.80    0.72
  -5  -4   7    0.89    0.18
   5  -4  -7    1.54    0.23
   5   4  -7    1.02    0.16
  -4  -4   7    3.90    0.31
   4  -4  -7    4.27    0.30
   4   4  -7    4.37    0.27
   3  -4  -7   71.03    3.31
  -3  -4   7   69.58    3.31
  -3  -4   7   72.21    3.32
   2  -4  -7   26.52    1.27
  -2  -4   7   25.87    1.26
  -2  -4   7   27.10    1.28
  -1  -4   7  182.03    8.02
  -1  -4   7  174.31    8.01
  -1  -4   7  170.43    7.98
   1  -4  -7  171.71    8.02
   0  -4  -7   79.33    3.77
   0  -4   7   83.27    3.77
   0  -4   7   82.02    3.76
   0   4  -7   82.33    3.76
   0   4   7   80.92    3.78
   1  -4   7   23.10    1.19
   1  -4   7   24.10    1.16
  -1  -4  -7   27.70    1.19
  -1   4  -7   24.35    1.16
  -2  -4  -7   45.61    2.16
   2  -4   7   44.17    2.19
   2   4   7   48.80    2.19
  -3  -4  -7    4.44    0.28
   3  -4   7    4.09    0.34
   3   4   7    4.07    0.30
   3   4   7    3.95    0.21
   4  -4   7   10.70    0.68
  -4  -4  -7   12.58    0.62
   4   4   7   10.37    0.58
   4   4   7   13.15    0.68
   5  -4   7    0.27    0.22
  -5  -4  -7    0.03    0.14
   5   4   7    0.46    0.17
   5   4   7    0.44    0.16
  -6  -4  -7   30.06    1.54
   6  -4   7   30.55    1.67
   6  -4   7   34.96    1.49
   6   4   7   28.23    1.54
   6   4   7   32.21    1.64
   7  -4   7    4.04    0.59
   7  -4   7    4.37    0.31
  -7  -4  -7    5.16    0.46
   7   4   7    2.93    0.45
   7   4   7    3.49    0.50
  -8  -4  -7    4.02    0.44
   8  -4   7    4.90    0.76
   8   4   7    3.51    0.57
   8   4   7    4.28    0.56
  -9  -4  -7    7.38    0.63
   9  -4   7    7.65    0.95
   9   4   7    8.76    0.76
  10  -4   7   -0.45    0.62
 -10  -4  -7    0.32    0.35
  10   4   7    0.41    0.42
  10  -5  -7    0.94    0.67
  10  -5  -7    1.06    0.33
  10   5  -7    0.97    0.49
  10   5  -7    1.47    0.48
   9  -5  -7   -0.05    0.22
   9  -5  -7   -0.18    0.57
  -9  -5   7    0.13    0.27
   9   5  -7   -0.11    0.34
  -8  -5   7    8.63    0.62
   8  -5  -7    8.58    0.59
   8  -5  -7    9.14    0.88
   8   5  -7    9.50    0.63
   7  -5  -7    2.96    0.34
  -7  -5   7    2.36    0.30
   7   5  -7    2.89    0.37
   6  -5  -7   16.01    0.88
  -6  -5   7   16.93    0.91
   6   5  -7   16.95    0.87
   5  -5  -7   17.58    0.90
  -5  -5   7   16.70    0.91
   5   5  -7   17.74    0.86
  -4  -5   7    6.16    0.40
  -4  -5   7    6.50    0.42
   4  -5  -7    6.07    0.39
   4   5  -7    7.08    0.34
  -3  -5   7   23.23    1.17
  -3  -5   7   24.99    1.19
   3  -5  -7   23.93    1.17
  -2  -5   7   44.76    2.14
  -2  -5   7   44.51    2.15
   2  -5  -7   47.59    2.15
  -1  -5   7  131.14    5.73
   1  -5  -7  122.94    5.73
  -1  -5   7  119.30    5.73
   0  -5   7   27.65    1.29
   0  -5   7   27.91    1.30
   0  -5  -7   26.53    1.30
   0   5   7   27.02    1.31
   0   5  -7   27.41    1.29
  -1  -5  -7  246.96   11.02
   1  -5   7  250.48   11.04
   1  -5   7  227.51   11.07
  -1  -5  -7  246.36   11.07
   1   5   7  239.12   11.07
  -1   5  -7  237.15   11.03
   2  -5   7    4.99    0.35
  -2  -5  -7    4.10    0.31
   2   5   7    5.06    0.31
   3  -5   7    1.96    0.27
  -3  -5  -7    2.26    0.22
   3   5   7    2.16    0.22
  -4  -5  -7    4.63    0.32
   4  -5   7    4.17    0.39
   4   5   7    3.64    0.24
   4   5   7    4.73    0.34
  -5  -5  -7   -0.05    0.15
   5  -5   7    0.04    0.24
   5   5   7    0.07    0.13
   5   5   7   -0.02    0.15
  -6  -5  -7    5.41    0.47
   6  -5   7    6.20    0.68
   6   5   7    5.15    0.42
   6   5   7    5.60    0.53
   7  -5   7    3.94    0.65
  -7  -5  -7    2.88    0.33
   7   5   7    3.12    0.36
   7   5   7    2.68    0.44
  -8  -5  -7   -0.06    0.24
   8  -5   7   -0.09    0.45
   8   5   7    0.26    0.29
   8   5   7   -0.20    0.50
  -9  -5  -7   -0.12    0.28
   9  -5   7   -0.12    0.54
   9   5   7    0.59    0.32
 -10  -5  -7    0.44    0.37
  10  -5   7    1.25    0.70
  10   5   7    0.82    0.43
  10  -6  -7    1.72    0.38
  10  -6  -7    0.60    0.65
 -10  -6   7    2.34    0.44
  -9  -6   7    3.36    0.53
   9  -6  -7    4.21    0.74
   9  -6  -7    4.51    0.46
  -8  -6   7    1.07    0.27
   8  -6  -7    0.59    0.48
   8  -6  -7    0.73    0.22
   8   6  -7    0.58    0.24
   7  -6  -7   20.67    1.12
   7  -6  -7   21.43    1.38
  -7  -6   7   22.07    1.17
   7   6  -7   22.67    1.11
  -6  -6   7    0.22    0.18
   6  -6  -7   -0.03    0.17
   6   6  -7    0.06    0.13
  -5  -6   7    0.07    0.15
   5  -6  -7    0.02    0.14
   5   6  -7    0.24    0.10
  -4  -6   7    2.02    0.24
  -4  -6   7    2.74    0.29
   4  -6  -7    2.63    0.23
  -3  -6   7    1.77    0.20
   3  -6  -7    2.02    0.20
  -3  -6   7    1.98    0.23
   2  -6  -7   19.22    0.92
  -2  -6   7   17.75    0.93
  -2  -6   7   18.55    0.91
  -1  -6   7   77.67    3.76
  -1  -6   7   84.58    3.75
   1  -6  -7   80.60    3.76
   0  -6   7   66.82    3.12
   0  -6   7   68.74    3.11
   0  -6  -7   65.55    3.12
  -1  -6  -7  131.45    5.94
   1  -6   7  127.53    5.95
  -1  -6  -7  124.99    5.91
   1  -6   7  137.88    5.91
  -1  -6  -7  122.98    5.89
   1   6   7  134.83    5.95
  -1   6  -7  121.74    5.90
  -2  -6  -7   50.68    2.36
   2  -6   7   50.41    2.30
   2  -6   7   46.34    2.38
  -2   6  -7   44.48    2.29
   2   6   7   57.70    2.37
   3  -6   7   16.72    0.91
  -3  -6  -7   15.99    0.85
   3   6   7   17.16    0.86
   4  -6   7    0.63    0.23
   5  -6   7    1.78    0.34
  -5  -6  -7    2.25    0.28
   5   6   7    1.25    0.19
   5   6   7    2.29    0.32
   6  -6   7    8.24    0.73
  -6  -6  -7    8.43    0.56
   6   6   7    8.98    0.63
   6   6   7    7.43    0.50
  -7  -6  -7   -0.07    0.21
   7  -6   7   -0.34    0.36
   7   6   7   -0.02    0.24
   7   6   7   -0.23    0.27
   8  -6   7    0.09    0.47
  -8  -6  -7    0.19    0.26
   8   6   7    0.00    0.25
  -9  -6  -7    0.43    0.32
   9  -6   7    0.80    0.56
   9   6   7    0.01    0.31
  10  -6   7    2.02    0.76
 -10  -6  -7    0.85    0.39
  10   6   7    1.01    0.46
  10  -7  -7    0.28    0.33
  10  -7  -7   -0.17    0.65
 -10  -7   7    0.36    0.40
   9  -7  -7    9.05    0.65
  -9  -7   7   10.82    0.75
   9  -7  -7    9.20    1.05
   8  -7  -7    1.48    0.50
   8  -7  -7    0.72    0.22
  -8  -7   7    1.26    0.28
   7  -7  -7    1.41    0.23
  -7  -7   7    1.76    0.28
   7  -7  -7    1.29    0.43
   7   7  -7    1.68    0.28
   6  -7  -7   90.90    4.37
  -6  -7   7   92.83    4.41
   6  -7  -7   89.34    4.56
   6   7  -7  100.69    4.33
   5  -7  -7   88.47    4.42
  -5  -7   7   88.61    4.28
   5  -7  -7   87.40    4.24
   5   7  -7   98.95    4.19
  -4  -7   7   12.47    0.67
  -4  -7   7   12.68    0.70
   4  -7  -7   12.18    0.67
  -3  -7   7    0.08    0.14
  -3  -7   7    0.22    0.11
   3  -7  -7    0.31    0.11
  -2  -7   7  111.95    5.34
  -2  -7   7  119.58    5.37
   2  -7  -7  115.85    5.35
  -1  -7   7   98.06    4.52
   1  -7  -7   92.56    4.56
  -1  -7   7  101.64    4.51
   1  -7  -7   97.62    4.52
   0  -7   7   78.42    3.48
   0  -7  -7   68.10    3.49
   0  -7  -7   75.38    3.49
   0  -7   7   77.87    3.49
  -1  -7  -7  100.57    4.74
   1  -7   7  110.16    4.76
   1  -7   7  102.88    4.80
  -1  -7  -7  109.27    4.79
   1   7   7  106.59    4.79
  -1   7  -7   89.80    4.74
  -2  -7  -7    2.87    0.28
   2  -7   7    3.06    0.30
   2  -7   7    2.28    0.19
  -3  -7  -7   21.36    1.09
   3  -7   7   21.17    1.14
   3   7   7   21.68    1.08
   4  -7   7    0.09    0.23
  -4  -7  -7    0.27    0.17
   4   7   7    0.06    0.14
   5  -7   7    0.61    0.32
  -5  -7  -7    0.04    0.20
   5   7   7    0.62    0.19
   6  -7   7    0.25    0.32
  -6  -7  -7   -0.15    0.20
   6   7   7   -0.07    0.22
   7  -7   7   -0.44    0.40
  -7  -7  -7   -0.28    0.21
   7   7   7   -0.21    0.22
   8  -7   7   15.51    1.15
  -8  -7  -7   13.42    0.91
   8   7   7   16.04    0.96
   9  -7   7   17.45    1.35
  -9  -7  -7   13.88    1.00
   9   7   7   15.99    1.03
 -10  -7  -7    2.13    0.47
  10  -7   7    3.12    0.80
  10   7   7    1.81    0.47
  10  -8  -7    1.76    0.41
 -10  -8   7    2.93    0.48
  10  -8  -7    2.81    0.79
   9  -8  -7   12.71    1.26
   9  -8  -7   12.07    0.78
  -9  -8   7   12.69    0.88
   8  -8  -7    0.14    0.20
  -8  -8   7   -0.24    0.26
   8  -8  -7   -0.37    0.47
   7  -8  -7    0.22    0.17
   7  -8  -7    0.30    0.41
  -7  -8   7    0.19    0.23
   6  -8  -7   10.69    0.90
   6  -8  -7   10.98    0.64
  -6  -8   7   10.55    0.69
   6   8  -7   11.34    0.57
   5  -8  -7    0.55    0.38
  -5  -8   7    0.31    0.19
  -5  -8   7    0.38    0.18
  -4  -8   7    1.52    0.23
   4  -8  -7    1.46    0.20
   4  -8  -7    1.35    0.34
  -4  -8   7    1.85    0.27
  -3  -8   7    0.99    0.15
   3  -8  -7    0.77    0.27
   3  -8  -7    0.99    0.16
  -3  -8   7    0.75    0.19
   2  -8  -7    8.49    0.61
  -2  -8   7    9.72    0.49
  -2  -8   7    8.14    0.45
   2  -8  -7   10.10    0.52
  -2  -8   7    8.89    0.54
  -1  -8   7    2.21    0.20
   1  -8  -7    1.76    0.22
   1  -8  -7    1.91    0.27
  -1  -8   7    2.17    0.22
   0  -8   7    0.04    0.10
   0  -8  -7   -0.16    0.11
   0  -8  -7   -0.03    0.15
   0  -8   7    0.10    0.11
  -1  -8  -7    0.59    0.15
   1  -8   7    0.85    0.18
   1  -8   7    0.61    0.13
   1   8   7    0.66    0.16
   2  -8   7    7.34    0.42
   2  -8   7    7.90    0.53
  -2  -8  -7    7.45    0.49
   2   8   7    8.61    0.49
  -3  -8  -7    6.14    0.47
   3  -8   7    7.01    0.35
   3  -8   7    6.90    0.52
  -3   8  -7    5.86    0.33
   3   8   7    6.64    0.43
   4  -8   7    8.51    0.64
  -4  -8  -7    8.31    0.55
   4   8   7    8.28    0.52
   5  -8   7    0.12    0.30
  -5  -8  -7   -0.05    0.18
   5   8   7   -0.16    0.18
   6  -8   7   10.97    0.83
  -6  -8  -7    9.79    0.65
   6   8   7   10.92    0.70
   7  -8   7    0.92    0.43
  -7  -8  -7    0.39    0.24
   7   8   7    0.04    0.21
   8  -8   7    1.12    0.51
  -8  -8  -7    0.02    0.29
   8   8   7    0.21    0.26
   9  -8   7    1.03    0.62
  -9  -8  -7    1.26    0.38
   9   8   7    1.01    0.34
 -10  -8  -7   -0.42    0.43
  10  -8   7    1.06    0.77
  10   8   7   -0.34    0.39
 -10  -9   7    1.65    0.46
  10  -9  -7    0.43    0.42
  10  -9  -7    1.59    0.80
   9  -9  -7   -0.19    0.28
   9  -9  -7   -0.22    0.61
  -9  -9   7    0.19    0.36
   8  -9  -7    0.13    0.48
  -8  -9   7    0.21    0.28
   8  -9  -7    0.16    0.22
  -7  -9   7    0.08    0.24
   7  -9  -7   -0.23    0.40
   7  -9  -7   -0.28    0.18
   6  -9  -7    2.62    0.30
   6  -9  -7    1.97    0.45
  -6  -9   7    2.48    0.33
  -5  -9   7   21.54    1.12
   5  -9  -7   22.69    1.12
   5  -9  -7   20.29    1.32
  -5  -9   7   21.99    1.15
   4  -9  -7   14.16    0.99
   4  -9  -7   15.01    0.80
  -4  -9   7   15.42    0.84
  -4  -9   7   15.41    0.80
   3  -9  -7   -0.06    0.25
  -3  -9   7    0.10    0.12
  -3  -9   7    0.15    0.18
   3  -9  -7    0.25    0.15
   2  -9  -7    2.52    0.39
   2  -9  -7    3.00    0.28
  -2  -9   7    2.58    0.31
  -2  -9   7    3.19    0.25
  -1  -9   7    5.68    0.38
   1  -9  -7    5.38    0.44
   1  -9  -7    5.60    0.38
  -1  -9   7    5.80    0.35
   0  -9   7   20.77    1.01
   0  -9  -7   19.10    1.03
   0  -9  -7   20.34    1.04
   0  -9   7   21.08    1.02
  -1  -9  -7    0.68    0.13
  -1  -9  -7    0.43    0.18
   1  -9   7    0.52    0.18
   1  -9   7    0.74    0.14
   2  -9   7    0.53    0.13
   2  -9   7    0.72    0.21
  -2  -9  -7    0.74    0.20
   3  -9   7    1.71    0.18
  -3  -9  -7    1.06    0.22
   3  -9   7    1.47    0.29
  -3   9  -7    1.17    0.16
   3   9   7    1.74    0.27
  -4  -9  -7   16.26    0.88
   4  -9   7   15.86    1.00
   4   9   7   15.82    0.87
  -5  -9  -7   19.35    1.09
   5  -9   7   21.39    1.24
   5   9   7   21.08    1.11
   6  -9   7    4.77    0.62
  -6  -9  -7    4.39    0.43
   6   9   7    4.38    0.45
  -7  -9  -7    0.14    0.26
   7  -9   7    0.31    0.44
   7   9   7   -0.20    0.22
   8  -9   7    1.20    0.57
  -8  -9  -7    2.02    0.37
   8   9   7    1.38    0.31
  -9  -9  -7    1.30    0.43
   9  -9   7    2.20    0.69
   9   9   7    1.05    0.35
  -9 -10   7    2.33    0.46
   9 -10  -7    1.97    0.36
   9 -10  -7    1.96    0.72
   8 -10  -7    4.97    0.48
   8 -10  -7    4.56    0.73
  -8 -10   7    6.57    0.58
  -7 -10   7    4.24    0.47
   7 -10  -7    3.78    0.61
   7 -10  -7    2.86    0.36
  -6 -10   7    0.26    0.24
   6 -10  -7    0.28    0.18
   6 -10  -7    1.19    0.40
  -5 -10   7    6.06    0.49
   5 -10  -7    6.00    0.72
  -5 -10   7    6.83    0.52
   5 -10  -7    7.85    0.47
  -4 -10   7    3.47    0.33
  -4 -10   7    4.11    0.38
   4 -10  -7    3.30    0.33
   4 -10  -7    3.37    0.51
  -3 -10   7    3.64    0.30
   3 -10  -7    3.48    0.48
  -3 -10   7    3.98    0.36
   3 -10  -7    3.75    0.33
   2 -10  -7   17.95    1.08
  -2 -10   7   19.56    0.97
   2 -10  -7   20.38    0.99
  -2 -10   7   18.93    1.01
  -1 -10   7    0.77    0.18
   1 -10  -7    0.88    0.24
   1 -10  -7    1.20    0.20
   0 -10   7   33.13    1.55
   0 -10  -7   32.68    1.57
   0 -10  -7   29.37    1.55
   0 -10   7   31.75    1.54
   1 -10   7   13.91    0.77
   1 -10   7   14.16    0.73
  -1 -10  -7   13.79    0.70
  -1 -10  -7   14.17    0.77
  -2 -10  -7   16.93    0.91
   2 -10   7   16.95    0.85
   2 -10   7   15.63    0.93
   2  10   7   17.60    0.90
   3 -10   7    0.72    0.14
   3 -10   7    0.62    0.29
  -3 -10  -7    0.40    0.20
   3  10   7    0.69    0.19
  -4 -10  -7   20.01    1.14
   4 -10   7   23.33    1.03
   4 -10   7   21.08    1.22
  -4  10  -7   20.96    1.03
   4  10   7   21.09    1.11
   5 -10   7   10.47    0.80
  -5 -10  -7    9.42    0.66
   5  10   7    9.53    0.64
   6 -10   7    8.39    0.76
  -6 -10  -7    6.25    0.56
   6  10   7    6.22    0.53
   7 -10   7    3.43    0.63
  -7 -10  -7    4.57    0.54
   7  10   7    4.12    0.46
  -8 -10  -7    1.12    0.35
   8 -10   7    1.87    0.61
  -9 -10  -7    0.43    0.44
   9 -10   7   -0.44    0.67
   9  10   7    0.00    0.32
  -9 -11   7   -0.34    0.41
   9 -11  -7    1.61    0.74
   9 -11  -7    0.50    0.35
  -8 -11   7    0.11    0.36
   8 -11  -7    0.47    0.57
   8 -11  -7   -0.36    0.25
  -7 -11   7    1.12    0.33
   7 -11  -7    0.83    0.52
   7 -11  -7    1.21    0.24
   6 -11  -7    6.28    0.46
   6 -11  -7    6.45    0.81
  -6 -11   7    5.85    0.55
   5 -11  -7   13.88    1.03
   5 -11  -7   13.78    0.76
  -5 -11   7   13.65    0.82
  -5 -11   7   12.74    0.78
  -4 -11   7    1.47    0.24
   4 -11  -7    1.25    0.22
  -4 -11   7    1.44    0.26
   4 -11  -7    1.36    0.45
  -3 -11   7    0.87    0.18
   3 -11  -7    0.78    0.20
  -3 -11   7    1.02    0.24
   3 -11  -7    0.35    0.32
  -2 -11   7    8.20    0.45
  -2 -11   7    6.91    0.52
   2 -11  -7    6.88    0.47
   2 -11  -7    6.98    0.59
   1 -11  -7    4.96    0.39
  -1 -11   7    5.12    0.35
   1 -11  -7    4.59    0.45
  -1 -11   7    5.08    0.42
   0 -11   7    0.52    0.18
   0 -11  -7    0.44    0.17
   0 -11  -7    0.21    0.19
   0 -11   7    0.79    0.18
  -1 -11  -7    0.35    0.14
   1 -11   7    0.46    0.20
   1 -11   7    0.07    0.16
  -1 -11  -7    0.04    0.17
  -2 -11  -7   18.70    1.03
   2 -11   7   18.43    1.06
   2 -11   7   20.42    0.97
   3 -11   7   11.55    0.60
   3 -11   7   11.40    0.76
  -3 -11  -7   10.29    0.69
   3  11   7   10.13    0.68
   4 -11   7   16.10    0.80
  -4 -11  -7   15.78    0.91
   4 -11   7   15.68    0.99
   4  11   7   15.05    0.89
   5 -11   7    0.38    0.35
  -5 -11  -7   -0.13    0.24
   5  11   7    0.04    0.21
  -6 -11  -7   -0.04    0.25
   6 -11   7    0.68    0.43
   6  11   7    0.57    0.22
   7 -11   7    3.45    0.64
  -7 -11  -7    2.49    0.40
   7  11   7    2.74    0.45
  -8 -11  -7    0.64    0.37
   8 -11   7    0.21    0.58
   8  11   7   -0.06    0.27
   9 -11   7   -0.52    0.73
  -9 -11  -7    0.51    0.48
   9  11   7   -0.33    0.33
   9 -12  -7    4.10    0.53
   9 -12  -7    5.64    0.98
  -9 -12   7    5.41    0.81
   8 -12  -7    0.66    0.67
   8 -12  -7    0.34    0.30
  -8 -12   7    0.71    0.40
  -7 -12   7    1.00    0.33
   7 -12  -7    1.06    0.56
   7 -12  -7    0.83    0.25
   6 -12  -7    0.89    0.53
   6 -12  -7    1.41    0.25
  -6 -12   7    1.78    0.34
  -5 -12   7   26.55    1.38
   5 -12  -7   27.19    1.36
  -5 -12   7   26.60    1.42
   5 -12  -7   26.35    1.58
  -4 -12   7   45.42    2.21
   4 -12  -7   44.81    2.40
   4 -12  -7   46.55    2.22
  -4 -12   7   46.38    2.26
  -3 -12   7   47.57    2.30
   3 -12  -7   44.90    2.39
   3 -12  -7   47.88    2.27
  -3 -12   7   46.95    2.24
  -2 -12   7    7.24    0.54
  -2 -12   7    7.42    0.45
   2 -12  -7    6.41    0.49
   2 -12  -7    6.54    0.59
  -1 -12   7   20.85    1.01
   1 -12  -7   19.22    1.04
   1 -12  -7   18.83    1.09
  -1 -12   7   20.01    1.06
   0 -12   7    1.47    0.23
   0 -12  -7    1.23    0.23
   0 -12  -7    0.63    0.21
   0 -12   7    1.35    0.24
   1 -12   7    2.85    0.37
  -1 -12  -7    3.72    0.37
  -1 -12  -7    2.55    0.27
   2 -12   7   16.01    0.87
   2 -12   7   16.30    0.98
  -2 -12  -7   17.64    0.95
   3 -12   7   26.72    1.23
   3 -12   7   23.59    1.34
  -3 -12  -7   24.23    1.30
   3  12   7   23.52    1.29
  -4 -12  -7    3.44    0.43
   4 -12   7    2.60    0.33
   4 -12   7    3.70    0.52
   4  12   7    3.02    0.44
   5 -12   7    1.51    0.40
  -5 -12  -7    0.81    0.29
   5  12   7    0.92    0.26
   6 -12   7    0.65    0.45
  -6 -12  -7    0.14    0.29
   6  12   7   -0.17    0.21
   7 -12   7    0.87    0.55
  -7 -12  -7    0.44    0.34
   7  12   7    0.74    0.25
   8 -12   7   -0.84    0.61
  -8 -12  -7    0.32    0.41
   8  12   7    0.35    0.28
  -8 -13   7    0.43    0.43
   8 -13  -7    0.88    0.68
   8 -13  -7    0.48    0.33
   7 -13  -7    3.90    0.47
  -7 -13   7    3.64    0.49
   7 -13  -7    2.15    0.67
   6 -13  -7    4.11    0.42
  -6 -13   7    2.63    0.43
   6 -13  -7    3.52    0.59
   5 -13  -7   18.77    1.04
   5 -13  -7   19.15    1.29
  -5 -13   7   19.11    1.13
  -5 -13   7   19.66    1.07
  -4 -13   7    0.71    0.24
  -4 -13   7    0.87    0.28
   4 -13  -7    0.56    0.23
   4 -13  -7    0.65    0.42
  -3 -13   7   25.81    1.29
   3 -13  -7   26.12    1.32
   3 -13  -7   24.74    1.47
  -3 -13   7   25.00    1.34
  -2 -13   7    7.49    0.55
   2 -13  -7    5.97    0.52
   2 -13  -7    6.77    0.63
  -2 -13   7    8.02    0.48
  -1 -13   7    6.80    0.46
   1 -13  -7    6.36    0.49
  -1 -13   7    5.88    0.50
   1 -13  -7    6.74    0.56
   0 -13   7    0.17    0.24
   0 -13  -7   -0.07    0.20
   0 -13   7    0.20    0.22
   0 -13  -7    0.15    0.21
   1 -13   7    2.91    0.41
   1 -13   7    2.09    0.30
  -1 -13  -7    2.02    0.27
  -1 -13  -7    1.96    0.30
  -2 -13  -7    0.22    0.23
   2 -13   7    0.17    0.21
   2 -13   7    0.41    0.27
  -3 -13  -7    0.40    0.25
   3 -13   7    0.09    0.20
   3 -13   7    0.72    0.32
  -4 -13  -7   24.57    1.39
   4 -13   7   28.37    1.30
   4 -13   7   25.71    1.47
   4  13   7   25.10    1.36
  -5 -13  -7   -0.13    0.28
   5 -13   7    0.57    0.40
   5  13   7    0.19    0.23
   6 -13   7    3.51    0.62
  -6 -13  -7    4.01    0.56
   6  13   7    3.75    0.47
  -7 -13  -7    0.02    0.36
   7 -13   7    0.34    0.56
   7  13   7   -0.52    0.26
  -8 -13  -7   -0.68    0.43
   8 -13   7    0.07    0.70
   8  13   7    0.04    0.31
  -8 -14   7   -0.59    0.44
   8 -14  -7    0.80    0.40
   8 -14  -7    0.15    0.71
   7 -14  -7   -0.38    0.57
  -7 -14   7   -0.11    0.39
   7 -14  -7   -0.06    0.31
   6 -14  -7    0.05    0.25
   6 -14  -7    0.78    0.51
  -6 -14   7   -0.03    0.34
   5 -14  -7    0.36    0.25
  -5 -14   7   -0.01    0.31
   5 -14  -7    0.31    0.48
  -5 -14   7    0.26    0.31
   4 -14  -7    5.45    0.49
  -4 -14   7    5.29    0.50
   4 -14  -7    7.04    0.74
  -4 -14   7    4.59    0.58
   3 -14  -7    1.16    0.50
   3 -14  -7    1.31    0.28
  -3 -14   7    1.42    0.28
  -3 -14   7    1.65    0.32
  -2 -14   7    1.62    0.32
  -2 -14   7    2.00    0.33
   2 -14  -7    1.65    0.30
   2 -14  -7    1.31    0.38
   1 -14  -7    2.82    0.46
   1 -14  -7    3.26    0.43
  -1 -14   7    3.62    0.40
  -1 -14   7    2.87    0.43
   0 -14  -7   71.70    3.62
   0 -14   7   81.38    3.65
   0 -14  -7   77.98    3.68
   0 -14   7   76.06    3.64
  -1 -14  -7   -0.43    0.24
   1 -14   7   -0.23    0.28
   1 -14   7    0.08    0.26
  -1 -14  -7    0.22    0.17
   2 -14   7    4.31    0.51
   2 -14   7    4.09    0.48
  -2 -14  -7    4.63    0.50
   3 -14   7    7.72    0.68
  -3 -14  -7    6.63    0.61
   3 -14   7    7.84    0.55
   4 -14   7    2.07    0.44
  -4 -14  -7    2.07    0.38
  -5 -14  -7    4.50    0.60
   5 -14   7    5.78    0.76
   5  14   7    4.26    0.50
  -6 -14  -7    0.87    0.37
   6 -14   7    1.02    0.51
   6  14   7    0.18    0.27
   7 -14   7    0.58    0.62
  -7 -14  -7    0.06    0.44
   7  14   7   -0.62    0.28
  -8 -14  -7    0.37    0.50
   8 -14   7    1.18    0.80
   7 -15  -7    0.58    0.38
  -7 -15   7   -0.01    0.42
   7 -15  -7    2.15    0.70
  -6 -15   7    2.63    0.49
   6 -15  -7    2.63    0.63
   6 -15  -7    2.23    0.38
  -5 -15   7   13.08    0.90
  -5 -15   7   15.01    0.98
   5 -15  -7   14.90    1.17
   5 -15  -7   14.87    0.87
   4 -15  -7    0.31    0.26
  -4 -15   7    1.39    0.31
   4 -15  -7    0.08    0.45
  -4 -15   7    0.68    0.32
  -3 -15   7    1.06    0.33
   3 -15  -7    1.78    0.47
   3 -15  -7    1.81    0.31
  -3 -15   7    2.19    0.34
   2 -15  -7    3.90    0.45
  -2 -15   7    4.13    0.43
   2 -15  -7    3.92    0.54
  -2 -15   7    4.05    0.51
  -1 -15   7    0.78    0.26
   1 -15  -7    0.31    0.28
  -1 -15   7    0.27    0.27
   1 -15  -7    0.50    0.30
   0 -15   7   43.01    1.98
   0 -15  -7   39.66    2.02
   0 -15   7   41.08    1.99
   0 -15  -7   35.93    1.95
  -1 -15  -7    6.51    0.58
   1 -15   7    7.18    0.57
  -1 -15  -7    5.58    0.42
   1 -15   7    6.49    0.55
   2 -15   7    8.69    0.69
   2 -15   7    8.48    0.68
  -2 -15  -7    8.28    0.68
   3 -15   7    0.24    0.36
  -3 -15  -7    0.30    0.33
   3 -15   7    0.36    0.29
   4 -15   7    1.98    0.47
  -4 -15  -7    2.46    0.41
  -5 -15  -7   -0.06    0.36
   5 -15   7    0.14    0.44
   6 -15   7    2.87    0.65
  -6 -15  -7    2.86    0.51
   6  15   7    2.22    0.37
   7 -15   7    0.58    0.67
  -7 -15  -7   -0.07    0.47
   7  15   7   -0.50    0.33
   7 -16  -7   -0.12    0.42
   7 -16  -7   -0.12    0.73
  -7 -16   7   -0.67    0.45
   6 -16  -7    1.50    0.66
   6 -16  -7    1.84    0.41
  -6 -16   7    0.89    0.48
  -5 -16   7    1.00    0.36
   5 -16  -7    1.08    0.34
  -5 -16   7    0.41    0.37
   5 -16  -7    1.38    0.57
  -4 -16   7    5.35    0.54
   4 -16  -7    5.58    0.55
   4 -16  -7    4.19    0.64
  -4 -16   7    4.76    0.65
   3 -16  -7    9.13    0.84
  -3 -16   7    8.15    0.61
   3 -16  -7    7.75    0.63
  -3 -16   7    6.86    0.70
   2 -16  -7    0.08    0.47
   2 -16  -7    0.54    0.28
  -2 -16   7    0.96    0.31
  -2 -16   7    0.26    0.24
  -1 -16   7    2.24    0.32
   1 -16  -7    2.60    0.38
  -1 -16   7    1.92    0.33
   1 -16  -7    1.56    0.38
   0 -16  -7   21.50    1.24
   0 -16   7   21.38    1.20
   0 -16   7   23.51    1.19
   0 -16  -7   20.72    1.16
   1 -16   7    5.73    0.56
   1 -16   7    5.83    0.55
  -1 -16  -7    5.64    0.55
  -1 -16  -7    6.57    0.62
   2 -16   7    4.59    0.53
  -2 -16  -7    3.41    0.49
   2 -16   7    4.29    0.55
  -3 -16  -7    1.84    0.41
   3 -16   7    1.47    0.41
   3 -16   7    2.08    0.42
   4 -16   7    0.81    0.44
  -4 -16  -7    0.21    0.37
  -5 -16  -7    0.72    0.44
   5 -16   7    0.58    0.51
   6 -16   7    1.36    0.63
  -6 -16  -7    0.28    0.48
   6 -17  -7    0.64    0.66
   6 -17  -7    0.49    0.41
  -6 -17   7    0.12    0.47
  -5 -17   7    2.46    0.51
   5 -17  -7    2.13    0.69
   5 -17  -7    2.64    0.44
  -5 -17   7    2.99    0.45
  -4 -17   7    1.04    0.33
   4 -17  -7    0.80    0.52
  -4 -17   7    0.49    0.39
   4 -17  -7    0.01    0.32
  -3 -17   7    1.43    0.39
  -3 -17   7    0.89    0.32
   3 -17  -7    0.81    0.50
   3 -17  -7    1.18    0.33
  -2 -17   7    4.85    0.62
   2 -17  -7    6.05    0.59
   2 -17  -7    5.21    0.76
  -2 -17   7    5.34    0.52
   1 -17  -7    1.72    0.37
   1 -17  -7    0.81    0.38
  -1 -17   7    1.32    0.31
  -1 -17   7    0.66    0.34
   0 -17   7    1.00    0.31
   0 -17  -7    1.11    0.35
   0 -17   7    0.54    0.33
   0 -17  -7    0.70    0.28
   1 -17   7    0.25    0.30
   1 -17   7    0.09    0.33
  -1 -17  -7   -0.13    0.33
   2 -17   7    3.21    0.55
   2 -17   7    2.27    0.41
  -2 -17  -7    2.27    0.43
  -3 -17  -7    1.71    0.44
   3 -17   7    1.12    0.43
   4 -17   7    1.35    0.49
  -4 -17  -7    1.84    0.51
  -5 -17  -7    0.73    0.45
   5 -17   7    0.90    0.57
   6 -17   7    2.25    0.75
  -6 -17  -7    2.42    0.59
   5 -18  -7   -0.11    0.66
  -5 -18   7    0.08    0.47
   5 -18  -7   -0.51    0.41
  -4 -18   7    2.13    0.49
  -4 -18   7    1.68    0.39
   4 -18  -7    1.16    0.63
   4 -18  -7    1.32    0.39
   3 -18  -7    1.13    0.56
  -3 -18   7    1.10    0.33
   3 -18  -7    1.08    0.37
  -3 -18   7    0.62    0.41
  -2 -18   7    0.37    0.37
   2 -18  -7    0.38    0.36
   2 -18  -7   -0.13    0.44
  -2 -18   7   -0.01    0.28
   1 -18  -7    0.56    0.40
  -1 -18   7    0.48    0.31
   1 -18  -7    0.40    0.37
  -1 -18   7    0.36    0.37
   0 -18   7    1.88    0.41
   0 -18  -7    3.07    0.49
   0 -18   7    2.88    0.41
  -1 -18  -7    0.95    0.40
   1 -18   7    0.84    0.38
   1 -18   7    1.07    0.35
   2 -18   7   -0.13    0.41
  -2 -18  -7    0.23    0.42
   2 -18   7    0.45    0.39
   3 -18   7    1.56    0.47
  -3 -18  -7    1.83    0.53
  -4 -18  -7    0.65    0.52
   4 -18   7    0.74    0.50
   5 -18   7    0.00    0.52
  -5 -18  -7    0.15    0.52
  -4 -19   7    0.83    0.40
   4 -19  -7    0.04    0.65
   4 -19  -7    0.53    0.46
  -4 -19   7    0.14    0.51
   3 -19  -7    1.84    0.62
   3 -19  -7    2.02    0.47
  -3 -19   7    1.35    0.39
  -3 -19   7    1.72    0.50
  -2 -19   7    0.00    0.44
   2 -19  -7   -0.11    0.48
   2 -19  -7    0.19    0.40
  -2 -19   7    0.00    0.33
  -1 -19   7    0.84    0.43
  -1 -19   7    0.45    0.33
   1 -19  -7    0.98    0.41
   1 -19  -7    0.10    0.41
   0 -19   7    0.00    0.42
   0 -19   7    0.59    0.37
   0 -19  -7    1.76    0.51
   1 -19   7   -0.20    0.44
   1 -19   7   -0.34    0.36
  -1 -19  -7    1.11    0.49
   2 -19   7    5.36    0.74
   2 -19   7    5.16    0.72
  -2 -19  -7    5.92    0.85
   3 -19   7    0.38    0.48
  -3 -19  -7    0.91    0.52
  -4 -19  -7    2.30    0.63
   4 -19   7    1.05    0.58
  -3 -20   7    5.81    0.69
  -3 -20   7    3.91    0.67
   3 -20  -7    4.45    0.77
   3 -20  -7    4.97    0.69
   2 -20  -7    5.94    0.82
  -2 -20   7    3.48    0.62
   2 -20  -7    3.61    0.62
  -2 -20   7    3.82    0.51
   1 -20  -7    0.87    0.52
  -1 -20   7    0.95    0.51
  -1 -20   7    1.01    0.41
   0 -20  -7    2.85    0.57
   0 -20   7    2.15    0.56
   0 -20   7    2.48    0.47
  -1 -20  -7    1.85    0.55
   1 -20   7    1.70    0.47
   1 -20   7    1.70    0.57
  -2 -20  -7    0.16    0.50
   2 -20   7    0.03    0.45
  -3 -20  -7   -0.05    0.58
   3 -20   7   -0.18    0.49
  -1 -21   7    4.86    0.73
   1 -21  -7    3.40    0.66
   0 -21   7   -0.55    0.43
   0 -21   7   -0.44    0.58
   0 -21  -7    0.76    0.54
  11   0  -8   -0.21    0.81
  11   0  -8   -0.05    0.48
  10   0  -8    0.33    0.36
   9   0  -8    0.58    0.29
   8   0  -8   -0.01    0.25
   7   0  -8    0.25    0.23
   7   0  -8    0.68    0.23
   6   0  -8    3.28    0.35
   6   0  -8    3.09    0.36
   5   0  -8   -0.05    0.15
   5   0  -8    0.16    0.16
   4   0  -8   50.42    2.42
   4   0  -8   50.80    2.42
   3   0  -8    0.76    0.15
   3   0  -8    0.72    0.15
   2   0  -8  172.74    7.58
  -2   0   8  156.21    7.56
   1   0  -8    0.05    0.07
  -1   0   8   -0.12    0.06
  -1   0   8    0.12    0.06
   0   0   8    7.56    0.37
   0   0   8    7.39    0.37
   0   0   8    6.90    0.38
   0   0  -8    6.57    0.36
   1   0   8   -0.08    0.06
  -1   0  -8   -0.02    0.05
   1   0   8    0.00    0.07
   2   0   8   89.24    4.21
   2   0   8   87.81    4.16
  -2   0  -8   84.36    4.14
   2   0   8   99.75    4.15
   3   0   8   10.52    0.56
   3   0   8   10.87    0.62
   3   0   8   10.20    0.52
  -3   0  -8   11.09    0.53
   4   0   8   31.47    1.60
   4   0   8   32.72    1.54
   4   0   8   32.54    1.66
  -4   0  -8   35.53    1.56
   5   0   8   -0.10    0.17
   5   0   8   -0.16    0.17
  -5   0  -8   -0.02    0.10
   6   0   8    4.81    0.53
  -6   0  -8    5.12    0.33
   6   0   8    5.36    0.48
   7   0   8   -0.45    0.31
   7   0   8   -0.21    0.27
  -7   0  -8    0.11    0.15
  -8   0  -8    3.38    0.35
   8   0   8    2.89    0.49
   8   0   8    5.24    0.76
   9   0   8    0.32    0.39
   9   0   8   -0.44    0.46
  10   0   8    0.78    0.50
  10   0   8    1.64    0.61
  11  -1  -8    1.36    0.84
  11  -1  -8    0.02    0.46
  11   1  -8    0.83    0.51
  10  -1  -8   -0.28    0.33
  10   1  -8    0.54    0.35
   9  -1  -8    2.26    0.34
   9   1  -8    1.21    0.32
   9   1  -8    1.21    0.32
   8  -1  -8    0.57    0.25
   8   1  -8    0.62    0.28
   8   1  -8    0.33    0.29
   7  -1  -8    0.52    0.23
   7   1  -8   -0.07    0.26
   7   1  -8    0.45    0.25
   6  -1  -8    2.20    0.27
   6   1  -8    2.43    0.33
   6   1  -8    2.07    0.26
   5  -1  -8    5.98    0.42
   5   1  -8    6.04    0.46
   5   1  -8    5.28    0.45
   4  -1  -8   33.55    1.62
   4   1  -8   32.87    1.63
   4   1  -8   33.17    1.63
   3  -1  -8  128.06    5.92
   3   1  -8  126.88    5.93
   3   1  -8  129.09    5.93
  -2  -1   8    3.55    0.25
   2  -1  -8    4.25    0.26
   2   1  -8    3.87    0.27
   2   1  -8    3.59    0.27
  -1  -1   8   77.73    3.65
   1  -1  -8   76.51    3.66
  -1  -1   8   84.92    3.64
   1   1  -8   77.60    3.66
  -1   1   8   75.08    3.66
  -1   1   8   82.66    3.65
   0  -1   8   21.62    1.04
   0  -1   8   21.90    1.05
   0  -1  -8   21.63    1.03
   0  -1   8   21.92    1.03
   0  -1   8   22.40    1.05
   0   1   8   21.85    1.05
   0   1   8   21.92    1.04
   0   1   8   21.90    1.03
   0   1  -8   21.20    1.03
   1  -1   8   81.77    3.72
   1  -1   8   84.19    3.71
   1  -1   8   74.42    3.74
  -1  -1  -8   79.85    3.71
   1   1   8   78.45    3.74
   1   1   8   82.28    3.71
  -1   1  -8   80.19    3.70
   1   1   8   83.90    3.72
   2  -1   8   43.47    1.79
   2  -1   8   37.59    1.86
   2  -1   8   37.58    1.82
  -2  -1  -8   37.25    1.80
   2   1   8   35.90    1.80
   2   1   8   39.48    1.86
   2   1   8   41.44    1.80
  -2   1  -8   37.05    1.78
   3  -1   8   10.09    0.59
  -3  -1  -8    9.78    0.49
   3  -1   8    9.21    0.53
   3  -1   8    9.52    0.47
   3   1   8   10.29    0.58
   3   1   8    9.26    0.49
   3   1   8    9.70    0.51
  -3   1  -8   10.29    0.48
   4  -1   8    2.37    0.28
   4  -1   8    2.29    0.15
   4   1   8    1.95    0.23
   5  -1   8    1.92    0.18
   5  -1   8    2.84    0.33
   5  -1   8    1.78    0.29
  -5  -1  -8    2.50    0.22
   5   1   8    2.18    0.29
  -5   1  -8    2.02    0.18
   5   1   8    2.30    0.35
  -6  -1  -8    0.36    0.14
   6  -1   8   -0.02    0.23
   6  -1   8    0.08    0.28
  -6   1  -8    0.28    0.12
   6   1   8    0.21    0.23
   6   1   8    0.42    0.25
   7  -1   8    1.62    0.40
  -7  -1  -8    2.26    0.29
   7  -1   8    1.39    0.34
   7   1   8    2.88    0.48
  -7   1  -8    2.09    0.24
   7   1   8    1.67    0.34
   8  -1   8    0.47    0.45
   8  -1   8    1.25    0.39
   8  -1   8    0.54    0.36
  -8  -1  -8    0.65    0.22
   8  -1   8    0.36    0.38
   8   1   8    0.75    0.36
   8   1   8    0.50    0.43
   9  -1   8    2.99    0.55
  -9  -1  -8    2.85    0.42
   9  -1   8    2.44    0.51
   9   1   8    2.51    0.47
   9   1   8    2.42    0.56
  10  -1   8   -0.28    0.57
  10  -1   8    0.12    0.50
  10   1   8    1.00    0.61
  10   1   8    0.99    0.48
  11  -2  -8    3.57    0.92
  11  -2  -8    2.91    0.53
  11   2  -8    2.38    0.57
  10  -2  -8    1.33    0.38
  10  -2  -8    2.12    0.70
  10   2  -8    2.45    0.45
  10   2  -8    3.30    0.48
  10   2  -8    1.79    0.48
   9  -2  -8    8.83    0.66
   9   2  -8    9.42    0.74
   9   2  -8    9.25    0.74
   8  -2  -8   23.04    1.26
   8   2  -8   23.64    1.33
   8   2  -8   24.07    1.34
   7  -2  -8   28.53    1.52
   7   2  -8   30.50    1.57
   7   2  -8   30.71    1.58
   6  -2  -8    1.74    0.24
   6   2  -8    1.62    0.26
   6   2  -8    1.10    0.24
  -5  -2   8    0.01    0.15
   5  -2  -8    0.27    0.16
   5   2  -8    0.15    0.19
   5   2  -8    0.02    0.17
  -4  -2   8    1.95    0.22
   4  -2  -8    1.76    0.22
  -3  -2   8   12.98    0.71
  -3  -2   8   13.98    0.70
   3  -2  -8   14.18    0.71
  -2  -2   8  113.80    5.50
  -2  -2   8  122.02    5.50
   2  -2  -8  115.18    5.50
   2   2  -8  119.08    5.52
   2   2  -8  124.97    5.46
   2   2  -8  120.80    5.53
  -1  -2   8   69.23    3.21
  -1  -2   8   71.30    3.18
   1  -2  -8   68.16    3.21
   1   2  -8   70.97    3.23
   1   2  -8   66.47    3.19
   1   2  -8   69.64    3.22
   0  -2   8  114.16    5.27
   0  -2  -8  111.39    5.26
   0  -2   8  115.61    5.26
   0   2  -8  116.41    5.26
   0   2   8  110.47    5.26
   0   2   8  116.09    5.27
   0   2  -8  117.41    5.27
  -1  -2  -8    4.49    0.23
   1  -2   8    3.17    0.26
   2  -2   8    9.43    0.57
  -2  -2  -8   10.36    0.50
   2  -2   8    9.88    0.53
  -2   2  -8    9.98    0.47
   3  -2   8   72.90    3.34
  -3  -2  -8   72.81    3.30
   3   2   8   75.34    3.37
   3   2   8   64.35    3.29
  -4  -2  -8  111.36    4.95
   4  -2   8  104.97    5.00
   4   2   8  108.88    5.03
   4   2   8  103.78    4.95
   5  -2   8    7.23    0.54
   5  -2   8    7.75    0.40
  -5  -2  -8    8.12    0.45
   5   2   8    7.62    0.49
   5   2   8    8.51    0.57
   6  -2   8   16.08    0.78
   6  -2   8   15.13    0.93
  -6  -2  -8   16.15    0.81
   6  -2   8   15.79    0.78
   6   2   8   15.56    0.96
   6   2   8   13.86    0.85
   7  -2   8    9.07    0.52
  -7  -2  -8    8.87    0.55
   7  -2   8    9.58    0.82
   7  -2   8    8.86    0.52
   7   2   8    8.35    0.70
   7   2   8    8.86    0.65
   8  -2   8    9.92    0.87
  -8  -2  -8    9.03    0.64
   8  -2   8   11.08    0.88
   8   2   8   10.48    0.82
   8   2   8    9.89    0.81
  -9  -2  -8    2.28    0.33
   9  -2   8    1.75    0.53
   9  -2   8    1.20    0.46
   9   2   8    2.13    0.57
   9   2   8    1.71    0.42
  10  -2   8    2.05    0.58
  10  -2   8    2.05    0.64
  10   2   8    1.99    0.50
  10  -3  -8    0.59    0.34
  10  -3  -8    0.19    0.61
  10   3  -8    0.71    0.42
  10   3  -8    0.96    0.41
   9  -3  -8    3.28    0.43
   9   3  -8    2.92    0.47
   9   3  -8    3.35    0.48
   9   3  -8    3.21    0.45
   8  -3  -8   11.53    0.73
   8   3  -8   11.76    0.82
   8   3  -8   12.21    0.84
   7  -3  -8    7.64    0.54
  -7  -3   8    8.33    0.55
   7   3  -8    7.36    0.63
   7   3  -8    7.94    0.64
   6  -3  -8   15.78    0.84
  -6  -3   8   14.93    0.83
  -5  -3   8    7.07    0.46
   5  -3  -8    7.31    0.47
  -4  -3   8    5.39    0.38
   4  -3  -8    5.88    0.37
  -3  -3   8    2.97    0.24
   3  -3  -8    2.95    0.23
  -3  -3   8    2.60    0.23
  -2  -3   8   42.48    2.03
  -2  -3   8   44.81    2.03
   2  -3  -8   41.96    2.03
  -1  -3   8   79.81    3.47
  -1  -3   8   67.73    3.50
  -1  -3   8   82.05    3.50
   1  -3  -8   72.93    3.50
   0  -3   8    3.85    0.25
   0  -3  -8    4.27    0.25
   0  -3   8    3.96    0.26
   0   3  -8    3.63    0.24
   0   3   8    4.78    0.27
   0   3  -8    4.20    0.26
   0   3  -8    4.28    0.26
  -1  -3  -8  268.79   12.46
   1  -3   8  267.97   12.46
  -1   3  -8  283.03   12.44
   1   3   8  271.43   12.44
  -1   3  -8  273.42   12.44
   1   3   8  267.82   12.47
   2  -3   8   47.54    2.28
  -2  -3  -8   46.56    2.26
   2   3   8   52.14    2.23
   2   3   8   47.45    2.29
   3  -3   8    3.18    0.29
  -3  -3  -8    3.29    0.23
   3   3   8    3.45    0.28
   3   3   8    3.37    0.20
   4  -3   8   18.69    1.03
  -4  -3  -8   21.04    0.97
   4   3   8   22.13    1.05
   4   3   8   17.07    0.95
   5  -3   8    4.38    0.43
  -5  -3  -8    3.90    0.32
   5   3   8    3.78    0.32
   5   3   8    5.12    0.42
  -6  -3  -8    0.60    0.18
   6  -3   8    0.38    0.28
   6  -3   8    0.72    0.11
   6   3   8    0.54    0.21
   6   3   8    0.73    0.25
   7  -3   8   -0.15    0.15
  -7  -3  -8    0.05    0.20
   7  -3   8    0.17    0.42
   7   3   8   -0.39    0.26
   7   3   8    0.26    0.28
  -8  -3  -8    0.75    0.26
   8  -3   8    0.86    0.44
   8   3   8    0.66    0.35
   8   3   8    0.82    0.34
  -9  -3  -8    1.56    0.31
   9  -3   8    0.98    0.51
   9  -3   8    0.82    0.45
   9   3   8    1.05    0.39
   9   3   8    1.46    0.57
  10  -3   8    0.64    0.53
  10  -3   8   -0.30    0.60
  10   3   8    0.60    0.47
  10  -4  -8    3.07    0.41
  10  -4  -8    2.79    0.78
  10   4  -8    2.95    0.53
  10   4  -8    3.09    0.55
   9  -4  -8    1.55    0.58
   9  -4  -8    1.81    0.29
   9   4  -8    2.36    0.40
   9   4  -8    1.88    0.42
   9   4  -8    1.89    0.37
  -8  -4   8    5.80    0.50
   8  -4  -8    5.33    0.46
   8   4  -8    5.84    0.54
   7  -4  -8   12.85    0.74
  -7  -4   8   12.64    0.75
   7   4  -8   12.52    0.75
  -6  -4   8    0.99    0.21
   6  -4  -8    1.10    0.21
   6   4  -8    1.04    0.20
  -5  -4   8    0.07    0.14
   5  -4  -8    0.17    0.15
   5   4  -8    0.11    0.13
   4  -4  -8   35.36    1.68
  -4  -4   8   35.13    1.69
   4   4  -8   34.36    1.63
   3  -4  -8    0.66    0.12
  -3  -4   8    0.46    0.12
  -3  -4   8    0.63    0.13
  -2  -4   8   17.29    0.84
  -2  -4   8   15.68    0.84
   2  -4  -8   17.59    0.84
   1  -4  -8   75.45    3.57
  -1  -4   8   74.78    3.54
  -1  -4   8   79.58    3.58
  -1  -4   8   78.91    3.57
   0  -4   8  467.34   21.80
   0  -4  -8  459.04   21.80
   0  -4   8  485.16   21.79
   0   4  -8  504.85   21.79
   0   4   8  467.33   21.81
  -1  -4  -8   17.25    0.79
   1  -4   8   15.56    0.79
   1   4   8   17.54    0.80
  -1   4  -8   14.47    0.76
  -1   4  -8   14.62    0.75
   2  -4   8  274.23   12.46
  -2  -4  -8  255.36   12.40
  -2  -4  -8  266.90   12.43
   2   4   8  288.58   12.46
  -3  -4  -8   11.10    0.60
   3  -4   8   10.83    0.64
   3   4   8   11.44    0.63
   3   4   8   12.36    0.54
   4  -4   8    3.69    0.37
  -4  -4  -8    3.38    0.28
   4   4   8    4.07    0.33
   4   4   8    3.69    0.23
  -5  -4  -8    0.37    0.16
   5  -4   8    0.45    0.24
   5   4   8    0.73    0.19
   5   4   8    0.17    0.14
  -6  -4  -8    5.81    0.44
   6  -4   8    5.28    0.58
   6   4   8    6.31    0.54
   6   4   8    5.22    0.42
   7  -4   8    4.65    0.67
  -7  -4  -8    4.78    0.45
   7   4   8    3.68    0.45
   7   4   8    3.61    0.53
   8  -4   8    3.45    0.55
  -8  -4  -8    2.67    0.34
   8   4   8    2.75    0.41
   8   4   8    2.64    0.43
  -9  -4  -8    0.38    0.28
   9  -4   8    0.71    0.50
   9   4   8   -0.11    0.32
  10  -4   8    0.30    0.56
  10  -4   8   -0.38    0.62
 -10  -4  -8    0.12    0.53
  10   4   8    0.05    0.41
  10  -5  -8    1.19    0.33
  10  -5  -8    1.27    0.74
  10   5  -8   -0.04    0.49
  10   5  -8    1.01    0.49
   9  -5  -8    0.60    0.24
   9  -5  -8   -0.36    0.54
  -9  -5   8    0.10    0.27
   9   5  -8    0.30    0.36
   9   5  -8    0.31    0.36
   8  -5  -8    3.05    0.56
   8  -5  -8    3.35    0.37
  -8  -5   8    3.18    0.42
   8   5  -8    3.18    0.44
  -7  -5   8    3.57    0.40
   7  -5  -8    3.25    0.35
   7   5  -8    3.57    0.38
  -6  -5   8   22.41    1.19
   6  -5  -8   22.78    1.17
   6   5  -8   23.56    1.14
  -5  -5   8    0.00    0.14
   5  -5  -8    0.36    0.15
   5   5  -8    0.14    0.10
   4  -5  -8    4.84    0.33
  -4  -5   8    4.45    0.33
  -4  -5   8    4.78    0.35
  -3  -5   8    1.37    0.17
   3  -5  -8    1.12    0.17
  -3  -5   8    1.16    0.17
  -2  -5   8    5.47    0.34
  -2  -5   8    5.83    0.36
   2  -5  -8    6.14    0.35
  -1  -5   8  158.19    7.09
  -1  -5   8  159.70    7.10
   1  -5  -8  155.21    7.10
  -1  -5   8  144.11    7.06
   0  -5  -8   83.13    3.82
   0  -5   8   87.31    3.82
   0  -5   8   84.87    3.81
   0   5   8   84.09    3.83
   0   5  -8   72.78    3.82
  -1  -5  -8   83.72    3.90
   1  -5   8   79.20    3.90
   1  -5   8   82.16    3.86
  -1  -5  -8   92.10    3.85
  -1   5  -8   80.41    3.86
   1   5   8   86.54    3.90
   2  -5   8   20.71    1.08
  -2  -5  -8   21.09    1.05
   2   5   8   22.76    1.07
  -3  -5  -8    1.18    0.16
   3  -5   8    1.00    0.20
   3   5   8    1.35    0.20
  -4  -5  -8    0.18    0.14
   4  -5   8   -0.01    0.19
   4   5   8    0.25    0.13
   5  -5   8    4.86    0.49
  -5  -5  -8    4.96    0.39
   5   5   8    5.00    0.32
   5   5   8    6.22    0.44
  -6  -5  -8   52.20    2.50
   6  -5   8   53.28    2.64
   6   5   8   48.42    2.46
   6   5   8   55.20    2.58
   7  -5   8    1.34    0.44
  -7  -5  -8    1.84    0.28
   7   5   8    1.53    0.31
   7   5   8    1.68    0.28
  -8  -5  -8    1.61    0.31
   8  -5   8    2.10    0.51
   8   5   8    1.71    0.35
  -9  -5  -8    0.19    0.31
   9  -5   8   -0.09    0.53
   9   5   8    0.08    0.31
  10  -5   8   -0.10    0.63
 -10  -5  -8    0.42    0.37
  10   5   8   -0.16    0.44
  10  -6  -8    1.31    0.72
  10  -6  -8    1.74    0.38
  10   6  -8    2.53    0.58
  10   6  -8    1.61    0.57
   9  -6  -8    0.69    0.61
   9  -6  -8    0.65    0.26
  -9  -6   8    0.36    0.31
   8  -6  -8    0.11    0.44
  -8  -6   8    0.38    0.25
   8  -6  -8    0.26    0.20
   7  -6  -8    0.48    0.38
   7  -6  -8    0.09    0.17
  -7  -6   8   -0.03    0.20
   7   6  -8    0.23    0.17
   6  -6  -8   15.80    0.86
  -6  -6   8   15.38    0.87
   6   6  -8   16.08    0.80
   5  -6  -8    3.17    0.30
  -5  -6   8    3.41    0.32
   5   6  -8    3.02    0.21
  -4  -6   8   18.14    0.95
  -4  -6   8   18.47    0.97
   4  -6  -8   18.66    0.94
   3  -6  -8    8.97    0.50
  -3  -6   8    8.76    0.52
  -3  -6   8    8.79    0.49
   2  -6  -8  144.73    6.65
  -2  -6   8  148.62    6.66
  -2  -6   8  139.20    6.64
   1  -6  -8  120.61    5.65
  -1  -6   8  122.13    5.65
  -1  -6   8  124.15    5.64
   0  -6   8   83.74    3.86
   0  -6  -8   83.35    3.88
   0  -6   8   85.83    3.87
   0   6   8   81.19    3.88
  -1  -6  -8  118.83    5.24
   1  -6   8  110.36    5.24
  -1  -6  -8  115.21    5.18
   1  -6   8  114.61    5.20
  -1   6  -8  105.08    5.19
   1   6   8  114.66    5.23
   2  -6   8   57.82    2.54
  -2  -6  -8   57.17    2.60
   2  -6   8   54.02    2.62
  -2   6  -8   48.33    2.54
   2   6   8   59.19    2.61
   3  -6   8   36.74    1.85
  -3  -6  -8   37.53    1.81
   3   6   8   38.72    1.82
   4  -6   8    4.38    0.43
  -4  -6  -8    4.26    0.35
   4   6   8    4.12    0.34
   5  -6   8   10.75    0.77
  -5  -6  -8   10.69    0.67
   5   6   8   12.06    0.69
   6  -6   8   12.08    0.83
  -6  -6  -8    9.57    0.62
   6   6   8    9.84    0.68
   6   6   8    8.92    0.54
   7  -6   8    2.33    0.48
  -7  -6  -8    2.41    0.32
   7   6   8    2.71    0.42
   8  -6   8    1.32    0.49
  -8  -6  -8    2.14    0.33
   8   6   8    1.46    0.34
   9  -6   8    0.18    0.54
  -9  -6  -8   -0.22    0.30
   9   6   8   -0.08    0.34
  10  -6   8    1.37    0.75
 -10  -6  -8    0.39    0.39
  10   6   8    1.36    0.48
 -10  -7   8    0.38    0.37
  10  -7  -8    0.34    0.33
  10  -7  -8    0.52    0.72
   9  -7  -8    0.05    0.25
  -9  -7   8   -0.11    0.31
   9  -7  -8    0.64    0.58
   8  -7  -8   -0.20    0.20
  -8  -7   8    0.45    0.25
   8  -7  -8    0.19    0.47
   7  -7  -8    2.16    0.48
  -7  -7   8    1.57    0.29
   7  -7  -8    1.64    0.24
   6  -7  -8    3.17    0.32
   6  -7  -8    2.10    0.47
  -6  -7   8    3.13    0.36
   6   7  -8    3.16    0.25
   5  -7  -8    0.50    0.16
  -5  -7   8    0.37    0.18
  -4  -7   8    5.04    0.36
  -4  -7   8    5.19    0.38
   4  -7  -8    4.23    0.35
  -3  -7   8   11.27    0.61
   3  -7  -8   10.20    0.58
  -3  -7   8   10.59    0.58
  -2  -7   8   43.97    2.08
   2  -7  -8   43.63    2.09
  -2  -7   8   44.45    2.10
  -1  -7   8  234.23   10.49
   1  -7  -8  226.19   10.49
  -1  -7   8  224.50   10.47
   0  -7  -8    0.70    0.18
   0  -7  -8    0.65    0.13
   0  -7   8    0.80    0.13
   0  -7   8    0.87    0.14
   1  -7   8   78.92    3.59
  -1  -7  -8   73.26    3.58
  -1  -7  -8   71.49    3.57
   1  -7   8   85.18    3.64
  -1  -7  -8   87.23    3.64
   1   7   8   81.73    3.63
  -1   7  -8   66.18    3.58
   2  -7   8   54.52    2.43
  -2  -7  -8   52.96    2.49
   2  -7   8   50.56    2.51
   2   7   8   58.72    2.49
  -2   7  -8   45.99    2.42
   3  -7   8   24.39    1.26
  -3  -7  -8   23.95    1.21
   3   7   8   24.47    1.21
   4  -7   8   34.16    1.72
  -4  -7  -8   32.67    1.64
   4   7   8   33.60    1.65
   5  -7   8   78.36    3.88
  -5  -7  -8   79.83    3.78
   5   7   8   82.86    3.81
   6  -7   8   25.28    1.42
  -6  -7  -8   24.27    1.27
   6   7   8   24.64    1.32
  -7  -7  -8   -0.03    0.22
   7  -7   8   -0.16    0.37
   7   7   8   -0.18    0.22
   8  -7   8    1.41    0.50
  -8  -7  -8    1.42    0.34
   8   7   8    1.87    0.35
  -9  -7  -8    0.06    0.35
   9  -7   8    1.25    0.61
   9   7   8    0.37    0.33
 -10  -7  -8    3.10    0.51
  10  -7   8    3.43    0.81
  10   7   8    2.80    0.52
  10  -8  -8    1.98    0.40
 -10  -8   8    1.94    0.48
  10  -8  -8    3.05    0.85
  -9  -8   8    1.09    0.36
   9  -8  -8    0.58    0.62
   9  -8  -8    0.22    0.25
  -8  -8   8    7.48    0.60
   8  -8  -8    6.74    0.51
   8  -8  -8    7.11    0.89
   7  -8  -8   -0.37    0.37
   7  -8  -8    0.02    0.18
  -7  -8   8    0.52    0.25
   6  -8  -8    0.29    0.17
  -6  -8   8   -0.08    0.20
   6  -8  -8   -0.27    0.36
   5  -8  -8    1.82    0.47
   5  -8  -8    2.03    0.26
  -5  -8   8    1.83    0.25
  -5  -8   8    1.67    0.25
   4  -8  -8    2.23    0.26
   4  -8  -8    2.11    0.40
  -4  -8   8    2.65    0.29
  -4  -8   8    2.15    0.27
  -3  -8   8   19.29    0.98
   3  -8  -8   19.51    0.99
  -3  -8   8   19.90    1.02
   3  -8  -8   19.94    1.13
   2  -8  -8   14.07    0.87
   2  -8  -8   14.84    0.77
  -2  -8   8   15.45    0.76
  -2  -8   8   14.90    0.79
   1  -8  -8   11.82    0.61
  -1  -8   8   10.77    0.60
   1  -8  -8   10.13    0.66
   0  -8   8    0.74    0.15
   0  -8  -8    0.71    0.18
   1  -8   8   57.99    2.76
  -1  -8  -8   55.09    2.71
   1  -8   8   61.07    2.72
  -1  -8  -8   60.59    2.76
   1   8   8   57.23    2.75
   2  -8   8   26.19    1.22
   2  -8   8   25.36    1.30
  -2  -8  -8   26.93    1.29
  -2   8  -8   21.80    1.20
   2   8   8   28.66    1.29
   3  -8   8    1.93    0.30
  -3  -8  -8    2.03    0.31
   3   8   8    2.22    0.27
  -4  -8  -8   35.81    1.75
   4  -8   8   35.24    1.83
   4   8   8   35.27    1.74
  -5  -8  -8    0.31    0.21
   5  -8   8    0.89    0.33
   5   8   8    0.08    0.20
   6  -8   8   26.89    1.48
  -6  -8  -8   25.28    1.34
   6   8   8   25.64    1.35
   7  -8   8   -0.82    0.37
  -7  -8  -8    0.21    0.24
   7   8   8   -0.27    0.21
  -8  -8  -8   -0.30    0.28
   8  -8   8   -0.54    0.48
   8   8   8    0.30    0.27
   9  -8   8    0.09    0.60
  -9  -8  -8    0.71    0.38
   9   8   8    0.60    0.33
  10  -9  -8    2.00    0.93
  -9  -9   8   -0.15    0.36
   9  -9  -8    0.59    0.61
   9  -9  -8    0.61    0.29
   8  -9  -8    0.11    0.51
   8  -9  -8   -0.30    0.21
  -8  -9   8    0.10    0.30
  -7  -9   8    0.38    0.25
   7  -9  -8    0.66    0.21
   7  -9  -8    0.16    0.43
   6  -9  -8    2.69    0.51
  -6  -9   8    2.57    0.34
   6  -9  -8    2.75    0.31
  -5  -9   8   15.24    0.86
   5  -9  -8   15.55    0.84
   5  -9  -8   16.03    1.09
  -5  -9   8   15.54    0.88
   4  -9  -8   42.11    2.23
   4  -9  -8   43.42    2.07
  -4  -9   8   42.96    2.08
  -4  -9   8   44.06    2.11
   3  -9  -8    2.48    0.41
  -3  -9   8    2.08    0.25
   3  -9  -8    2.87    0.26
  -3  -9   8    2.15    0.32
  -2  -9   8   10.73    0.62
   2  -9  -8    9.81    0.69
  -2  -9   8   10.52    0.56
   2  -9  -8    9.83    0.59
  -1  -9   8   18.14    0.86
   1  -9  -8   17.32    0.89
   1  -9  -8   15.63    0.93
  -1  -9   8   17.18    0.88
   0  -9   8    6.24    0.38
   0  -9   8    6.10    0.38
   0  -9  -8    5.17    0.41
   0  -9  -8    6.29    0.43
  -1  -9  -8   15.76    0.86
   1  -9   8   17.16    0.87
  -1  -9  -8   15.53    0.80
   1  -9   8   16.52    0.82
   2  -9   8   10.31    0.57
   2  -9   8   10.57    0.67
  -2  -9  -8   11.45    0.66
   2   9   8   11.83    0.65
  -3  -9  -8   49.04    2.35
   3  -9   8   52.77    2.26
   3  -9   8   47.99    2.40
   3   9   8   48.35    2.34
  -3   9  -8   45.42    2.25
   4  -9   8   39.70    2.08
  -4  -9  -8   42.27    2.01
   4   9   8   40.87    2.00
   5  -9   8    3.70    0.54
  -5  -9  -8    4.97    0.45
   5   9   8    4.86    0.46
  -6  -9  -8   13.04    0.82
   6  -9   8   15.27    0.99
   6   9   8   13.77    0.84
  -7  -9  -8    0.71    0.28
   7  -9   8    0.42    0.44
   7   9   8    0.98    0.25
   8  -9   8    0.98    0.56
  -8  -9  -8    1.62    0.37
   8   9   8    0.86    0.30
  -9  -9  -8    1.30    0.43
   9  -9   8    1.16    0.72
   9   9   8    1.25    0.36
   9 -10  -8    0.64    0.70
   9 -10  -8    0.86    0.33
  -9 -10   8    0.66    0.41
   8 -10  -8   -0.45    0.54
  -8 -10   8    0.51    0.31
   8 -10  -8   -0.15    0.23
   7 -10  -8    1.60    0.50
   7 -10  -8    1.07    0.22
  -7 -10   8    0.92    0.29
   6 -10  -8    3.52    0.34
  -6 -10   8    2.81    0.39
   6 -10  -8    3.80    0.65
  -5 -10   8   47.36    2.35
   5 -10  -8   48.10    2.54
  -5 -10   8   49.39    2.38
   5 -10  -8   48.90    2.33
   4 -10  -8    0.37    0.36
  -4 -10   8    0.59    0.20
   3 -10  -8    5.03    0.54
   3 -10  -8    5.03    0.38
  -3 -10   8    4.74    0.35
  -3 -10   8    4.59    0.40
  -2 -10   8   44.70    2.27
  -2 -10   8   48.81    2.23
   2 -10  -8   46.15    2.34
   2 -10  -8   48.63    2.26
   1 -10  -8    4.92    0.46
   1 -10  -8    5.01    0.40
  -1 -10   8    5.66    0.40
  -1 -10   8    6.31    0.38
   0 -10   8    0.23    0.15
   0 -10   8   -0.01    0.14
   0 -10  -8    0.09    0.16
   0 -10  -8   -0.04    0.18
   1 -10   8    5.83    0.42
  -1 -10  -8    5.33    0.41
  -1 -10  -8    4.67    0.33
   1 -10   8    5.04    0.35
  -2 -10  -8    1.68    0.24
   2 -10   8    1.53    0.22
   3 -10   8    0.35    0.29
  -3 -10  -8   -0.26    0.19
   3 -10   8    0.23    0.13
  -3  10  -8    0.26    0.12
   3  10   8    0.41    0.19
  -4 -10  -8   19.16    1.00
   4 -10   8   17.67    1.07
   4  10   8   17.48    0.99
   6 -10   8    8.82    0.79
  -6 -10  -8    5.74    0.54
   6  10   8    6.71    0.53
   7 -10   8    1.20    0.49
  -7 -10  -8    1.19    0.31
   7  10   8    1.01    0.27
   8 -10   8    1.77    0.59
  -8 -10  -8    1.77    0.39
   8  10   8    1.16    0.31
   9 -10   8    2.51    0.72
  -9 -10  -8    2.39    0.50
   9  10   8    2.62    0.41
   9 -11  -8    4.47    0.61
   9 -11  -8    5.55    0.93
  -9 -11   8    6.00    0.76
   8 -11  -8   -0.11    0.58
  -8 -11   8    0.11    0.34
   8 -11  -8    0.95    0.29
  -7 -11   8    1.66    0.36
   7 -11  -8    1.01    0.24
   7 -11  -8    0.85    0.49
   6 -11  -8    2.74    0.55
  -6 -11   8    2.65    0.39
   6 -11  -8    3.62    0.37
   5 -11  -8   -0.21    0.41
  -5 -11   8    0.30    0.25
  -5 -11   8    0.16    0.23
   5 -11  -8    0.63    0.19
   4 -11  -8    5.81    0.44
   4 -11  -8    5.03    0.73
  -4 -11   8    5.85    0.44
  -4 -11   8    6.54    0.51
   3 -11  -8   43.37    2.08
  -3 -11   8   44.07    2.11
   3 -11  -8   42.08    2.21
  -3 -11   8   42.57    2.06
   2 -11  -8   25.92    1.28
  -2 -11   8   25.14    1.25
   2 -11  -8   24.02    1.36
  -2 -11   8   25.63    1.29
   1 -11  -8    1.71    0.31
  -1 -11   8    2.42    0.34
   1 -11  -8    1.74    0.25
   0 -11   8    0.90    0.20
   0 -11  -8    0.77    0.22
   0 -11   8    0.62    0.19
   0 -11  -8    0.87    0.20
  -1 -11  -8    9.07    0.52
   1 -11   8   10.11    0.61
   1 -11   8    9.97    0.56
  -1 -11  -8    9.55    0.60
  -2 -11  -8   15.45    0.87
   2 -11   8   15.61    0.90
   2 -11   8   15.94    0.79
   2  11   8   13.99    0.84
  -3 -11  -8   15.29    0.89
   3 -11   8   14.71    0.93
   3 -11   8   17.12    0.80
   3  11   8   14.97    0.88
  -4 -11  -8    5.98    0.52
   4 -11   8    7.02    0.40
   4 -11   8    6.66    0.62
   4  11   8    6.50    0.53
   5 -11   8   10.03    0.78
  -5 -11  -8    9.64    0.65
   5  11   8    9.00    0.64
  -6 -11  -8   -0.24    0.27
   6 -11   8    0.14    0.40
   6  11   8    0.32    0.22
  -7 -11  -8    0.78    0.32
   7 -11   8    1.10    0.53
   7  11   8    0.41    0.25
  -8 -11  -8    1.42    0.39
   8 -11   8    1.38    0.63
   8  11   8    1.28    0.31
   9 -11   8    5.03    0.88
  -9 -11  -8    3.55    0.61
   9  11   8    2.67    0.44
   9 -12  -8    9.56    1.38
   9 -12  -8   12.00    0.86
  -9 -12   8   10.16    1.00
   8 -12  -8   -0.14    0.30
  -8 -12   8    0.20    0.39
   8 -12  -8   -0.76    0.62
   7 -12  -8    1.03    0.56
   7 -12  -8    1.30    0.27
  -7 -12   8    1.16    0.36
   6 -12  -8    0.58    0.21
  -6 -12   8    0.42    0.30
   6 -12  -8    0.66    0.44
  -5 -12   8    8.57    0.66
   5 -12  -8    8.47    0.83
   5 -12  -8    8.28    0.56
  -5 -12   8    8.39    0.62
  -4 -12   8   18.39    0.97
  -4 -12   8   17.58    1.01
   4 -12  -8   17.74    1.18
   4 -12  -8   17.27    0.96
  -3 -12   8    3.33    0.40
   3 -12  -8    2.31    0.45
  -3 -12   8    2.97    0.32
   3 -12  -8    3.16    0.36
  -2 -12   8   31.56    1.52
  -2 -12   8   31.85    1.56
   2 -12  -8   30.53    1.54
   2 -12  -8   29.68    1.63
   1 -12  -8    4.72    0.50
  -1 -12   8    6.61    0.50
   1 -12  -8    6.13    0.45
   0 -12  -8    0.14    0.19
   0 -12  -8    0.32    0.22
   0 -12   8    0.48    0.22
   0 -12   8   -0.36    0.18
   1 -12   8   46.54    2.21
  -1 -12  -8   44.60    2.21
   1 -12   8   46.04    2.17
  -1 -12  -8   43.59    2.13
   2 -12   8    3.34    0.42
   2 -12   8    3.67    0.34
  -2 -12  -8    3.41    0.40
   3 -12   8   14.71    0.74
   3 -12   8   13.38    0.87
  -3 -12  -8   13.71    0.84
   3  12   8   12.93    0.83
   4 -12   8   28.19    1.52
  -4 -12  -8   27.36    1.44
   4 -12   8   29.17    1.39
   4  12   8   23.92    1.40
   5 -12   8    7.66    0.72
  -5 -12  -8    6.08    0.61
   5  12   8    7.32    0.56
   6 -12   8    0.31    0.43
  -6 -12  -8    0.88    0.31
   6  12   8    0.19    0.22
   7 -12   8   -0.11    0.53
  -7 -12  -8    0.53    0.34
   7  12   8    0.20    0.24
  -8 -12  -8    0.04    0.42
   8 -12   8    1.38    0.68
   8  12   8    0.70    0.32
  -8 -13   8    1.70    0.45
   8 -13  -8    1.59    0.36
   8 -13  -8    2.31    0.72
  -7 -13   8    7.87    0.76
   7 -13  -8    8.16    0.62
   7 -13  -8   10.67    1.09
   6 -13  -8    1.32    0.25
   6 -13  -8    1.07    0.52
  -6 -13   8    1.08    0.35
  -5 -13   8    1.82    0.38
  -5 -13   8    1.75    0.35
   5 -13  -8    1.49    0.46
   5 -13  -8    2.54    0.36
  -4 -13   8    0.95    0.30
   4 -13  -8    1.30    0.42
  -3 -13   8    0.01    0.20
   3 -13  -8    0.05    0.21
   3 -13  -8    0.07    0.40
  -3 -13   8    0.23    0.25
   2 -13  -8    1.27    0.34
  -2 -13   8    1.42    0.24
  -2 -13   8    0.98    0.27
   2 -13  -8    0.74    0.25
   1 -13  -8    0.19    0.21
   1 -13  -8   -0.25    0.25
  -1 -13   8    0.32    0.20
  -1 -13   8   -0.09    0.22
   0 -13  -8    6.09    0.49
   0 -13  -8    5.84    0.50
   0 -13   8    6.38    0.54
   0 -13   8    7.00    0.50
   1 -13   8    0.28    0.24
   1 -13   8    0.20    0.21
  -1 -13  -8   -0.02    0.16
  -1 -13  -8    0.31    0.24
  -2 -13  -8    5.58    0.52
   2 -13   8    6.38    0.53
   2 -13   8    5.91    0.46
  -3 -13  -8   15.56    0.97
   3 -13   8   17.52    0.89
   3 -13   8   16.86    1.02
  -4 -13  -8    0.27    0.28
   4 -13   8    0.81    0.35
   4  13   8    0.53    0.25
   5 -13   8    0.99    0.41
  -5 -13  -8    0.11    0.28
   5  13   8    0.07    0.24
   6 -13   8    1.75    0.54
  -6 -13  -8    2.25    0.40
   6  13   8    2.10    0.33
   7 -13   8    3.51    0.70
  -7 -13  -8    4.05    0.53
   7  13   8    2.56    0.38
  -8 -13  -8    1.27    0.48
   8 -13   8    1.30    0.70
   8  13   8    0.29    0.33
   8 -14  -8    0.21    0.71
   8 -14  -8    0.28    0.38
  -8 -14   8    1.05    0.47
  -7 -14   8    1.09    0.45
   7 -14  -8    0.84    0.32
   7 -14  -8    0.99    0.61
   6 -14  -8    0.14    0.48
  -6 -14   8    0.09    0.34
   6 -14  -8    1.05    0.28
  -5 -14   8   10.53    0.79
   5 -14  -8   10.95    1.01
  -5 -14   8   10.07    0.72
   5 -14  -8   11.14    0.70
   4 -14  -8    6.10    0.74
  -4 -14   8    5.65    0.53
  -4 -14   8    5.67    0.56
   4 -14  -8    5.93    0.50
   3 -14  -8    4.31    0.61
   3 -14  -8    3.29    0.43
  -3 -14   8    5.03    0.50
  -3 -14   8    3.31    0.43
  -2 -14   8    3.32    0.45
   2 -14  -8    3.55    0.57
  -2 -14   8    2.68    0.39
   2 -14  -8    3.01    0.42
  -1 -14   8   -0.03    0.23
  -1 -14   8    0.11    0.24
   1 -14  -8    0.17    0.29
   1 -14  -8   -0.14    0.22
   0 -14   8    6.54    0.50
   0 -14   8    5.34    0.50
   0 -14  -8    5.29    0.53
   0 -14  -8    5.18    0.48
  -1 -14  -8    2.31    0.35
   1 -14   8    2.10    0.33
   1 -14   8    2.13    0.35
  -1 -14  -8    1.72    0.27
   2 -14   8   20.73    1.10
  -2 -14  -8   21.15    1.17
   2 -14   8   20.09    1.17
   3 -14   8    1.68    0.28
   3 -14   8    1.41    0.37
  -3 -14  -8    0.99    0.32
  -4 -14  -8   12.95    0.84
   4 -14   8   12.67    0.91
   4  14   8   11.36    0.77
  -5 -14  -8    4.11    0.49
   5 -14   8    5.03    0.74
   5  14   8    3.24    0.48
  -6 -14  -8   -0.01    0.36
   6 -14   8    0.59    0.52
   6  14   8    0.30    0.27
   7 -14   8   -0.27    0.58
  -7 -14  -8    0.24    0.45
   7  14   8   -0.21    0.31
  -7 -15   8    1.21    0.45
   7 -15  -8    0.38    0.38
   7 -15  -8    1.34    0.71
   6 -15  -8    0.06    0.31
  -6 -15   8    0.22    0.39
   6 -15  -8    0.92    0.58
  -6 -15   8    0.40    0.38
   5 -15  -8    0.28    0.49
  -5 -15   8    0.57    0.32
  -5 -15   8    0.51    0.37
   5 -15  -8    0.25    0.28
  -4 -15   8    1.12    0.35
   4 -15  -8    0.79    0.27
   4 -15  -8    1.25    0.48
  -4 -15   8    0.94    0.30
   3 -15  -8    0.10    0.25
  -3 -15   8    0.11    0.29
   3 -15  -8    0.60    0.44
  -3 -15   8   -0.04    0.24
  -2 -15   8   20.67    1.16
   2 -15  -8   20.98    1.28
   2 -15  -8   21.53    1.17
  -2 -15   8   21.06    1.11
   1 -15  -8    4.82    0.54
   1 -15  -8    4.75    0.51
  -1 -15   8    5.38    0.46
  -1 -15   8    5.40    0.51
   0 -15  -8    2.22    0.36
   0 -15  -8    1.95    0.32
   0 -15   8    2.85    0.38
   0 -15   8    1.96    0.31
  -1 -15  -8    1.08    0.20
   1 -15   8    1.06    0.28
  -1 -15  -8    0.62    0.30
   1 -15   8    0.79    0.28
   2 -15   8    2.39    0.38
  -2 -15  -8    2.54    0.41
   2 -15   8    2.53    0.40
   3 -15   8    0.91    0.28
   3 -15   8    0.54    0.35
  -3 -15  -8    0.50    0.33
   4 -15   8    2.42    0.48
  -4 -15  -8    2.49    0.42
  -5 -15  -8    0.86    0.39
   5 -15   8    1.53    0.51
   5  15   8    1.45    0.32
   6 -15   8    4.26    0.70
  -6 -15  -8    4.08    0.56
   6  15   8    2.96    0.43
  -7 -15  -8   -0.12    0.47
   7 -15   8   -0.17    0.65
   7  15   8   -0.58    0.34
  -7 -16   8    1.07    0.52
   7 -16  -8    0.86    0.72
   7 -16  -8    0.34    0.42
  -6 -16   8    1.12    0.43
   6 -16  -8    1.28    0.39
   6 -16  -8   -0.01    0.63
  -6 -16   8    1.58    0.47
   5 -16  -8   -0.13    0.54
   5 -16  -8    0.19    0.32
  -5 -16   8    0.33    0.35
  -5 -16   8    0.72    0.37
  -4 -16   8    4.07    0.58
   4 -16  -8    4.11    0.65
  -4 -16   8    3.86    0.49
   4 -16  -8    4.35    0.51
   3 -16  -8    0.40    0.30
   3 -16  -8    0.16    0.47
  -3 -16   8    0.55    0.28
  -3 -16   8    0.08    0.32
  -2 -16   8    2.57    0.41
  -2 -16   8    3.27    0.41
   2 -16  -8    2.88    0.39
   2 -16  -8    2.59    0.53
   1 -16  -8   -0.32    0.27
   1 -16  -8    0.31    0.34
  -1 -16   8   -0.14    0.23
  -1 -16   8   -0.08    0.28
   0 -16  -8    0.68    0.34
   0 -16   8    1.00    0.29
   0 -16   8    0.82    0.29
   0 -16  -8    0.26    0.26
  -1 -16  -8    2.15    0.39
   1 -16   8    1.36    0.31
   1 -16   8    1.47    0.33
   2 -16   8    9.32    0.75
   2 -16   8    9.83    0.72
  -2 -16  -8   10.18    0.77
   3 -16   8    0.68    0.37
  -3 -16  -8    1.28    0.40
  -4 -16  -8    0.89    0.38
   4 -16   8    0.93    0.45
   5 -16   8    9.24    0.97
  -5 -16  -8    7.41    0.85
   6 -16   8    2.00    0.67
  -6 -16  -8    2.48    0.54
   6 -17  -8    2.20    0.49
   6 -17  -8    2.26    0.79
  -6 -17   8    2.05    0.54
   5 -17  -8    2.70    0.44
   5 -17  -8    2.30    0.66
  -5 -17   8    1.25    0.49
  -5 -17   8    2.06    0.44
   4 -17  -8    0.81    0.55
   4 -17  -8    1.07    0.37
  -4 -17   8    0.51    0.39
  -4 -17   8    1.32    0.35
  -3 -17   8    0.46    0.29
   3 -17  -8    0.41    0.32
  -3 -17   8   -0.16    0.36
   3 -17  -8   -0.37    0.48
  -2 -17   8    1.84    0.40
   2 -17  -8    1.69    0.35
   2 -17  -8    1.06    0.47
  -2 -17   8    1.87    0.34
   1 -17  -8   11.12    0.80
  -1 -17   8   10.33    0.70
   1 -17  -8    9.84    0.82
  -1 -17   8   10.00    0.76
   0 -17  -8   -0.21    0.26
   0 -17  -8    0.50    0.35
   0 -17   8    0.19    0.31
   0 -17   8    0.20    0.27
   1 -17   8    3.46    0.43
  -1 -17  -8    3.83    0.58
   1 -17   8    4.11    0.52
  -2 -17  -8    0.59    0.40
   2 -17   8    0.38    0.35
   2 -17   8    0.53    0.37
   3 -17   8    2.31    0.47
  -3 -17  -8    2.50    0.49
   4 -17   8    0.54    0.44
  -4 -17  -8    0.11    0.43
  -5 -17  -8   -0.35    0.44
   5 -17   8   -0.18    0.50
  -6 -17  -8    6.90    0.95
   6 -17   8    5.58    0.88
  -5 -18   8    0.67    0.43
   5 -18  -8    1.76    0.69
   5 -18  -8    0.06    0.44
  -5 -18   8    0.68    0.49
  -4 -18   8    1.91    0.40
   4 -18  -8    1.29    0.62
   4 -18  -8    1.62    0.40
  -4 -18   8    1.38    0.46
   3 -18  -8    6.05    0.66
  -3 -18   8    4.92    0.59
  -3 -18   8    5.68    0.58
   3 -18  -8    5.02    0.76
   2 -18  -8    2.89    0.46
  -2 -18   8    3.48    0.51
  -2 -18   8    3.95    0.50
   2 -18  -8    3.68    0.60
  -1 -18   8    2.28    0.45
  -1 -18   8    2.99    0.47
   1 -18  -8    2.21    0.43
   1 -18  -8    2.51    0.47
   0 -18  -8    1.15    0.41
   0 -18   8    0.67    0.36
   0 -18   8    1.05    0.33
  -1 -18  -8   -0.21    0.40
   1 -18   8    0.35    0.34
   1 -18   8    0.04    0.37
  -2 -18  -8    1.95    0.50
   2 -18   8    2.36    0.45
   2 -18   8    1.65    0.45
   3 -18   8    0.38    0.43
  -3 -18  -8    0.68    0.48
   4 -18   8    3.15    0.60
  -4 -18  -8    2.95    0.55
   5 -18   8    1.22    0.59
  -5 -18  -8   -0.06    0.56
   4 -19  -8   -0.08    0.70
   4 -19  -8    0.96    0.45
  -4 -19   8    0.89    0.52
  -4 -19   8    1.48    0.42
   3 -19  -8   -0.28    0.42
  -3 -19   8    0.66    0.37
  -3 -19   8    0.67    0.48
   3 -19  -8   -0.06    0.59
  -2 -19   8    0.40    0.36
   2 -19  -8    0.89    0.43
  -2 -19   8   -0.03    0.43
   2 -19  -8    0.16    0.51
  -1 -19   8    1.18    0.36
  -1 -19   8    0.42    0.44
   1 -19  -8    0.14    0.43
   0 -19  -8    1.61    0.47
   0 -19   8    1.95    0.41
   0 -19   8    0.90    0.46
   1 -19   8    0.75    0.38
   1 -19   8   -0.33    0.45
  -1 -19  -8    0.67    0.47
   2 -19   8    0.28    0.40
  -2 -19  -8   -0.26    0.49
  -3 -19  -8    0.24    0.51
   3 -19   8   -0.07    0.47
   4 -19   8    0.87    0.55
  -4 -19  -8   -0.35    0.57
   3 -20  -8    4.29    0.76
  -3 -20   8    3.79    0.64
   3 -20  -8    3.37    0.61
  -3 -20   8    3.88    0.53
  -2 -20   8    1.80    0.44
   2 -20  -8    2.17    0.61
   2 -20  -8    2.52    0.55
  -2 -20   8    2.06    0.56
  -1 -20   8    0.30    0.38
   1 -20  -8    1.19    0.49
  -1 -20   8    0.99    0.51
   0 -20  -8    1.24    0.53
   0 -20   8    0.86    0.53
   0 -20   8    0.02    0.40
   1 -20   8    2.99    0.52
   1 -20   8    3.94    0.61
  -1 -20  -8    2.92    0.57
   2 -20   8    1.91    0.51
  -2 -20  -8    2.00    0.61
  -3 -20  -8    0.12    0.60
  10   0  -9   -0.49    0.34
   9   0  -9    0.24    0.27
   8   0  -9    0.00    0.25
   7   0  -9   41.51    2.08
   6   0  -9   -0.17    0.17
   6   0  -9    0.00    0.18
   5   0  -9    4.60    0.39
   5   0  -9    4.88    0.40
   3   0  -9  102.92    4.79
  -1   0   9    4.61    0.29
  -1   0   9    5.33    0.28
   1   0  -9    4.52    0.29
   0   0   9   -0.07    0.07
   0   0  -9   -0.11    0.06
   0   0   9    0.09    0.06
   0   0   9   -0.10    0.08
  -1   0  -9    6.58    0.34
   1   0   9    6.40    0.38
   1   0   9    6.67    0.36
   1   0   9    6.75    0.35
  -2   0  -9    0.12    0.06
   2   0   9    0.04    0.08
   2   0   9    0.13    0.07
   2   0   9    0.11    0.10
  -3   0  -9    1.77    0.15
   3   0   9    1.74    0.25
   3   0   9    1.51    0.19
   3   0   9    1.90    0.15
   4   0   9   -0.01    0.14
   4   0   9   -0.14    0.08
   4   0   9    0.30    0.16
   5   0   9    2.35    0.37
   5   0   9    2.57    0.31
  -5   0  -9    2.70    0.22
   6   0   9    0.14    0.23
  -6   0  -9    0.01    0.12
   6   0   9    0.07    0.24
   7   0   9    5.28    0.62
   7   0   9    4.47    0.56
  -7   0  -9    5.42    0.37
   8   0   9    0.14    0.43
  -8   0  -9    0.01    0.18
   8   0   9    0.51    0.34
   9   0   9    1.19    0.44
   9   0   9    1.59    0.48
  10   0   9    0.53    0.60
  10   0   9    0.54    0.52
  10  -1  -9    0.04    0.33
  10   1  -9    0.22    0.36
   9  -1  -9    0.14    0.28
   9   1  -9    0.63    0.30
   8  -1  -9   24.69    1.33
   8   1  -9   25.19    1.36
   8   1  -9   24.11    1.35
   7  -1  -9   92.30    4.38
   7   1  -9   93.93    4.41
   7   1  -9   91.24    4.41
   6  -1  -9    3.55    0.35
   6   1  -9    3.28    0.37
   6   1  -9    3.39    0.38
   5  -1  -9    5.42    0.41
   5   1  -9    5.82    0.44
   5   1  -9    5.33    0.44
   4  -1  -9   47.70    2.31
   4   1  -9   49.73    2.33
   4   1  -9   47.51    2.32
   3  -1  -9   65.28    3.08
   3   1  -9   64.98    3.09
   3   1  -9   66.38    3.09
   2  -1  -9   28.35    1.33
  -2  -1   9   26.49    1.32
   2   1  -9   27.88    1.34
   2   1  -9   27.23    1.34
  -1  -1   9    5.11    0.30
   1  -1  -9    5.10    0.30
  -1  -1   9    5.31    0.28
  -1   1   9    4.74    0.30
  -1   1   9    5.46    0.30
   1   1  -9    5.07    0.31
   0  -1   9    1.02    0.12
   0  -1   9    0.89    0.12
   0  -1   9    1.20    0.16
   0  -1  -9    0.95    0.11
   0  -1   9    0.84    0.12
   0   1  -9    0.72    0.11
   0   1   9    1.06    0.12
   1  -1   9    1.66    0.14
  -1  -1  -9    1.50    0.13
   1  -1   9    1.49    0.18
   1  -1   9    1.49    0.14
   1   1   9    1.65    0.13
   1   1   9    1.58    0.15
   1   1   9    1.67    0.17
  -1   1  -9    1.86    0.12
  -2  -1  -9   39.15    1.89
   2  -1   9   44.75    1.89
   2  -1   9   38.16    1.95
   2  -1   9   39.57    1.91
   2   1   9   42.51    1.90
   2   1   9   40.83    1.95
  -2   1  -9   38.27    1.88
   2   1   9   42.30    1.89
  -3  -1  -9  116.83    5.59
   3  -1   9  117.58    5.62
   3  -1   9  117.59    5.67
   3  -1   9  139.64    5.58
   3   1   9  118.80    5.59
   3   1   9  119.90    5.60
   3   1   9  121.37    5.67
  -3   1  -9  121.21    5.57
   4  -1   9    0.51    0.18
   4  -1   9    0.65    0.16
   4  -1   9    0.66    0.08
  -4  -1  -9    0.64    0.12
   4   1   9    0.48    0.17
   4   1   9    0.75    0.15
  -4   1  -9    0.62    0.10
  -5  -1  -9   12.42    0.60
   5  -1   9   11.53    0.56
   5  -1   9   10.56    0.73
   5  -1   9   10.79    0.68
   5   1   9   11.41    0.73
   5   1   9   10.81    0.65
  -5   1  -9   12.07    0.57
  -6  -1  -9    2.14    0.26
   6  -1   9    1.99    0.32
   6  -1   9    1.86    0.34
   6   1   9    2.27    0.36
   6   1   9    2.68    0.43
  -6   1  -9    2.06    0.21
   7  -1   9   31.74    1.72
   7  -1   9   32.51    1.68
  -7  -1  -9   32.14    1.53
   7   1   9   30.63    1.70
  -7   1  -9   30.78    1.50
   7   1   9   31.10    1.63
   8  -1   9   21.78    1.39
   8  -1   9   23.61    1.34
  -8  -1  -9   21.41    1.14
   8   1   9   22.47    1.37
   8   1   9   23.32    1.32
   9  -1   9    1.40    0.46
   9  -1   9    1.24    0.46
   9   1   9    1.24    0.44
   9   1   9    1.44    0.49
  10  -1   9    2.50    0.60
  10  -1   9    2.72    0.67
  10   1   9    2.19    0.86
  10   1   9    1.69    0.52
  10  -2  -9    0.20    0.33
  10   2  -9    0.43    0.37
  10   2  -9   -0.59    0.37
   9  -2  -9    2.02    0.34
   9   2  -9    2.44    0.40
   9   2  -9    2.10    0.41
   8  -2  -9    1.69    0.29
   8   2  -9    0.56    0.30
   8   2  -9    1.15    0.31
   7  -2  -9   15.60    0.88
   7   2  -9   14.93    0.95
   7   2  -9   15.63    0.93
   6  -2  -9    2.96    0.34
   6   2  -9    3.08    0.37
   6   2  -9    3.14    0.37
   5  -2  -9    1.66    0.23
   5   2  -9    1.81    0.26
   5   2  -9    1.42    0.23
  -3  -2   9   24.84    1.26
   3  -2  -9   26.12    1.26
   3   2  -9   26.18    1.28
   3   2  -9   25.83    1.29
  -2  -2   9   48.61    2.31
   2  -2  -9   49.10    2.31
   2   2  -9   49.84    2.33
   2   2  -9   47.71    2.26
   2   2  -9   50.21    2.33
  -1  -2   9   13.62    0.64
  -1  -2   9   13.29    0.67
   1  -2  -9   12.80    0.67
  -1   2   9   14.06    0.67
   1   2  -9   13.12    0.68
   1   2  -9   13.10    0.68
   0  -2   9    1.45    0.15
   0  -2   9    1.99    0.16
   0  -2  -9    2.04    0.16
   0   2  -9    1.83    0.16
   0   2   9    1.81    0.15
   0   2   9    2.26    0.17
   0   2  -9    1.90    0.16
   1  -2   9    7.62    0.49
  -1  -2  -9    9.29    0.46
   1  -2   9    9.56    0.47
  -1   2  -9    8.97    0.44
  -1   2  -9    8.86    0.44
   1   2   9    9.44    0.45
   1   2   9    9.06    0.48
   2  -2   9   46.37    2.51
   2  -2   9   56.80    2.45
   2  -2   9   49.72    2.48
  -2  -2  -9   50.36    2.46
   2  -2   9   56.57    2.45
   2   2   9   54.89    2.51
   2   2   9   58.01    2.45
  -2   2  -9   51.43    2.44
  -3  -2  -9    4.18    0.26
   3  -2   9    4.00    0.37
   3  -2   9    4.07    0.31
   3   2   9    4.30    0.34
   3   2   9    4.31    0.25
  -4  -2  -9   22.03    1.03
   4  -2   9   19.98    1.13
   4  -2   9   21.38    1.09
   4   2   9   22.30    1.12
   4   2   9   20.36    1.04
   5  -2   9   10.44    0.74
   5  -2   9   11.53    0.55
  -5  -2  -9   11.31    0.61
   5  -2   9   11.48    0.69
   5   2   9   10.61    0.63
   5   2   9   12.60    0.73
  -5   2  -9   11.31    0.55
   6  -2   9    1.53    0.21
   6  -2   9    1.13    0.29
  -6  -2  -9    1.22    0.19
   6  -2   9    1.54    0.32
   6  -2   9    1.31    0.16
   6   2   9    1.27    0.29
   6   2   9    1.43    0.25
   7  -2   9    0.85    0.30
  -7  -2  -9    0.63    0.19
   7  -2   9    0.30    0.39
   7  -2   9    0.83    0.17
   7   2   9    0.72    0.28
   7   2   9    0.59    0.28
   8  -2   9   14.91    1.02
  -8  -2  -9   13.98    0.81
   8  -2   9   12.52    1.02
   8   2   9   15.74    1.00
   8   2   9   13.79    0.93
  -9  -2  -9    0.82    0.30
   9  -2   9    0.36    0.47
   9  -2   9    1.38    0.51
   9   2   9    0.93    0.54
   9   2   9    1.20    0.41
  10  -2   9    1.02    0.53
  10  -2   9    0.79    0.62
  10   2   9    0.89    0.48
  10  -3  -9   -0.07    0.67
  10  -3  -9    0.17    0.31
  10   3  -9   -0.09    0.43
  10   3  -9    0.39    0.41
   9  -3  -9    0.67    0.26
   9   3  -9    0.56    0.36
   9   3  -9    0.57    0.31
   9   3  -9    0.89    0.35
   8  -3  -9    0.95    0.25
   8   3  -9    1.16    0.33
   8   3  -9    1.36    0.36
   7  -3  -9    8.34    0.58
   7   3  -9    8.38    0.67
   7   3  -9    8.20    0.67
   6  -3  -9    0.54    0.18
  -6  -3   9    0.20    0.18
   5  -3  -9   21.74    1.09
  -5  -3   9   20.72    1.08
   4  -3  -9   67.83    3.20
  -4  -3   9   68.24    3.20
   3  -3  -9   12.49    0.65
  -3  -3   9   12.84    0.65
  -3  -3   9   11.71    0.65
  -2  -3   9    0.08    0.10
   1  -3  -9   32.24    1.53
  -1  -3   9   33.03    1.53
  -1  -3   9   32.62    1.49
   1   3  -9   31.95    1.55
   1   3  -9   31.34    1.55
   0  -3  -9   11.12    0.57
   0  -3   9   10.61    0.57
   0  -3   9   11.34    0.57
   0   3  -9   11.69    0.57
   0   3  -9   11.35    0.57
   0   3   9   11.52    0.58
   0   3  -9   10.85    0.56
   1  -3   9   22.41    1.08
   1  -3   9   19.94    1.10
  -1  -3  -9   23.01    1.07
  -1   3  -9   22.18    1.05
  -1   3  -9   22.33    1.05
   1   3   9   23.92    1.09
   1   3   9   22.62    1.05
   2  -3   9   10.32    0.55
  -2  -3  -9    9.81    0.53
   2   3   9   10.71    0.50
   2   3   9   10.38    0.57
   3  -3   9    0.25    0.14
  -3  -3  -9    0.20    0.09
   3   3   9    0.32    0.07
   3   3   9    0.11    0.12
   4  -3   9   58.61    2.85
  -4  -3  -9   60.66    2.79
   4   3   9   61.01    2.86
   4   3   9   58.45    2.77
  -5  -3  -9    0.21    0.14
   5  -3   9    0.13    0.22
   5   3   9    0.22    0.15
  -6  -3  -9   10.31    0.62
   6  -3   9   10.58    0.76
   6   3   9   11.62    0.76
   6   3   9   10.89    0.64
   7  -3   9   10.53    0.89
  -7  -3  -9   11.69    0.67
   7   3   9    9.79    0.68
   7   3   9   10.96    0.80
   8  -3   9    0.31    0.39
   8  -3   9   -0.05    0.36
  -8  -3  -9    0.63    0.26
   8   3   9    0.25    0.33
   8   3   9    0.80    0.34
  -9  -3  -9    0.32    0.27
   9  -3   9   -0.92    0.42
   9  -3   9    0.40    0.48
   9   3   9   -0.04    0.36
  10  -3   9    3.54    0.73
  10  -3   9    3.22    0.65
  10   3   9    2.46    0.54
  10  -4  -9    5.29    0.89
  10  -4  -9    3.90    0.55
  10   4  -9    4.13    0.62
  10   4  -9    3.95    0.59
   9  -4  -9    0.13    0.25
   9   4  -9    0.58    0.35
   9   4  -9    0.83    0.36
   8  -4  -9    0.52    0.23
   8   4  -9    1.34    0.37
   8   4  -9    0.73    0.27
   8   4  -9    0.53    0.33
   7  -4  -9    8.21    0.56
  -7  -4   9    8.34    0.57
   7   4  -9    8.08    0.56
   6  -4  -9   10.90    0.64
  -6  -4   9   10.67    0.64
   5  -4  -9    1.08    0.19
  -5  -4   9    0.92    0.18
  -4  -4   9    0.16    0.14
  -4  -4   9    0.19    0.13
   4  -4  -9    0.27    0.13
  -3  -4   9   10.13    0.56
  -3  -4   9   10.51    0.57
   3  -4  -9   10.23    0.56
  -2  -4   9  242.86   11.57
  -2  -4   9  263.39   11.58
   2  -4  -9  250.47   11.57
  -1  -4   9    0.36    0.11
   0  -4   9   26.83    1.39
   0  -4  -9   29.54    1.39
   0  -4   9   30.23    1.38
   0  -4   9   29.73    1.39
   0   4   9   30.26    1.40
   0   4  -9   28.54    1.38
  -1  -4  -9   70.33    3.26
   1  -4   9   69.65    3.26
  -1   4  -9   70.34    3.24
   1   4   9   68.80    3.26
  -1   4  -9   70.76    3.23
  -1   4  -9   70.64    3.24
  -2  -4  -9   23.50    1.25
   2  -4   9   26.36    1.30
  -2  -4  -9   26.36    1.28
   2   4   9   28.49    1.24
   2   4   9   28.68    1.31
   3  -4   9   12.90    0.72
  -3  -4  -9   12.82    0.67
   3   4   9   12.47    0.70
   3   4   9   13.49    0.61
   4  -4   9    0.94    0.21
   5  -4   9   24.09    1.27
  -5  -4  -9   24.12    1.18
   5   4   9   24.53    1.25
   5   4   9   21.83    1.14
   6  -4   9    9.89    0.75
  -6  -4  -9    9.33    0.58
   6   4   9    9.34    0.68
   6   4   9    8.30    0.55
  -7  -4  -9    1.08    0.27
   7  -4   9    1.43    0.40
   7   4   9    0.87    0.27
   7   4   9    1.10    0.31
  -8  -4  -9    0.41    0.26
   8  -4   9    1.11    0.44
   8   4   9    1.21    0.36
   9  -4   9   -0.35    0.48
   9  -4   9    0.60    0.47
  -9  -4  -9    0.85    0.31
   9   4   9    0.56    0.37
  10  -4   9    0.69    0.55
  10  -4   9   -0.20    0.63
  10   4   9    0.43    0.44
  10  -5  -9    0.49    0.32
  10  -5  -9   -0.08    0.72
  10   5  -9   -0.16    0.48
  10   5  -9    0.02    0.46
   9  -5  -9   -0.02    0.55
   9  -5  -9   -0.12    0.25
   9   5  -9   -0.29    0.37
   9   5  -9   -0.05    0.39
   8  -5  -9    3.88    0.40
  -8  -5   9    3.47    0.45
  -7  -5   9   -0.31    0.19
   7  -5  -9    0.01    0.19
   7   5  -9   -0.20    0.19
  -6  -5   9   17.26    0.93
   6  -5  -9   16.41    0.91
   6   5  -9   17.19    0.87
   5  -5  -9    1.77    0.25
  -5  -5   9    1.60    0.22
   5   5  -9    1.72    0.19
  -4  -5   9    2.12    0.25
  -4  -5   9    2.04    0.27
   4  -5  -9    2.54    0.25
  -3  -5   9    2.11    0.23
  -3  -5   9    1.81    0.22
   3  -5  -9    2.12    0.21
  -2  -5   9   10.18    0.58
   2  -5  -9   11.40    0.58
  -2  -5   9   10.99    0.57
  -1  -5   9   19.49    0.96
   1  -5  -9   20.95    1.00
  -1  -5   9   21.21    1.00
  -1  -5   9   20.25    1.00
   0  -5  -9   20.88    1.05
   0  -5   9   22.26    1.05
   0  -5   9   21.28    1.03
   0   5   9   21.68    1.06
   1  -5   9   17.36    0.87
   1  -5   9   16.14    0.82
  -1  -5  -9   17.46    0.86
  -1   5  -9   16.04    0.83
   1   5   9   19.65    0.88
   2  -5   9    0.66    0.14
  -2  -5  -9    0.70    0.13
   3  -5   9    3.55    0.34
  -3  -5  -9    4.36    0.29
   3   5   9    3.84    0.31
  -4  -5  -9    3.18    0.29
   4  -5   9    3.17    0.35
   4   5   9    3.45    0.32
   5  -5   9    2.70    0.42
  -5  -5  -9    1.80    0.24
   5   5   9    1.60    0.19
   5   5   9    2.37    0.35
   6  -5   9   15.54    0.98
  -6  -5  -9   14.34    0.83
   6   5   9   13.71    0.75
   6   5   9   14.84    0.90
   7  -5   9    0.35    0.40
  -7  -5  -9    0.22    0.23
   7   5   9    0.21    0.25
   7   5   9    0.51    0.27
   8  -5   9    0.58    0.45
  -8  -5  -9    0.20    0.26
   8   5   9    0.14    0.29
   9  -5   9   -0.94    0.50
  -9  -5  -9    0.21    0.31
   9   5   9    0.49    0.36
  10  -5   9    0.28    0.57
  10  -5   9   -0.07    0.64
  10   5   9   -0.79    0.42
  10  -6  -9    0.05    0.34
  10  -6  -9    1.25    0.75
  10   6  -9    0.22    0.52
  10   6  -9    0.31    0.51
  -9  -6   9    4.08    0.53
   9  -6  -9    3.89    0.46
   9  -6  -9    2.70    0.69
  -8  -6   9    1.15    0.29
   8  -6  -9    2.30    0.53
   8  -6  -9    0.80    0.23
  -7  -6   9    0.10    0.21
   7  -6  -9   -0.15    0.20
   7   6  -9   -0.09    0.23
   6  -6  -9    7.39    0.49
  -6  -6   9    7.13    0.53
   6   6  -9    7.83    0.44
  -5  -6   9    2.65    0.33
   5  -6  -9    3.18    0.29
   4  -6  -9    6.21    0.43
  -4  -6   9    6.97    0.43
  -4  -6   9    7.05    0.45
  -3  -6   9    3.07    0.27
  -3  -6   9    3.60    0.30
   3  -6  -9    3.17    0.26
  -2  -6   9   16.36    0.82
   2  -6  -9   17.02    0.83
  -2  -6   9   15.46    0.83
  -1  -6   9    0.06    0.12
   0  -6  -9    0.70    0.13
   0  -6   9    0.82    0.12
   0  -6   9    1.06    0.17
   0   6   9    0.87    0.15
   1  -6   9   86.86    3.92
   1  -6   9   85.72    3.96
  -1  -6  -9   85.79    3.96
   1   6   9   85.23    3.96
  -1   6  -9   81.55    3.92
  -2  -6  -9   38.70    1.78
   2  -6   9   38.32    1.80
   2   6   9   39.89    1.79
  -2   6  -9   31.61    1.70
  -3  -6  -9   18.27    0.95
   3  -6   9   18.59    0.99
   3   6   9   19.17    0.97
   4  -6   9    0.92    0.24
  -4  -6  -9    0.43    0.18
   4   6   9    0.84    0.18
   5  -6   9    3.74    0.51
  -6  -6  -9   37.26    1.91
   6  -6   9   40.97    2.05
   6   6   9   38.93    1.96
  -7  -6  -9    0.31    0.24
   7  -6   9   -0.08    0.36
   7   6   9   -0.23    0.23
   8  -6   9    0.54    0.46
  -8  -6  -9    0.43    0.28
   8   6   9    1.00    0.31
   9  -6   9    0.51    0.56
  -9  -6  -9    0.62    0.34
   9   6   9    0.64    0.37
  10  -6   9    1.42    0.74
 -10  -6  -9    0.73    0.39
  10   6   9    1.24    0.47
 -10  -7   9    3.52    0.51
  10  -7  -9    3.70    0.84
  10  -7  -9    2.70    0.43
  10   7  -9    3.54    0.67
  10   7  -9    3.76    0.67
   9  -7  -9    4.39    0.76
   9  -7  -9    4.58    0.49
  -9  -7   9    4.21    0.58
  -8  -7   9    6.02    0.52
   8  -7  -9    4.72    0.81
   8  -7  -9    5.25    0.45
   7  -7  -9    0.35    0.40
  -7  -7   9    0.11    0.22
   7  -7  -9    0.08    0.19
   6  -7  -9    0.09    0.17
  -6  -7   9   -0.22    0.19
  -5  -7   9   10.50    0.63
  -5  -7   9   10.15    0.63
   5  -7  -9   10.75    0.60
  -4  -7   9    5.89    0.38
   4  -7  -9    5.40    0.38
  -4  -7   9    4.65    0.39
  -3  -7   9   67.22    3.07
  -3  -7   9   64.06    3.05
   3  -7  -9   63.55    3.05
   2  -7  -9   83.72    3.93
  -2  -7   9   85.31    3.94
  -2  -7   9   84.24    3.92
  -1  -7   9    0.27    0.13
   0  -7   9   39.53    1.88
   0  -7   9   41.41    1.89
   0  -7  -9   38.50    1.90
  -1  -7  -9   51.30    2.36
   1  -7   9   49.69    2.36
   1  -7   9   50.65    2.32
  -1  -7  -9   46.62    2.32
   1   7   9   50.51    2.36
  -2  -7  -9   46.50    2.23
   2  -7   9   47.60    2.16
   2  -7   9   46.49    2.25
   2   7   9   46.34    2.23
  -3  -7  -9   15.64    0.83
   3  -7   9   15.21    0.87
   3   7   9   15.65    0.82
  -4  -7  -9    2.87    0.36
   4  -7   9    3.95    0.47
   4   7   9    3.96    0.35
  -5  -7  -9    6.90    0.52
   5  -7   9    7.25    0.64
   5   7   9    7.16    0.55
   6  -7   9    6.61    0.70
  -6  -7  -9    5.74    0.51
   6   7   9    6.73    0.53
   7  -7   9    0.58    0.41
  -7  -7  -9    0.76    0.26
   7   7   9    0.84    0.27
   8  -7   9    2.49    0.58
  -8  -7  -9    3.21    0.40
   8   7   9    3.23    0.53
   9  -7   9    6.24    0.95
  -9  -7  -9    5.57    0.67
   9   7   9    6.14    0.71
 -10  -8   9    0.75    0.41
  10  -8  -9   -0.25    0.75
  10  -8  -9    0.29    0.34
   9  -8  -9    2.09    0.32
   9  -8  -9    1.48    0.66
  -9  -8   9    2.11    0.42
   8  -8  -9    2.44    0.56
   8  -8  -9    2.98    0.39
  -8  -8   9    3.19    0.48
   7  -8  -9    0.18    0.42
   7  -8  -9    0.02    0.19
  -7  -8   9   -0.13    0.23
   6  -8  -9    4.43    0.64
   6  -8  -9    4.77    0.39
  -6  -8   9    4.58    0.43
  -5  -8   9    1.02    0.23
   5  -8  -9    1.45    0.22
   5  -8  -9    0.60    0.43
  -5  -8   9    1.30    0.24
  -4  -8   9   10.06    0.63
   4  -8  -9   11.02    0.60
  -4  -8   9   10.61    0.61
  -3  -8   9    0.80    0.19
  -3  -8   9    0.65    0.16
   3  -8  -9    0.65    0.16
  -2  -8   9   48.73    2.29
  -2  -8   9   47.69    2.31
   2  -8  -9   48.95    2.30
   1  -8  -9    1.10    0.24
   1  -8  -9    0.75    0.16
  -1  -8   9    0.70    0.14
  -1  -8   9    0.82    0.16
   0  -8  -9    4.40    0.35
   0  -8   9    4.72    0.32
   0  -8   9    4.73    0.31
   0  -8  -9    4.34    0.37
   1  -8   9    0.73    0.17
  -1  -8  -9    0.77    0.18
  -1  -8  -9    0.73    0.14
   1  -8   9    0.46    0.12
   1   8   9    0.50    0.16
   2  -8   9   56.82    2.81
  -2  -8  -9   59.80    2.80
   2  -8   9   59.73    2.73
   2   8   9   59.34    2.79
  -3  -8  -9   12.34    0.71
   3  -8   9   11.71    0.74
   3   8   9   12.39    0.69
  -4  -8  -9    8.76    0.58
   4  -8   9    9.28    0.69
   4   8   9    9.34    0.58
  -5  -8  -9    5.84    0.46
   5  -8   9    5.31    0.58
   5   8   9    5.48    0.47
  -6  -8  -9    0.84    0.25
   6  -8   9    1.57    0.40
   6   8   9    1.35    0.26
  -7  -8  -9    0.12    0.25
   7  -8   9   -0.08    0.41
   7   8   9   -0.09    0.23
   8  -8   9    0.74    0.52
  -8  -8  -9    0.67    0.32
   8   8   9    0.83    0.30
  -9  -8  -9    0.88    0.41
   9  -8   9    0.59    0.62
   9   8   9    1.15    0.36
   9  -9  -9    0.93    0.69
   9  -9  -9    1.26    0.31
  -9  -9   9    1.67    0.41
   8  -9  -9    0.44    0.51
  -8  -9   9    0.28    0.31
   8  -9  -9    0.28    0.23
   7  -9  -9    0.56    0.20
  -7  -9   9    0.65    0.27
   7  -9  -9    0.70    0.46
   6  -9  -9    0.40    0.20
  -6  -9   9    0.48    0.26
   6  -9  -9    0.47    0.41
  -5  -9   9   32.59    1.63
   5  -9  -9   31.38    1.81
   5  -9  -9   31.87    1.60
  -5  -9   9   33.87    1.65
  -4  -9   9   41.42    2.01
   4  -9  -9   40.24    2.15
  -4  -9   9   41.41    1.99
   4  -9  -9   40.85    1.98
   3  -9  -9   23.89    1.24
  -3  -9   9   26.47    1.27
  -3  -9   9   25.00    1.24
   3  -9  -9   24.37    1.37
   2  -9  -9   19.58    0.98
   2  -9  -9   17.38    1.07
  -2  -9   9   19.58    0.96
  -2  -9   9   19.52    1.00
  -1  -9   9   49.26    2.28
   1  -9  -9   47.41    2.29
  -1  -9   9   49.28    2.29
   1  -9  -9   46.51    2.34
   0  -9   9    0.09    0.13
   0  -9   9    0.32    0.14
   0  -9  -9   -0.15    0.14
   0  -9  -9   -0.23    0.18
   1  -9   9    0.61    0.14
   2  -9   9   88.04    4.00
   2  -9   9   83.80    4.08
  -2  -9  -9   87.71    4.07
   2   9   9   86.44    4.06
  -3  -9  -9    1.72    0.26
   3  -9   9    2.05    0.18
   3  -9   9    2.83    0.40
   3   9   9    2.21    0.33
  -3   9  -9    1.74    0.16
   4  -9   9   18.94    1.09
  -4  -9  -9   17.80    1.00
   4   9   9   18.86    1.00
   5  -9   9    4.53    0.56
  -5  -9  -9    4.98    0.45
   5   9   9    4.38    0.43
  -6  -9  -9    1.47    0.30
   6  -9   9    2.22    0.42
   6   9   9    1.66    0.27
   7  -9   9    0.31    0.43
  -7  -9  -9    0.19    0.28
   7   9   9    0.12    0.24
  -8  -9  -9    0.84    0.33
   8  -9   9   -0.50    0.52
   8   9   9    0.51    0.29
   9  -9   9    0.61    0.66
  -9  -9  -9    0.08    0.42
   9   9   9   -0.43    0.33
   9 -10  -9    0.71    0.33
   9 -10  -9   -0.09    0.67
  -9 -10   9   -0.04    0.38
   8 -10  -9    2.81    0.36
  -8 -10   9    3.12    0.43
   8 -10  -9    3.87    0.71
   7 -10  -9    2.96    0.36
  -7 -10   9    2.62    0.38
   7 -10  -9    3.30    0.61
   6 -10  -9   31.15    1.54
  -6 -10   9   31.15    1.59
   6 -10  -9   29.79    1.77
  -5 -10   9    7.38    0.54
  -5 -10   9    6.90    0.54
   5 -10  -9    7.31    0.49
   5 -10  -9    5.82    0.76
  -4 -10   9   36.74    1.83
   4 -10  -9   37.74    2.02
   4 -10  -9   36.90    1.83
  -4 -10   9   39.01    1.87
  -3 -10   9    2.11    0.32
  -3 -10   9    2.24    0.27
   3 -10  -9    2.08    0.39
   3 -10  -9    1.53    0.22
   2 -10  -9   10.00    0.73
  -2 -10   9   10.82    0.59
  -2 -10   9   10.12    0.64
   2 -10  -9   10.81    0.61
   1 -10  -9    0.26    0.22
  -1 -10   9    0.42    0.16
   1 -10  -9    0.25    0.16
  -1 -10   9    0.34    0.17
   0 -10   9    0.79    0.18
   0 -10   9    0.72    0.16
   0 -10  -9    0.55    0.21
   0 -10  -9    0.69    0.18
  -1 -10  -9    3.38    0.35
   1 -10   9    3.66    0.34
   1 -10   9    3.49    0.29
  -1 -10  -9    2.68    0.27
   2 -10   9    0.84    0.25
   2 -10   9    0.42    0.13
  -2 -10  -9    0.31    0.19
   2  10   9    0.52    0.20
   3 -10   9    1.11    0.29
   3 -10   9    0.78    0.14
  -3 -10  -9    0.50    0.21
  -3  10  -9    0.61    0.12
   3  10   9    1.07    0.24
  -4 -10  -9    3.07    0.37
   4 -10   9    3.34    0.47
   4  10   9    3.45    0.41
  -5 -10  -9   40.35    2.02
   5 -10   9   41.22    2.12
   5  10   9   40.16    2.00
  -6 -10  -9    3.46    0.47
   6 -10   9    3.54    0.54
   6  10   9    3.22    0.40
  -7 -10  -9    0.16    0.30
   7 -10   9    0.34    0.47
   7  10   9    0.13    0.25
  -8 -10  -9    2.25    0.44
   8 -10   9    2.66    0.64
   8  10   9    2.23    0.36
   9 -10   9    1.61    0.68
  -9 -10  -9    1.07    0.49
   9  10   9    1.24    0.38
  -9 -11   9    1.43    0.46
   9 -11  -9    0.32    0.72
   9 -11  -9    0.65    0.35
   8 -11  -9    1.60    0.32
   8 -11  -9    2.18    0.66
  -8 -11   9    1.73    0.43
   7 -11  -9    0.85    0.23
   7 -11  -9    1.41    0.52
  -7 -11   9    0.69    0.32
   6 -11  -9    2.43    0.34
  -6 -11   9    1.52    0.34
   6 -11  -9    2.06    0.54
  -5 -11   9    6.51    0.55
   5 -11  -9    5.98    0.72
   5 -11  -9    7.04    0.49
  -5 -11   9    7.14    0.58
   4 -11  -9    2.83    0.33
   4 -11  -9    2.44    0.54
  -4 -11   9    2.85    0.41
  -4 -11   9    2.75    0.35
  -3 -11   9   20.50    1.04
   3 -11  -9   20.14    1.05
  -3 -11   9   21.02    1.08
   3 -11  -9   18.42    1.20
   2 -11  -9    0.91    0.31
  -2 -11   9    1.11    0.20
   2 -11  -9    1.12    0.21
  -2 -11   9    1.35    0.25
   1 -11  -9   30.97    1.65
   1 -11  -9   31.14    1.61
  -1 -11   9   33.69    1.62
  -1 -11   9   34.39    1.59
   0 -11  -9   35.01    1.71
   0 -11   9   35.09    1.69
   0 -11   9   36.49    1.69
   0 -11  -9   31.79    1.69
   1 -11   9    5.58    0.43
   1 -11   9    7.73    0.51
  -1 -11  -9    6.70    0.40
  -1 -11  -9    6.89    0.48
   2 -11   9    1.80    0.26
   2 -11   9    1.64    0.31
  -2 -11  -9    1.85    0.27
  -3 -11  -9    4.67    0.44
   3 -11   9    4.81    0.33
   3  11   9    4.03    0.44
   4 -11   9    0.43    0.30
  -4 -11  -9    0.15    0.24
   4  11   9   -0.09    0.20
   5 -11   9    4.10    0.61
  -5 -11  -9    4.57    0.49
   5  11   9    4.00    0.42
  -6 -11  -9   -0.04    0.27
   6 -11   9    0.50    0.42
   6  11   9   -0.21    0.20
  -7 -11  -9   -0.49    0.31
   7 -11   9    0.14    0.49
   7  11   9    0.27    0.24
   8 -11   9    0.22    0.62
  -8 -11  -9   -0.28    0.37
   8  11   9    0.23    0.29
   8 -12  -9    0.59    0.30
  -8 -12   9    0.87    0.41
   8 -12  -9    1.56    0.70
   7 -12  -9    1.03    0.27
   7 -12  -9    1.25    0.59
  -7 -12   9    1.39    0.37
   6 -12  -9    1.68    0.54
   6 -12  -9    1.37    0.27
  -6 -12   9    1.62    0.35
  -5 -12   9    8.32    0.65
   5 -12  -9    8.16    0.80
   5 -12  -9    8.56    0.56
  -5 -12   9    8.26    0.64
   4 -12  -9   35.53    1.96
  -4 -12   9   35.17    1.80
   4 -12  -9   36.03    1.77
  -4 -12   9   35.65    1.77
   3 -12  -9    1.50    0.41
  -3 -12   9    1.59    0.30
   3 -12  -9    2.46    0.33
  -3 -12   9    2.38    0.32
   2 -12  -9    0.62    0.31
  -2 -12   9    0.91    0.21
   2 -12  -9    0.82    0.20
  -2 -12   9    0.74    0.25
  -1 -12   9   16.27    0.90
   1 -12  -9   15.85    0.88
  -1 -12   9   17.32    0.87
   1 -12  -9   14.29    0.93
   0 -12   9   37.61    1.70
   0 -12  -9   30.87    1.68
   0 -12  -9   33.28    1.71
   0 -12   9   34.99    1.69
  -1 -12  -9    0.71    0.22
   1 -12   9    0.82    0.20
   2 -12   9    0.60    0.24
  -2 -12  -9    0.35    0.23
   2 -12   9    0.14    0.18
  -3 -12  -9    3.78    0.43
   3 -12   9    3.64    0.47
   3 -12   9    2.58    0.31
   3  12   9    2.49    0.40
   4 -12   9    0.33    0.31
  -4 -12  -9    0.09    0.26
   4  12   9   -0.09    0.23
   5 -12   9   20.38    1.21
  -5 -12  -9   19.34    1.10
   5  12   9   18.24    1.06
   6 -12   9   -0.01    0.42
  -6 -12  -9    0.13    0.31
   6  12   9   -0.20    0.22
  -7 -12  -9    0.44    0.36
   7 -12   9    0.58    0.55
   7  12   9    0.51    0.27
  -8 -12  -9    0.48    0.44
   8 -12   9    0.46    0.65
   8  12   9    0.57    0.32
   8 -13  -9    0.69    0.35
  -8 -13   9    0.79    0.43
   8 -13  -9    1.90    0.73
   7 -13  -9    1.39    0.62
  -7 -13   9    1.19    0.40
   7 -13  -9    0.78    0.30
   6 -13  -9    0.88    0.25
  -6 -13   9    0.37    0.31
   6 -13  -9    0.98    0.51
  -6 -13   9    0.45    0.33
   5 -13  -9   -0.14    0.44
   5 -13  -9    0.04    0.21
  -5 -13   9   -0.28    0.27
  -5 -13   9    0.38    0.30
  -4 -13   9   12.00    0.81
  -4 -13   9   12.41    0.77
   4 -13  -9   13.38    1.01
   4 -13  -9   12.28    0.73
  -3 -13   9    9.91    0.67
  -3 -13   9   11.53    0.74
   3 -13  -9   10.43    0.91
   3 -13  -9   11.84    0.69
  -2 -13   9    0.65    0.26
  -2 -13   9    0.40    0.22
   2 -13  -9    0.26    0.34
   2 -13  -9   -0.02    0.20
  -1 -13   9    1.00    0.27
  -1 -13   9    1.67    0.28
   1 -13  -9    1.24    0.31
   1 -13  -9    0.84    0.23
   0 -13  -9   11.81    0.75
   0 -13  -9   10.94    0.71
   0 -13   9   12.10    0.76
   0 -13   9   12.99    0.72
  -1 -13  -9   10.94    0.72
   1 -13   9   11.43    0.69
   1 -13   9   11.67    0.72
  -1 -13  -9   10.82    0.60
   2 -13   9   14.21    0.85
   2 -13   9   14.40    0.78
  -2 -13  -9   13.35    0.86
  -3 -13  -9    6.44    0.59
   3 -13   9    6.21    0.58
   3 -13   9    6.82    0.46
   4 -13   9    0.18    0.33
  -4 -13  -9   -0.30    0.28
   4  13   9   -0.10    0.24
   5 -13   9    1.89    0.45
  -5 -13  -9    1.00    0.33
   5  13   9    1.24    0.28
   6 -13   9    1.48    0.55
  -6 -13  -9    1.67    0.38
   6  13   9    0.94    0.29
  -7 -13  -9    1.89    0.46
   7 -13   9    2.46    0.67
   7  13   9    1.19    0.32
   8 -13   9    1.24    0.75
  -8 -13  -9    0.94    0.49
   8  13   9    0.56    0.34
   8 -14  -9   -0.35    0.37
   8 -14  -9    0.29    0.77
  -8 -14   9   -0.66    0.46
   7 -14  -9    0.44    0.62
  -7 -14   9   -0.10    0.38
   7 -14  -9   -0.19    0.31
   6 -14  -9    0.53    0.55
   6 -14  -9    0.88    0.28
  -6 -14   9    0.80    0.37
  -6 -14   9    0.90    0.36
  -5 -14   9    0.71    0.33
   5 -14  -9    0.17    0.48
   5 -14  -9    0.62    0.24
  -5 -14   9    0.26    0.29
   4 -14  -9    5.36    0.47
  -4 -14   9    5.51    0.51
  -4 -14   9    4.86    0.53
   4 -14  -9    4.91    0.73
  -3 -14   9    1.34    0.31
  -3 -14   9    1.40    0.27
   3 -14  -9    1.22    0.52
   3 -14  -9    0.97    0.26
   2 -14  -9    2.01    0.42
   2 -14  -9    3.52    0.41
  -2 -14   9    2.65    0.36
  -2 -14   9    2.05    0.34
  -1 -14   9   12.42    0.70
   1 -14  -9   11.48    0.73
   1 -14  -9   10.89    0.77
  -1 -14   9   10.77    0.72
   0 -14  -9    2.44    0.35
   0 -14  -9    2.41    0.40
   0 -14   9    2.03    0.32
   0 -14   9    3.23    0.40
  -1 -14  -9   17.99    1.05
   1 -14   9   17.11    1.01
  -1 -14  -9   17.76    0.91
   1 -14   9   18.96    1.02
   2 -14   9    7.87    0.56
   2 -14   9    7.54    0.61
  -2 -14  -9    8.39    0.66
   3 -14   9    2.12    0.39
  -3 -14  -9    2.00    0.37
   3 -14   9    2.12    0.28
   4 -14   9    2.62    0.44
  -4 -14  -9    2.32    0.39
   4  14   9    1.70    0.31
  -5 -14  -9    1.99    0.39
   5 -14   9    2.21    0.51
   5  14   9    1.29    0.32
  -6 -14  -9    0.03    0.35
   6 -14   9    1.93    0.54
   6  14   9    0.45    0.29
   7 -14   9    1.65    0.63
  -7 -14  -9    1.49    0.50
   7  14   9    0.90    0.36
   7 -15  -9    0.73    0.67
  -7 -15   9    0.08    0.44
   7 -15  -9    0.43    0.36
   6 -15  -9   -0.84    0.58
  -6 -15   9    0.00    0.38
  -6 -15   9    0.55    0.43
   6 -15  -9   -0.14    0.31
  -5 -15   9    1.11    0.34
   5 -15  -9    0.44    0.30
   5 -15  -9    1.39    0.56
  -5 -15   9    0.77    0.35
   4 -15  -9   14.60    0.87
  -4 -15   9   14.48    0.87
  -4 -15   9   14.57    0.92
   4 -15  -9   13.57    1.09
  -3 -15   9    4.55    0.55
   3 -15  -9    5.04    0.50
  -3 -15   9    4.25    0.45
   3 -15  -9    4.87    0.76
  -2 -15   9   -0.23    0.26
   2 -15  -9    0.29    0.25
  -2 -15   9    0.00    0.21
   2 -15  -9   -0.22    0.38
  -1 -15   9    0.23    0.23
   1 -15  -9    0.10    0.26
   1 -15  -9    0.06    0.31
  -1 -15   9   -0.35    0.25
   0 -15   9   15.41    0.85
   0 -15  -9   15.05    0.91
   0 -15  -9   12.24    0.82
   0 -15   9   14.53    0.86
  -1 -15  -9    0.70    0.33
   1 -15   9    0.73    0.29
   1 -15   9    1.08    0.29
   2 -15   9    0.78    0.34
   2 -15   9    0.75    0.31
  -2 -15  -9    0.76    0.32
  -3 -15  -9    4.01    0.54
   3 -15   9    3.96    0.55
  -4 -15  -9    5.90    0.66
   4 -15   9    6.93    0.72
   5 -15   9    8.53    0.86
  -5 -15  -9    6.31    0.69
   5  15   9    5.97    0.59
  -6 -15  -9    3.59    0.56
   6 -15   9    5.05    0.77
   6  15   9    3.21    0.44
   7 -15   9    1.78    0.73
  -7 -15  -9    0.36    0.51
   7  15   9   -0.49    0.35
   7 -16  -9    2.03    0.76
   7 -16  -9    1.12    0.48
  -7 -16   9    1.51    0.55
  -6 -16   9    4.21    0.57
  -6 -16   9    4.04    0.70
   6 -16  -9    4.78    0.78
   6 -16  -9    4.77    0.65
   5 -16  -9    0.59    0.59
  -5 -16   9    0.99    0.36
   5 -16  -9    0.47    0.32
  -5 -16   9    0.69    0.38
   4 -16  -9    1.02    0.57
   4 -16  -9    1.64    0.35
  -4 -16   9    2.18    0.36
  -4 -16   9    1.28    0.40
  -3 -16   9    4.02    0.48
   3 -16  -9    4.60    0.64
   3 -16  -9    4.22    0.52
  -3 -16   9    4.30    0.48
  -2 -16   9    1.14    0.28
  -2 -16   9    1.14    0.33
   2 -16  -9    0.74    0.46
   2 -16  -9    1.37    0.31
   1 -16  -9    1.94    0.33
  -1 -16   9    0.89    0.31
   1 -16  -9    1.56    0.40
  -1 -16   9    1.62    0.30
   0 -16  -9    0.43    0.26
   0 -16   9    0.33    0.28
   0 -16   9    0.67    0.31
   0 -16  -9    0.68    0.34
  -1 -16  -9    0.02    0.32
   1 -16   9    0.41    0.28
   1 -16   9   -0.60    0.27
   2 -16   9    0.33    0.32
  -2 -16  -9    0.62    0.34
   2 -16   9    0.26    0.33
   3 -16   9    6.08    0.70
  -3 -16  -9    7.21    0.71
  -4 -16  -9    1.31    0.39
   4 -16   9    1.23    0.47
  -5 -16  -9   -0.25    0.42
   5 -16   9    0.36    0.48
  -6 -16  -9   -0.40    0.49
   6 -16   9    0.04    0.56
   6  16   9   -0.25    0.33
   6 -17  -9    0.39    0.70
   6 -17  -9    0.20    0.44
  -6 -17   9    0.81    0.47
  -6 -17   9    0.59    0.47
  -5 -17   9    0.15    0.40
   5 -17  -9    0.58    0.63
  -5 -17   9    0.42    0.46
   5 -17  -9    0.21    0.37
   4 -17  -9    7.88    0.97
  -4 -17   9    9.56    0.70
  -4 -17   9    6.79    0.75
   4 -17  -9    9.56    0.73
  -3 -17   9    7.67    0.60
   3 -17  -9    7.67    0.86
   3 -17  -9    7.06    0.63
  -3 -17   9    5.99    0.67
   2 -17  -9    0.90    0.35
  -2 -17   9    0.18    0.28
   2 -17  -9    0.26    0.49
  -2 -17   9    0.69    0.35
  -1 -17   9    0.11    0.32
   1 -17  -9    0.47    0.37
  -1 -17   9    0.08    0.26
   1 -17  -9   -0.09    0.32
   0 -17  -9    1.45    0.39
   0 -17   9    0.92    0.30
  -1 -17  -9    1.52    0.38
   1 -17   9    0.56    0.32
   1 -17   9    0.82    0.35
   2 -17   9    4.77    0.64
  -2 -17  -9    4.10    0.63
   2 -17   9    5.09    0.61
   3 -17   9    0.23    0.40
  -3 -17  -9    0.57    0.43
   4 -17   9    0.61    0.49
  -4 -17  -9    0.77    0.46
   5 -17   9    0.34    0.53
  -5 -17  -9   -0.41    0.46
   5 -18  -9   -0.45    0.66
  -5 -18   9    0.57    0.42
   5 -18  -9    0.18    0.44
  -5 -18   9   -0.08    0.47
   4 -18  -9    2.67    0.46
  -4 -18   9    1.25    0.49
   4 -18  -9    2.19    0.69
  -4 -18   9    2.69    0.45
  -3 -18   9    0.69    0.36
   3 -18  -9    0.51    0.56
  -3 -18   9    0.26    0.41
   3 -18  -9   -0.07    0.35
  -2 -18   9    0.20    0.31
   2 -18  -9   -0.06    0.34
  -2 -18   9    0.20    0.38
   2 -18  -9    0.20    0.48
  -1 -18   9   -0.72    0.37
   1 -18  -9    0.32    0.36
   1 -18  -9    0.31    0.40
  -1 -18   9    0.31    0.32
   0 -18  -9    5.92    0.70
   0 -18   9    5.35    0.67
   0 -18   9    6.38    0.61
  -1 -18  -9    3.40    0.54
   1 -18   9    3.80    0.56
   1 -18   9    3.54    0.49
   2 -18   9    3.68    0.52
  -2 -18  -9    3.81    0.59
  -3 -18  -9    0.21    0.46
   3 -18   9    0.22    0.41
   4 -18   9    1.05    0.52
  -4 -18  -9    0.58    0.48
  -5 -18  -9    0.26    0.58
   5 -18   9    0.03    0.60
  -4 -19   9    5.20    0.69
  -4 -19   9    5.17    0.71
   4 -19  -9    5.02    0.85
   4 -19  -9    4.77    0.63
  -3 -19   9   -0.31    0.49
   3 -19  -9    0.34    0.42
   3 -19  -9    0.32    0.60
  -3 -19   9   -0.46    0.36
  -2 -19   9    2.91    0.44
   2 -19  -9    1.97    0.56
   2 -19  -9    2.86    0.52
  -2 -19   9    2.94    0.53
   1 -19  -9    2.47    0.53
  -1 -19   9    2.39    0.42
  -1 -19   9    3.23    0.51
   0 -19   9    0.39    0.37
   0 -19   9    0.48    0.45
   0 -19  -9    1.03    0.48
   1 -19   9    0.23    0.38
   1 -19   9   -0.06    0.45
  -1 -19  -9   -0.05    0.47
   2 -19   9    4.02    0.55
  -2 -19  -9    3.94    0.61
   3 -19   9    4.05    0.61
  -3 -19  -9    3.37    0.63
  -4 -19  -9    0.35    0.55
   4 -19   9    0.66    0.55
  -2 -20   9    2.29    0.48
  -2 -20   9    2.97    0.62
   2 -20  -9    2.62    0.55
  -1 -20   9    1.70    0.53
   1 -20  -9    0.84    0.50
   0 -20   9   -0.12    0.40
   0 -20  -9    1.09    0.51
   0 -20   9    0.24    0.54
   1 -20   9    0.97    0.46
  -1 -20  -9    1.41    0.53
   2 -20   9    0.10    0.45
  -2 -20  -9   -0.13    0.57
  10   0 -10    1.02    0.38
   9   0 -10    0.03    0.28
   8   0 -10    4.83    0.53
   7   0 -10   -0.36    0.21
   6   0 -10    5.43    0.45
   5   0 -10    0.08    0.17
   4   0 -10   16.90    0.90
   3   0 -10    0.20    0.12
  -2   0  10    0.92    0.14
   2   0 -10    0.76    0.14
  -1   0  10    0.10    0.07
  -1   0  10   -0.02    0.08
   1   0 -10   -0.09    0.07
   0   0  10   34.23    1.62
   0   0  10   35.11    1.62
   0   0 -10   34.02    1.62
   1   0  10   -0.06    0.09
   1   0  10   -0.08    0.07
   1   0  10   -0.08    0.09
  -1   0 -10   -0.04    0.06
   2   0  10    8.35    0.52
   2   0  10    9.27    0.46
   2   0  10    9.68    0.46
  -2   0 -10    8.41    0.44
  -3   0 -10   10.38    0.52
   3   0  10    9.67    0.52
   3   0  10   11.33    0.56
   3   0  10   10.89    0.63
   4   0  10   16.12    0.92
   4   0  10   16.02    0.85
  -4   0 -10   17.18    0.81
   4   0  10   16.97    0.80
  -5   0 -10    0.18    0.11
   5   0  10    0.29    0.17
   5   0  10   -0.06    0.19
   6   0  10    8.86    0.62
   6   0  10   10.36    0.71
  -6   0 -10    9.10    0.51
   7   0  10   -0.18    0.29
  -7   0 -10    0.07    0.14
   7   0  10   -0.13    0.27
   8   0  10    6.33    0.74
  -8   0 -10    6.41    0.47
   8   0  10    6.40    0.77
   9   0  10    1.07    0.49
   9   0  10    0.89    0.45
  10   0  10    5.17    0.74
  10   0  10    4.64    0.70
  10  -1 -10   -0.24    0.36
  10   1 -10   -0.12    0.35
   9  -1 -10    0.32    0.27
   9   1 -10    0.93    0.35
   8  -1 -10   23.62    1.33
   8   1 -10   25.25    1.37
   8   1 -10   25.34    1.38
   7  -1 -10    9.27    0.65
   7   1 -10    9.35    0.68
   7   1 -10    9.34    0.67
   6  -1 -10    3.03    0.32
   6   1 -10    2.74    0.35
   6   1 -10    2.87    0.36
   5  -1 -10    0.43    0.16
   5   1 -10    0.66    0.19
   5   1 -10    0.23    0.17
   4  -1 -10    0.36    0.15
   4   1 -10    0.40    0.17
   4   1 -10    0.40    0.17
   3  -1 -10   48.52    2.35
   3   1 -10   50.60    2.36
   3   1 -10   49.32    2.36
  -2  -1  10   22.40    1.15
   2  -1 -10   24.35    1.15
   2   1 -10   23.89    1.16
  -1  -1  10    2.78    0.21
   1  -1 -10    2.81    0.20
  -1  -1  10    2.82    0.18
   1   1 -10    2.82    0.21
  -1   1  10    2.64    0.20
   0  -1 -10   44.90    2.14
   0  -1  10   46.20    2.14
   0  -1  10   46.02    2.14
   0   1  10   45.71    2.14
   0   1  10   46.00    2.14
   0   1 -10   45.97    2.14
  -1  -1 -10    2.58    0.17
   1  -1  10    2.21    0.21
   1  -1  10    2.23    0.19
   1  -1  10    2.66    0.18
   1   1  10    2.35    0.21
  -1   1 -10    2.59    0.16
   1   1  10    2.28    0.17
  -2  -1 -10   43.65    2.13
   2  -1  10   43.79    2.19
   2  -1  10   45.23    2.14
   2  -1  10   49.60    2.13
  -2   1 -10   44.53    2.12
   2   1  10   48.75    2.13
   2   1  10   45.34    2.19
   3  -1  10   20.10    1.08
  -3  -1 -10   20.01    0.98
   3  -1  10   22.20    0.97
   3  -1  10   20.17    1.01
   3   1  10   21.02    0.99
  -3   1 -10   19.81    0.97
   3   1  10   20.49    1.07
   4  -1  10    9.37    0.64
   4  -1  10    9.48    0.57
  -4  -1 -10   10.07    0.51
   4  -1  10   10.48    0.48
  -4   1 -10   10.32    0.49
   4   1  10    9.59    0.61
   4   1  10    9.00    0.53
   5  -1  10    3.12    0.43
   5  -1  10    3.16    0.35
   5  -1  10    3.33    0.21
  -5  -1 -10    3.29    0.26
   5   1  10    2.42    0.31
   5   1  10    3.38    0.41
  -5   1 -10    2.98    0.22
  -6  -1 -10    1.05    0.18
   6  -1  10    0.89    0.28
   6  -1  10    1.34    0.27
  -6   1 -10    1.01    0.14
   6   1  10    1.04    0.27
   6   1  10    1.12    0.24
   7  -1  10    0.00    0.27
   7  -1  10   -0.43    0.33
  -7  -1 -10    0.01    0.16
   7   1  10    0.15    0.27
  -7   1 -10    0.03    0.14
   7   1  10    0.43    0.28
   8  -1  10    1.15    0.39
  -8  -1 -10    1.40    0.24
   8  -1  10    1.30    0.42
   8   1  10    1.42    0.37
   8   1  10    1.71    0.42
   9  -1  10    1.39    0.47
   9  -1  10    1.34    0.46
   9   1  10    1.44    0.46
   9   1  10    0.57    0.48
  10  -1  10    1.11    0.52
  10  -1  10   -0.20    0.60
  10   1  10    0.17    0.47
  10  -2 -10    0.59    0.33
  10   2 -10    0.00    0.41
   9  -2 -10    5.66    0.55
   9   2 -10    6.29    0.65
   9   2 -10    6.77    0.66
   8  -2 -10    0.00    0.22
   8   2 -10    0.07    0.28
   8   2 -10    0.34    0.27
   7  -2 -10    5.19    0.48
   7   2 -10    6.88    0.56
   7   2 -10    5.96    0.56
   6  -2 -10    5.26    0.41
   6   2 -10    5.21    0.47
   6   2 -10    5.00    0.46
   5  -2 -10   13.16    0.74
   5   2 -10   12.99    0.77
   5   2 -10   13.67    0.78
   4  -2 -10   17.41    0.91
   4   2 -10   17.50    0.94
   4   2 -10   17.69    0.95
   3  -2 -10   19.54    0.97
  -3  -2  10   18.25    0.96
   3   2 -10   20.11    1.00
   3   2 -10   18.92    0.99
  -2  -2  10   89.74    4.24
   2  -2 -10   91.90    4.24
   2   2 -10   92.41    4.26
   2   2 -10   91.15    4.25
  -1  -2  10   84.14    3.98
   1  -2 -10   84.41    3.98
  -1  -2  10   88.30    3.95
   1   2 -10   86.81    3.99
  -1   2  10   89.57    3.98
  -1   2  10   80.75    3.98
   1   2 -10   87.89    3.99
   0  -2  10   23.81    1.13
   0  -2  10   23.35    1.13
   0  -2 -10   22.87    1.13
   0   2 -10   23.37    1.13
   0   2  10   24.60    1.13
   0   2  10   23.42    1.12
   1  -2  10   34.20    1.77
  -1  -2 -10   38.06    1.74
   1  -2  10   35.97    1.74
   1   2  10   37.36    1.76
  -1   2 -10   37.86    1.72
   1   2  10   37.67    1.73
  -1   2 -10   37.94    1.72
  -2  -2 -10  107.49    5.09
   2  -2  10  108.58    5.11
   2  -2  10  116.40    5.08
   2  -2  10  101.28    5.15
   2  -2  10  116.71    5.08
  -2   2 -10  106.43    5.06
   2   2  10  110.17    5.14
   2   2  10  117.64    5.08
  -3  -2 -10   18.54    0.91
   3  -2  10   17.63    1.00
   3  -2  10   18.78    0.95
   3   2  10   20.12    0.90
   3   2  10   18.71    0.98
  -4  -2 -10    3.59    0.24
   4  -2  10    3.02    0.36
   4  -2  10    2.62    0.30
   4   2  10    2.42    0.24
  -5  -2 -10   58.86    2.65
   5  -2  10   56.23    2.71
   5  -2  10   54.72    2.78
   5   2  10   56.95    2.75
   5   2  10   54.93    2.65
   6  -2  10    1.95    0.34
  -6  -2 -10    1.92    0.26
   6  -2  10    1.70    0.20
   6  -2  10    1.48    0.33
   6   2  10    1.41    0.28
   6   2  10    1.62    0.25
  -7  -2 -10   12.80    0.73
   7  -2  10   13.79    0.95
   7  -2  10   13.21    0.92
   7   2  10   13.46    0.89
   7   2  10   13.14    0.80
  -8  -2 -10    5.01    0.47
   8  -2  10    4.95    0.73
   8  -2  10    5.16    0.66
   8   2  10    3.79    0.56
   9  -2  10    2.40    0.54
   9  -2  10    2.58    0.52
   9   2  10    2.87    0.70
   9   2  10    2.64    0.50
  10  -2  10    1.28    0.52
  10  -2  10    0.27    0.63
  10   2  10   -0.14    0.47
  10  -3 -10    3.06    0.42
  10   3 -10    2.49    0.54
  10   3 -10    2.30    0.50
   9  -3 -10   -0.03    0.24
   9   3 -10    0.30    0.33
   9   3 -10   -0.05    0.31
   8  -3 -10    1.05    0.26
   8   3 -10    1.76    0.37
   8   3 -10    0.91    0.33
   7  -3 -10   -0.18    0.20
   7   3 -10   -0.21    0.24
   7   3 -10   -0.01    0.25
   6  -3 -10    1.27    0.22
   6   3 -10    0.96    0.25
   6   3 -10    1.41    0.27
  -5  -3  10   11.65    0.64
   5  -3 -10   11.50    0.64
   5   3 -10   11.04    0.70
   5   3 -10   10.10    0.68
   4  -3 -10    9.54    0.57
  -4  -3  10   10.43    0.58
  -3  -3  10    2.09    0.21
   3  -3 -10    2.06    0.23
  -3  -3  10    2.30    0.22
   3   3 -10    2.19    0.14
  -2  -3  10    0.52    0.11
   2   3 -10    0.16    0.13
   2   3 -10    0.32    0.14
  -1  -3  10   97.21    4.51
   1  -3 -10   95.74    4.54
  -1  -3  10   97.12    4.54
   1   3 -10  101.39    4.56
   1   3 -10  100.21    4.56
   0  -3 -10   21.51    1.06
   0  -3  10   22.61    1.06
   0  -3  10   21.97    1.06
   0   3  10   22.54    1.07
   0   3  10   20.81    1.05
   0   3 -10   22.56    1.07
   0   3 -10   21.86    1.06
   1  -3  10   13.64    0.74
   1   3  10   15.72    0.76
   1   3  10   14.64    0.72
  -1   3 -10   15.49    0.72
  -1   3 -10   15.35    0.72
   2  -3  10   18.84    0.94
   2  -3  10   16.73    0.97
  -2  -3 -10   18.72    0.92
   2   3  10   19.88    0.89
   2   3  10   19.43    0.95
  -3  -3 -10   86.52    4.13
   3  -3  10   85.84    4.16
   3   3  10   94.30    4.10
   3   3  10   90.04    4.18
   4  -3  10    7.53    0.49
  -4  -3 -10    7.23    0.43
   4   3  10    6.92    0.40
   4   3  10    7.72    0.50
   5  -3  10    2.14    0.34
  -5  -3 -10    1.52    0.20
   5   3  10    1.35    0.22
   5   3  10    1.53    0.27
   6  -3  10    5.34    0.57
  -6  -3 -10    5.45    0.42
   6   3  10    5.51    0.42
   6   3  10    6.28    0.55
   7  -3  10    9.28    0.79
  -7  -3 -10    8.83    0.60
   7  -3  10    8.64    0.79
   7   3  10   10.08    0.72
   7   3  10    9.32    0.62
  -8  -3 -10    0.04    0.24
   8  -3  10   -0.69    0.36
   8  -3  10    0.44    0.41
   8   3  10   -0.16    0.30
   8   3  10   -0.17    0.29
  -9  -3 -10    0.27    0.29
   9  -3  10    0.84    0.46
   9  -3  10   -0.07    0.50
   9   3  10    0.49    0.40
  10  -3  10   -0.82    0.61
  10  -3  10   -0.63    0.56
  10   3  10    0.27    0.48
  10  -4 -10    0.25    0.31
  10  -4 -10    0.91    0.70
  10   4 -10   -0.13    0.43
  10   4 -10    0.51    0.46
   9  -4 -10    1.62    0.30
   9   4 -10    1.22    0.40
   9   4 -10    1.13    0.40
   8  -4 -10    2.24    0.30
   8   4 -10    2.55    0.41
   8   4 -10    2.09    0.40
   8   4 -10    2.16    0.35
   7  -4 -10    6.28    0.48
  -7  -4  10    6.55    0.48
   7   4 -10    6.38    0.60
   7   4 -10    6.60    0.62
   7   4 -10    6.26    0.50
   6  -4 -10   42.74    2.08
  -6  -4  10   42.64    2.08
  -5  -4  10    6.51    0.45
   5  -4 -10    6.92    0.44
  -4  -4  10   64.79    3.04
   4  -4 -10   66.34    3.04
  -4  -4  10   62.20    3.04
   3  -4 -10    9.94    0.56
  -3  -4  10   10.55    0.57
  -3  -4  10   10.00    0.56
  -2  -4  10   16.51    0.83
   2  -4 -10   16.90    0.83
  -2  -4  10   15.94    0.83
  -1  -4  10  101.16    4.63
  -1  -4  10  101.58    4.67
  -1  -4  10  102.26    4.67
   1  -4 -10   99.03    4.67
   0  -4  10   26.88    1.30
   0  -4 -10   30.70    1.31
   0  -4  10   25.61    1.30
   0   4  10   26.73    1.31
   0   4 -10   26.35    1.31
   0   4 -10   27.35    1.31
   1  -4  10  119.61    5.40
   1  -4  10  104.68    5.42
  -1  -4 -10  120.53    5.40
   1   4  10  118.99    5.41
  -1   4 -10  119.95    5.38
  -1   4 -10  118.39    5.37
  -2  -4 -10    6.32    0.39
   2  -4  10    6.33    0.40
   2   4  10    7.08    0.34
   2   4  10    6.99    0.41
   3  -4  10   10.62    0.60
  -3  -4 -10   10.34    0.56
   3   4  10   10.29    0.50
   3   4  10   10.48    0.60
  -4  -4 -10   22.95    1.14
   4  -4  10   21.77    1.20
   4   4  10   24.50    1.09
   4   4  10   23.27    1.20
   5  -4  10    0.87    0.26
  -5  -4 -10    0.93    0.18
   5   4  10    0.57    0.14
   5   4  10    0.52    0.23
  -6  -4 -10    0.08    0.20
   6  -4  10    0.31    0.34
   6   4  10    0.59    0.25
   6   4  10    0.33    0.18
  -7  -4 -10    0.87    0.26
   7  -4  10    1.52    0.41
   7   4  10    1.06    0.25
   7   4  10    0.60    0.27
   8  -4  10    4.75    0.70
  -8  -4 -10    3.91    0.47
   8  -4  10    4.86    0.70
   8   4  10    4.39    0.62
   9  -4  10    3.18    0.62
   9  -4  10    3.12    0.60
  -9  -4 -10    3.65    0.52
   9   4  10    4.77    0.70
  10  -4  10    1.63    0.68
  10  -4  10    2.73    0.67
  10  -5 -10   -0.02    0.70
  10  -5 -10   -0.44    0.32
  10   5 -10    0.06    0.47
  10   5 -10   -0.71    0.44
   9  -5 -10    0.71    0.64
   9  -5 -10    1.53    0.30
   9   5 -10    2.59    0.46
   9   5 -10    1.49    0.46
  -8  -5  10    1.41    0.30
   8  -5 -10    1.37    0.25
   8   5 -10    1.39    0.40
   8   5 -10    2.71    0.42
   7  -5 -10    3.97    0.41
  -7  -5  10    4.64    0.44
   7   5 -10    4.76    0.40
  -6  -5  10   44.59    2.21
   6  -5 -10   44.19    2.20
   6   5 -10   47.33    2.14
  -5  -5  10    0.46    0.18
   5  -5 -10    0.53    0.16
   4  -5 -10    0.58    0.16
  -4  -5  10    0.50    0.16
  -4  -5  10    0.55    0.17
  -3  -5  10    2.07    0.22
   3  -5 -10    2.08    0.23
  -3  -5  10    2.07    0.24
   2  -5 -10   19.36    0.97
  -2  -5  10   19.47    0.97
  -2  -5  10   19.72    0.97
  -1  -5  10   33.35    1.61
   1  -5 -10   33.92    1.62
  -1  -5  10   33.29    1.58
  -1  -5  10   35.17    1.61
   0  -5  10    0.06    0.10
   0  -5  10   -0.04    0.09
   0  -5  10    0.07    0.10
   0  -5 -10    0.18    0.10
   0   5  10    0.29    0.12
   1  -5  10   36.47    1.75
  -1  -5 -10   37.39    1.75
  -1   5 -10   36.73    1.72
  -1   5 -10   36.08    1.73
  -1   5 -10   36.18    1.73
   1   5  10   37.97    1.76
   2  -5  10    0.06    0.12
  -2  -5 -10    0.06    0.10
  -2  -5 -10    0.06    0.09
   2   5  10    0.20    0.11
   3  -5  10    3.26    0.31
  -3  -5 -10    3.34    0.28
   3   5  10    3.49    0.31
  -4  -5 -10   46.68    2.24
   4  -5  10   47.32    2.30
   4   5  10   47.38    2.29
   5  -5  10   36.85    1.93
  -5  -5 -10   38.05    1.85
   5   5  10   38.46    1.78
   5   5  10   39.55    1.92
  -6  -5 -10    1.76    0.30
   6  -5  10    2.53    0.42
   6   5  10    2.47    0.39
   6   5  10    1.57    0.26
  -7  -5 -10   13.77    0.82
   7  -5  10   13.93    0.98
   7   5  10   14.55    0.93
   8  -5  10    4.29    0.74
  -8  -5 -10    3.76    0.49
   8   5  10    4.99    0.63
  -9  -5 -10    2.01    0.36
   9  -5  10    2.55    0.56
   9  -5  10    1.49    0.53
   9   5  10    2.14    0.44
  10  -5  10    1.86    0.71
  10  -5  10    0.78    0.65
  10   5  10    1.40    0.49
  10  -6 -10    0.22    0.35
  10  -6 -10    0.28    0.73
  10   6 -10    1.09    0.55
  10   6 -10    0.76    0.51
  -9  -6  10    0.01    0.29
   9  -6 -10    1.06    0.61
   9  -6 -10    0.52    0.26
   9   6 -10    0.11    0.43
   9   6 -10    0.55    0.43
   8  -6 -10   -0.09    0.22
  -8  -6  10    0.14    0.26
  -7  -6  10    0.31    0.22
   7  -6 -10    0.04    0.19
   6  -6 -10   18.59    0.97
  -6  -6  10   17.60    0.98
  -5  -6  10    5.01    0.41
   5  -6 -10    5.56    0.40
   4  -6 -10    0.42    0.14
  -4  -6  10    0.32    0.16
  -4  -6  10    0.05    0.14
  -3  -6  10   19.07    0.98
  -3  -6  10   19.66    0.99
   3  -6 -10   19.10    0.97
  -2  -6  10    1.32    0.18
   1  -6 -10    2.47    0.22
  -1  -6  10    2.49    0.21
  -1  -6  10    1.99    0.17
  -1  -6  10    1.56    0.21
   0  -6  10  183.06    8.17
   0  -6 -10  172.48    8.17
   0  -6  10  182.43    8.15
   0   6  10  171.91    8.18
   1  -6  10    8.52    0.47
  -1  -6 -10    8.15    0.46
   1  -6  10    7.50    0.42
  -1   6 -10    6.98    0.42
   1   6  10    9.05    0.49
  -2  -6 -10   59.77    2.74
   2  -6  10   59.02    2.76
   2   6  10   61.75    2.75
  -2   6 -10   49.70    2.67
  -2   6 -10   61.00    2.68
  -3  -6 -10   16.36    0.85
   3  -6  10   15.73    0.88
   3   6  10   16.81    0.87
   4  -6  10   70.86    3.49
  -4  -6 -10   75.03    3.43
   4   6  10   72.95    3.46
   5  -6  10    2.31    0.39
  -5  -6 -10    2.09    0.30
   5   6  10    2.31    0.39
   6  -6  10   25.24    1.39
  -6  -6 -10   22.65    1.24
   6   6  10   24.55    1.31
  -7  -6 -10    5.03    0.48
   7  -6  10    5.45    0.69
   7   6  10    4.78    0.55
  -8  -6 -10    7.41    0.64
   8  -6  10    8.81    0.88
   8   6  10    7.90    0.71
   9  -6  10    2.77    0.64
  -9  -6 -10    2.67    0.43
   9   6  10    2.64    0.46
  10  -7 -10    1.07    0.75
  10  -7 -10    0.42    0.37
  10   7 -10   -0.52    0.51
  10   7 -10    0.05    0.55
  -9  -7  10    6.25    0.61
   9  -7 -10    5.52    0.86
   9  -7 -10    5.15    0.54
   8  -7 -10   10.99    1.04
   8  -7 -10   11.85    0.72
  -8  -7  10   11.92    0.80
  -7  -7  10    0.65    0.25
   7  -7 -10    0.39    0.19
   6  -7 -10   14.96    0.85
  -6  -7  10   16.00    0.88
  -5  -7  10    9.23    0.61
   5  -7 -10   11.09    0.58
  -5  -7  10    8.46    0.59
   4  -7 -10    1.04    0.17
  -4  -7  10    0.89    0.19
  -4  -7  10    0.48    0.17
  -3  -7  10    5.01    0.39
  -3  -7  10    4.63    0.34
   3  -7 -10    4.71    0.35
  -2  -7  10    4.82    0.39
   2  -7 -10    7.02    0.40
  -2  -7  10    6.28    0.38
   1  -7 -10   48.92    2.31
  -1  -7  10   49.46    2.30
  -1  -7  10   47.81    2.30
   0  -7  10    9.58    0.51
   0  -7  10    9.37    0.50
   0  -7 -10    8.71    0.52
   1  -7  10   19.82    0.98
  -1  -7 -10   20.75    0.99
   1  -7  10   17.70    0.93
   1   7  10   18.89    0.98
   2  -7  10    1.08    0.13
  -2  -7 -10    1.89    0.27
  -2   7 -10    1.29    0.12
  -3  -7 -10    3.16    0.34
   3  -7  10    3.73    0.36
   3   7  10    2.85    0.30
  -4  -7 -10    8.06    0.53
   4  -7  10    6.99    0.61
   4   7  10    6.69    0.51
   5  -7  10    5.21    0.58
  -5  -7 -10    4.95    0.43
   5   7  10    4.49    0.46
   6  -7  10    0.59    0.34
  -6  -7 -10   -0.08    0.21
   6   7  10    0.13    0.23
  -7  -7 -10    4.76    0.51
   7  -7  10    5.43    0.69
   7   7  10    5.17    0.53
   8  -7  10   -0.07    0.47
  -8  -7 -10    0.24    0.30
   8   7  10    0.41    0.30
   9  -7  10    1.06    0.60
  -9  -7 -10    0.28    0.38
   9   7  10    0.77    0.36
 -10  -8  10    0.27    0.43
  10  -8 -10    0.10    0.38
  10  -8 -10   -0.31    0.75
   9  -8 -10    3.38    0.49
  -9  -8  10    3.23    0.48
   9  -8 -10    3.76    0.75
  -8  -8  10    0.55    0.31
   8  -8 -10    0.71    0.24
   8  -8 -10    1.27    0.56
   7  -8 -10    0.20    0.20
   7  -8 -10   -0.34    0.41
  -7  -8  10    0.22    0.23
   6  -8 -10    7.09    0.48
   6  -8 -10    6.13    0.73
  -6  -8  10    6.42    0.54
  -5  -8  10    6.37    0.49
   5  -8 -10    6.37    0.44
  -5  -8  10    5.96    0.49
  -4  -8  10    0.44    0.17
   4  -8 -10    0.72    0.16
  -4  -8  10    0.44    0.18
   3  -8 -10    0.94    0.18
  -3  -8  10    1.06    0.18
  -3  -8  10    0.75    0.20
  -2  -8  10   16.32    0.91
   2  -8 -10   17.97    0.90
  -2  -8  10   17.83    0.89
  -1  -8  10   22.63    1.13
   1  -8 -10   21.75    1.14
  -1  -8  10   24.16    1.13
   0  -8 -10   40.02    2.05
   0  -8  10   45.17    2.03
   0  -8  10   43.44    2.02
   0  -8 -10   41.74    2.04
   1  -8  10   25.58    1.23
  -1  -8 -10   27.42    1.29
  -1  -8 -10   23.04    1.23
   1  -8  10   26.40    1.28
   1   8  10   25.86    1.28
   2  -8  10    5.29    0.30
  -3  -8 -10    8.01    0.54
   3  -8  10    8.20    0.58
   3   8  10    8.01    0.53
  -4  -8 -10    3.92    0.39
   4   8  10    3.73    0.40
  -5  -8 -10    6.83    0.50
   5  -8  10    5.88    0.58
   5   8  10    5.64    0.51
   6  -8  10    7.89    0.71
  -6  -8 -10    7.42    0.58
   6   8  10    7.78    0.59
   7  -8  10    4.50    0.68
  -7  -8 -10    3.40    0.46
   7   8  10    3.75    0.50
   8  -8  10    8.06    0.94
  -8  -8 -10    6.90    0.65
   8   8  10    7.58    0.66
   9  -8  10    4.32    0.75
  -9  -8 -10    4.13    0.53
   9   8  10    3.95    0.64
   9  -9 -10    1.91    0.36
   9  -9 -10    2.33    0.72
  -9  -9  10    2.22    0.44
   8  -9 -10    0.08    0.24
  -8  -9  10   -0.45    0.30
   8  -9 -10   -0.58    0.54
  -7  -9  10    0.50    0.27
   7  -9 -10    0.51    0.21
   7  -9 -10    0.17    0.46
   6  -9 -10    3.34    0.57
  -6  -9  10    3.48    0.44
   6  -9 -10    3.04    0.34
  -5  -9  10   16.82    0.93
   5  -9 -10   15.86    1.15
   5  -9 -10   16.09    0.89
  -5  -9  10   16.88    0.94
  -4  -9  10    5.45    0.42
   4  -9 -10    5.47    0.65
  -4  -9  10    5.97    0.47
   4  -9 -10    6.06    0.43
  -3  -9  10   12.60    0.71
   3  -9 -10   12.34    0.83
  -3  -9  10   11.69    0.67
   3  -9 -10   11.88    0.67
  -2  -9  10   71.22    3.33
   2  -9 -10   68.77    3.43
  -2  -9  10   70.95    3.36
   2  -9 -10   73.36    3.35
   1  -9 -10    0.60    0.25
  -1  -9  10    0.72    0.17
   0  -9  10   35.74    1.67
   0  -9 -10   31.53    1.69
   0  -9 -10   34.15    1.69
   0  -9  10   37.14    1.68
   1  -9  10   49.34    2.28
   1  -9  10   50.31    2.33
  -1  -9 -10   50.20    2.33
  -1  -9 -10   45.90    2.27
   1   9  10   47.27    2.33
   2  -9  10  127.78    6.03
   2  -9  10  130.43    5.94
  -2  -9 -10  130.17    6.01
   2   9  10  128.43    6.01
  -3  -9 -10   14.60    0.82
   3  -9  10   14.40    0.87
   3   9  10   14.92    0.83
  -4  -9 -10    2.32    0.34
   4  -9  10    2.28    0.37
   4   9  10    2.49    0.37
   5  -9  10   22.38    1.29
  -5  -9 -10   22.54    1.20
   5   9  10   22.79    1.21
  -6  -9 -10    1.72    0.29
   6  -9  10    2.11    0.44
   6   9  10    1.56    0.28
  -7  -9 -10    0.19    0.27
   7  -9  10    0.37    0.45
   7   9  10   -0.29    0.24
   8  -9  10    0.67    0.54
  -8  -9 -10    0.13    0.33
   8   9  10   -0.22    0.29
   9  -9  10    2.01    0.67
  -9  -9 -10    2.34    0.48
   9   9  10    2.09    0.44
   9 -10 -10    1.15    0.73
  -9 -10  10    1.76    0.41
   9 -10 -10    0.71    0.33
  -8 -10  10    0.00    0.34
   8 -10 -10   -0.58    0.55
   8 -10 -10    0.00    0.24
   7 -10 -10    4.82    0.85
  -7 -10  10    5.85    0.57
   7 -10 -10    6.18    0.48
   6 -10 -10    9.92    0.60
   6 -10 -10   10.78    0.95
  -6 -10  10    8.64    0.67
   5 -10 -10   43.65    2.28
   5 -10 -10   42.68    2.03
  -5 -10  10   43.67    2.08
  -5 -10  10   37.37    2.05
  -4 -10  10    0.63    0.22
   4 -10 -10    0.53    0.18
  -4 -10  10    0.49    0.21
   4 -10 -10    1.06    0.40
  -3 -10  10    5.61    0.40
   3 -10 -10    4.82    0.39
   3 -10 -10    5.27    0.59
  -3 -10  10    5.61    0.44
  -2 -10  10   13.27    0.73
  -2 -10  10   12.91    0.69
   2 -10 -10   11.58    0.82
   2 -10 -10   11.87    0.69
  -1 -10  10   12.26    0.68
   1 -10 -10   11.92    0.67
   1 -10 -10   11.12    0.74
  -1 -10  10   12.48    0.66
   0 -10  10    1.62    0.20
   0 -10  10    1.85    0.27
   0 -10 -10    1.50    0.25
   0 -10 -10    1.40    0.21
  -1 -10 -10   10.39    0.62
  -1 -10 -10    9.26    0.55
   1 -10  10   10.15    0.57
   1 -10  10   11.56    0.64
  -2 -10 -10    3.01    0.36
   2 -10  10    2.68    0.38
   2 -10  10    2.18    0.24
   2  10  10    2.44    0.39
   3 -10  10  115.77    5.10
   3 -10  10  112.34    5.24
  -3 -10 -10  115.59    5.21
   3  10  10  103.29    5.19
  -3  10 -10  108.09    5.09
   4 -10  10    3.00    0.45
  -4 -10 -10    2.61    0.39
   4  10  10    2.90    0.37
   5 -10  10    1.94    0.40
  -5 -10 -10    1.14    0.29
   5  10  10    1.59    0.27
  -6 -10 -10    0.47    0.27
   6 -10  10    0.94    0.38
   6  10  10    0.33    0.23
   7 -10  10   -0.06    0.46
  -7 -10 -10    0.10    0.31
   7  10  10    0.25    0.25
  -8 -10 -10    7.83    0.75
   8 -10  10    8.36    1.06
   8  10  10    8.06    0.69
   9 -10  10    5.41    0.86
  -9 -10 -10    3.81    0.59
   9  10  10    3.40    0.51
  -9 -11  10    0.68    0.45
   9 -11 -10    0.31    0.75
   9 -11 -10    0.26    0.36
   8 -11 -10    2.99    0.68
   8 -11 -10    2.42    0.35
  -8 -11  10    2.40    0.45
   7 -11 -10    1.20    0.25
  -7 -11  10    1.12    0.34
   7 -11 -10    1.15    0.56
   6 -11 -10    1.22    0.45
  -6 -11  10    1.09    0.31
   6 -11 -10    0.86    0.23
  -5 -11  10    0.10    0.25
  -5 -11  10    0.14    0.25
   5 -11 -10    0.25    0.39
   5 -11 -10    0.46    0.20
   4 -11 -10    3.84    0.40
  -4 -11  10    4.26    0.45
  -4 -11  10    4.64    0.44
   4 -11 -10    4.67    0.64
  -3 -11  10   38.28    1.82
   3 -11 -10   34.73    1.96
   3 -11 -10   37.42    1.83
  -3 -11  10   38.24    1.85
  -2 -11  10    4.93    0.38
   2 -11 -10    4.12    0.52
   2 -11 -10    4.79    0.39
  -2 -11  10    5.34    0.44
   1 -11 -10    2.51    0.31
   1 -11 -10    2.57    0.42
  -1 -11  10    3.02    0.37
   0 -11  10   31.23    1.52
   0 -11  10   33.26    1.53
   0 -11 -10   29.98    1.54
   0 -11 -10   28.38    1.52
  -1 -11 -10    1.62    0.25
  -1 -11 -10    1.52    0.25
   1 -11  10    1.96    0.27
   1 -11  10    2.20    0.34
  -2 -11 -10   34.09    1.66
   2 -11  10   33.39    1.57
   2 -11  10   32.75    1.66
   2  11  10   30.22    1.64
   3 -11  10    3.45    0.28
  -3 -11 -10    3.66    0.45
   3 -11  10    3.73    0.46
   3  11  10    3.59    0.42
   4 -11  10    0.97    0.32
  -4 -11 -10    0.81    0.26
   4  11  10    0.38    0.23
  -5 -11 -10    3.34    0.46
   5  11  10    4.15    0.42
  -6 -11 -10    5.15    0.55
   6 -11  10    5.30    0.72
   6  11  10    4.89    0.48
   7 -11  10    4.71    0.80
  -7 -11 -10    4.31    0.58
   7  11  10    3.33    0.50
  -8 -11 -10    0.12    0.40
   8 -11  10    1.01    0.63
   8  11  10   -0.28    0.29
   8 -12 -10    1.47    0.69
   8 -12 -10    0.69    0.33
  -8 -12  10    1.25    0.43
   7 -12 -10   -0.10    0.24
  -7 -12  10    0.32    0.34
   7 -12 -10    0.69    0.54
  -6 -12  10    0.81    0.32
   6 -12 -10    0.86    0.49
   6 -12 -10    0.75    0.24
  -6 -12  10    1.18    0.33
   5 -12 -10   16.17    1.14
  -5 -12  10   15.39    0.95
   5 -12 -10   15.32    0.87
  -5 -12  10   15.56    0.91
   4 -12 -10    2.97    0.53
   4 -12 -10    3.35    0.36
  -4 -12  10    3.30    0.41
  -4 -12  10    2.90    0.43
   3 -12 -10   15.03    1.02
  -3 -12  10   13.70    0.83
   3 -12 -10   14.90    0.84
  -3 -12  10   15.94    0.89
   2 -12 -10    1.32    0.23
  -2 -12  10    0.83    0.24
   2 -12 -10    0.81    0.33
  -1 -12  10    0.76    0.26
  -1 -12  10    1.28    0.24
   1 -12 -10    0.94    0.23
   1 -12 -10    1.06    0.30
   0 -12 -10    0.10    0.23
   0 -12 -10    0.13    0.19
   0 -12  10    0.43    0.23
   0 -12  10    0.68    0.23
  -1 -12 -10    3.30    0.30
   1 -12  10    4.12    0.37
   1 -12  10    4.09    0.39
  -1 -12 -10    3.56    0.39
   2 -12  10   39.91    1.95
  -2 -12 -10   37.47    1.94
   2 -12  10   38.82    1.86
  -3 -12 -10   14.37    0.86
   3 -12  10   15.10    0.88
   3 -12  10   14.36    0.73
   3  12  10   12.29    0.82
  -4 -12 -10    4.51    0.55
   4 -12  10    6.37    0.58
   4  12  10    5.04    0.47
   5 -12  10    2.31    0.45
  -5 -12 -10    2.21    0.38
   5  12  10    1.82    0.32
   6 -12  10    1.13    0.48
  -6 -12 -10    1.78    0.35
   6  12  10    0.77    0.27
  -7 -12 -10    0.10    0.35
   7 -12  10   -0.49    0.54
   7  12  10    0.01    0.27
  -8 -12 -10   -0.11    0.47
   8 -12  10   -0.61    0.61
   8  12  10    0.04    0.32
   8 -13 -10   -0.23    0.33
  -8 -13  10    0.06    0.42
   8 -13 -10    0.42    0.69
   7 -13 -10    0.56    0.29
   7 -13 -10    0.88    0.58
  -7 -13  10    0.33    0.39
  -6 -13  10    0.47    0.34
   6 -13 -10    0.72    0.25
   6 -13 -10    0.69    0.53
  -6 -13  10    0.71    0.32
  -5 -13  10    4.12    0.53
  -5 -13  10    4.47    0.48
   5 -13 -10    4.34    0.42
   5 -13 -10    3.60    0.63
   4 -13 -10    0.77    0.22
  -4 -13  10    0.62    0.24
  -4 -13  10    0.23    0.27
   4 -13 -10    0.41    0.42
  -3 -13  10    0.81    0.27
  -3 -13  10    0.59    0.23
   3 -13 -10    0.74    0.23
   3 -13 -10   -0.01    0.42
   2 -13 -10    3.94    0.40
  -2 -13  10    4.21    0.40
  -2 -13  10    3.70    0.44
   2 -13 -10    3.91    0.55
   1 -13 -10    0.31    0.28
  -1 -13  10    0.53    0.22
  -1 -13  10    0.43    0.23
   1 -13 -10    0.32    0.23
   0 -13 -10    3.58    0.41
   0 -13  10    3.48    0.47
   0 -13 -10    3.09    0.42
   0 -13  10    4.47    0.42
  -1 -13 -10    0.56    0.25
   1 -13  10    1.08    0.23
   1 -13  10    0.98    0.25
  -1 -13 -10    0.81    0.18
   2 -13  10    0.28    0.24
  -2 -13 -10    0.41    0.26
   2 -13  10    0.28    0.20
   3 -13  10   15.66    0.79
   3 -13  10   14.85    0.91
  -3 -13 -10   14.31    0.89
   3  13  10   12.38    0.85
   4 -13  10    4.03    0.58
  -4 -13 -10    2.89    0.41
   4  13  10    2.87    0.43
  -5 -13 -10    4.92    0.57
   5 -13  10    4.90    0.67
   5  13  10    4.67    0.52
  -6 -13 -10    0.24    0.35
   6 -13  10    0.45    0.48
   6  13  10   -0.34    0.26
   7 -13  10    1.67    0.61
  -7 -13 -10    1.92    0.47
   7  13  10    1.06    0.32
  -8 -13 -10    4.02    0.62
   8 -13  10    4.80    0.90
   8  13  10    2.33    0.46
   8 -14 -10   -0.36    0.79
   7 -14 -10    0.95    0.63
  -7 -14  10    0.65    0.43
   7 -14 -10    0.95    0.33
   6 -14 -10    5.71    0.80
  -6 -14  10    6.54    0.65
  -6 -14  10    6.09    0.72
   6 -14 -10    6.93    0.57
  -5 -14  10    0.16    0.33
   5 -14 -10    0.58    0.26
  -5 -14  10    0.40    0.31
   5 -14 -10    0.51    0.49
   4 -14 -10    4.27    0.47
   4 -14 -10    4.46    0.73
  -4 -14  10    4.93    0.49
  -4 -14  10    5.11    0.56
  -3 -14  10    0.18    0.28
   3 -14 -10    0.28    0.23
   3 -14 -10    0.63    0.49
  -3 -14  10    0.37    0.22
   2 -14 -10   15.11    0.88
  -2 -14  10   14.51    0.89
   2 -14 -10   13.89    0.97
  -2 -14  10   15.67    0.85
   1 -14 -10    0.53    0.25
  -1 -14  10    0.68    0.27
   1 -14 -10    0.68    0.31
  -1 -14  10    0.64    0.24
   0 -14 -10    0.24    0.26
   0 -14 -10    0.36    0.25
   0 -14  10    0.35    0.25
   0 -14  10    0.39    0.23
  -1 -14 -10    0.18    0.26
   1 -14  10    0.33    0.24
   1 -14  10    0.06    0.28
   2 -14  10    0.18    0.28
  -2 -14 -10   -0.15    0.26
   2 -14  10   -0.28    0.23
  -3 -14 -10    1.23    0.35
   3 -14  10    1.25    0.35
   4 -14  10   -0.10    0.34
  -4 -14 -10   -0.28    0.30
   4  14  10    0.35    0.26
  -5 -14 -10    0.18    0.35
   5 -14  10    0.76    0.43
   5  14  10    0.44    0.30
   6 -14  10   -0.35    0.51
  -6 -14 -10    0.44    0.41
   6  14  10   -0.14    0.28
   7 -14  10   13.61    1.24
  -7 -14 -10   10.28    0.97
   7  14  10    9.93    0.81
   7 -15 -10   -0.44    0.71
  -7 -15  10    0.17    0.44
   7 -15 -10    0.23    0.36
   6 -15 -10    0.99    0.33
  -6 -15  10    0.72    0.43
   6 -15 -10    1.34    0.65
  -6 -15  10    0.88    0.41
  -5 -15  10    1.62    0.37
  -5 -15  10    1.08    0.37
   5 -15 -10    1.06    0.57
   5 -15 -10    1.14    0.31
   4 -15 -10    1.71    0.31
  -4 -15  10    1.73    0.37
   4 -15 -10    1.89    0.53
  -3 -15  10    2.78    0.39
   3 -15 -10    2.87    0.38
  -3 -15  10    1.93    0.37
   3 -15 -10    2.94    0.56
  -2 -15  10    6.32    0.50
  -2 -15  10    5.88    0.57
   2 -15 -10    5.37    0.71
   2 -15 -10    6.74    0.57
  -1 -15  10    1.76    0.30
   1 -15 -10    1.78    0.32
   1 -15 -10    1.69    0.37
  -1 -15  10    2.01    0.34
   0 -15  10    1.11    0.28
   0 -15 -10    0.98    0.31
   0 -15  10    1.18    0.28
   0 -15 -10    1.22    0.28
   1 -15  10    3.21    0.47
  -1 -15 -10    2.39    0.41
   1 -15  10    2.80    0.45
   2 -15  10    6.95    0.61
  -2 -15 -10    7.05    0.63
   2 -15  10    6.66    0.60
  -3 -15 -10    0.15    0.33
   3 -15  10    0.57    0.36
   4 -15  10    2.52    0.48
  -4 -15 -10    2.71    0.45
  -5 -15 -10   -0.21    0.38
   5 -15  10    1.74    0.49
   5  15  10    0.18    0.30
   6 -15  10    3.54    0.66
  -6 -15 -10    2.71    0.55
   6  15  10    2.38    0.42
  -7 -15 -10    6.83    0.94
   7 -15  10    7.10    0.99
   6 -16 -10    1.59    0.72
  -6 -16  10    2.32    0.49
   6 -16 -10    3.16    0.45
  -6 -16  10    2.22    0.50
   5 -16 -10    1.56    0.63
  -5 -16  10    1.58    0.44
  -5 -16  10    1.87    0.41
   5 -16 -10    2.10    0.38
  -4 -16  10    2.75    0.44
   4 -16 -10    2.65    0.60
   4 -16 -10    2.88    0.41
  -4 -16  10    2.77    0.47
  -3 -16  10    3.92    0.46
   3 -16 -10    3.54    0.62
   3 -16 -10    3.98    0.48
  -3 -16  10    3.87    0.52
   2 -16 -10    1.79    0.52
  -2 -16  10    1.87    0.35
   2 -16 -10    1.70    0.35
  -2 -16  10    1.96    0.32
   1 -16 -10    0.05    0.34
  -1 -16  10    0.13    0.29
   1 -16 -10    0.39    0.30
  -1 -16  10    0.28    0.25
   0 -16  10    1.87    0.33
   0 -16 -10    1.80    0.47
   0 -16  10    1.94    0.34
   0 -16 -10    1.30    0.35
  -1 -16 -10    4.97    0.61
   1 -16  10    6.96    0.59
   1 -16  10    6.26    0.59
  -2 -16 -10    9.19    0.78
   2 -16  10    7.70    0.73
   2 -16  10    8.93    0.72
  -3 -16 -10    0.47    0.38
   3 -16  10    0.84    0.38
  -4 -16 -10    0.88    0.43
   4 -16  10    1.34    0.46
   5 -16  10    0.20    0.49
  -5 -16 -10   -0.48    0.43
   6 -16  10    1.53    0.61
  -6 -16 -10    0.23    0.51
   6  16  10    0.63    0.36
  -6 -17  10    1.79    0.51
  -6 -17  10    2.12    0.54
   6 -17 -10    1.17    0.49
   6 -17 -10    1.06    0.79
   5 -17 -10    2.19    0.72
   5 -17 -10    2.35    0.46
  -5 -17  10    2.84    0.48
  -5 -17  10    2.45    0.51
  -4 -17  10   -0.12    0.39
  -4 -17  10    0.35    0.35
   4 -17 -10    0.37    0.34
   4 -17 -10   -0.35    0.55
   3 -17 -10    0.19    0.32
  -3 -17  10    0.01    0.37
   3 -17 -10    0.15    0.54
  -3 -17  10    0.75    0.31
  -2 -17  10    8.65    0.64
   2 -17 -10    7.94    0.69
   2 -17 -10    7.19    0.90
  -2 -17  10    8.09    0.71
   1 -17 -10    2.96    0.42
   1 -17 -10    2.05    0.44
  -1 -17  10    2.19    0.39
  -1 -17  10    3.10    0.45
   0 -17  10    0.29    0.32
   0 -17 -10    0.42    0.35
   0 -17  10    0.02    0.28
  -1 -17 -10    2.58    0.45
   1 -17  10    2.18    0.41
   1 -17  10    1.81    0.40
  -2 -17 -10    0.53    0.40
   2 -17  10    0.60    0.35
  -3 -17 -10    3.88    0.58
   3 -17  10    3.51    0.54
   4 -17  10    2.97    0.54
  -4 -17 -10    3.28    0.55
  -5 -17 -10   -0.18    0.47
   5 -17  10   -0.32    0.53
   5 -18 -10    0.41    0.47
  -5 -18  10    0.55    0.44
  -5 -18  10    0.86    0.49
   5 -18 -10    0.67    0.72
  -4 -18  10    5.90    0.67
   4 -18 -10    4.48    0.69
   4 -18 -10    3.95    0.79
  -4 -18  10    4.82    0.61
  -3 -18  10    1.66    0.38
   3 -18 -10    0.84    0.41
   3 -18 -10    1.76    0.62
  -3 -18  10    1.06    0.44
  -2 -18  10    0.59    0.33
  -2 -18  10   -0.01    0.38
   2 -18 -10   -0.64    0.48
   2 -18 -10    0.05    0.36
   1 -18 -10    0.54    0.39
  -1 -18  10    0.24    0.40
  -1 -18  10    0.39    0.32
   0 -18 -10    0.55    0.42
   0 -18  10    0.93    0.35
   0 -18  10    1.28    0.40
   1 -18  10   -0.14    0.35
  -1 -18 -10    0.86    0.45
   1 -18  10    0.29    0.41
   2 -18  10    0.94    0.38
  -2 -18 -10    1.25    0.47
   3 -18  10    0.61    0.44
  -3 -18 -10    0.32    0.47
   4 -18  10    1.08    0.51
  -4 -18 -10    0.82    0.53
   4 -19 -10    1.60    0.72
   4 -19 -10    1.17    0.47
  -4 -19  10    1.64    0.48
  -4 -19  10    1.05    0.53
  -3 -19  10    2.61    0.46
  -3 -19  10    1.48    0.52
   3 -19 -10    1.48    0.45
   3 -19 -10    1.70    0.66
   2 -19 -10    0.32    0.44
  -2 -19  10   -0.56    0.34
   2 -19 -10    0.70    0.56
  -2 -19  10   -0.96    0.44
  -1 -19  10    0.10    0.34
  -1 -19  10    0.39    0.45
   1 -19 -10    0.13    0.43
   0 -19  10    0.13    0.48
   0 -19 -10    0.75    0.47
   0 -19  10    0.63    0.38
  -1 -19 -10   -0.35    0.46
   1 -19  10   -0.16    0.36
   2 -19  10   -0.31    0.40
  -2 -19 -10    0.22    0.49
   3 -19  10    0.34    0.45
  -3 -19 -10    0.50    0.55
   2 -20 -10    5.04    0.65
  -2 -20  10    4.12    0.65
  -2 -20  10    3.57    0.69
   1 -20 -10   -0.38    0.47
  -1 -20  10    0.24    0.54
  -1 -20  10   -0.08    0.39
   0 -20  10   -0.18    0.41
   0 -20 -10   -0.27    0.50
   0 -20  10    0.72    0.56
  -1 -20 -10    1.34    0.56
   1 -20  10    0.60    0.46
  -2 -20 -10   -0.64    0.54
   2 -20  10   -0.05    0.45
  10   0 -11   -0.03    0.37
   9   0 -11    4.10    0.52
   8   0 -11   -0.10    0.26
   7   0 -11    0.50    0.24
   6   0 -11    0.07    0.18
   5   0 -11    0.05    0.16
   4   0 -11    0.42    0.16
   3   0 -11   94.09    4.39
   2   0 -11    0.11    0.10
  -2   0  11    0.03    0.10
  -1   0  11   79.12    3.47
   1   0 -11   71.83    3.48
  -1   0  11   74.02    3.49
   0   0  11    0.03    0.07
   0   0  11    0.25    0.09
   0   0 -11    0.00    0.07
   1   0  11  197.50    8.98
   1   0  11  196.51    9.02
  -1   0 -11  193.84    8.98
   2   0  11    0.18    0.09
  -2   0 -11    0.12    0.06
   2   0  11    0.11    0.11
   2   0  11    0.07    0.09
  -3   0 -11   33.83    1.69
   3   0  11   39.34    1.70
   3   0  11   34.82    1.78
   3   0  11   36.88    1.72
   4   0  11    0.00    0.13
   4   0  11    0.21    0.10
   5   0  11    8.53    0.66
  -5   0 -11    9.76    0.50
   5   0  11    9.15    0.56
   6   0  11    0.27    0.25
   6   0  11   -0.07    0.22
  -6   0 -11   -0.17    0.13
  -7   0 -11    7.99    0.47
   7   0  11    7.55    0.64
   7   0  11    8.28    0.70
   8   0  11    0.14    0.43
   8   0  11   -0.35    0.35
   9   0  11    3.32    0.53
   9   0  11    3.25    0.55
  10   0  11    1.87    0.54
  10  -1 -11    0.87    0.38
  10   1 -11    0.15    0.39
   9  -1 -11    0.27    0.30
   9   1 -11    0.30    0.32
   8  -1 -11    2.15    0.33
   8   1 -11    1.81    0.35
   7  -1 -11   24.14    1.32
   7   1 -11   25.55    1.35
   7   1 -11   25.37    1.36
   6  -1 -11    7.19    0.51
   6   1 -11    7.56    0.55
   6   1 -11    6.67    0.54
   5  -1 -11   20.71    1.07
   5   1 -11   20.27    1.08
   5   1 -11   20.05    1.08
   4  -1 -11    3.96    0.35
   4   1 -11    4.08    0.36
   4   1 -11    3.82    0.36
   3  -1 -11   28.66    1.39
  -3  -1  11   26.56    1.38
   3   1 -11   29.61    1.40
  -2  -1  11   12.56    0.69
   2  -1 -11   14.55    0.70
   2   1 -11   13.30    0.71
  -1  -1  11    3.24    0.24
   1  -1 -11    3.17    0.24
  -1  -1  11    3.45    0.22
  -1   1  11    3.16    0.24
  -1   1  11    3.65    0.24
   1   1 -11    3.43    0.24
   0  -1  11    0.10    0.07
   0  -1 -11    0.04    0.07
   0  -1  11    0.18    0.08
   0   1  11    0.12    0.08
   0   1 -11    0.10    0.07
   0   1  11    0.13    0.07
   1  -1  11    0.43    0.11
   1  -1  11    0.30    0.09
  -1  -1 -11    0.42    0.08
   1  -1  11    0.16    0.10
  -1   1 -11    0.74    0.11
   1   1  11    0.39    0.10
   2  -1  11    6.06    0.32
   2  -1  11    5.44    0.39
   2  -1  11    5.32    0.33
  -2  -1 -11    5.42    0.31
  -2   1 -11    4.99    0.29
   2   1  11    5.87    0.38
   2   1  11    6.28    0.32
   3  -1  11   25.65    1.27
   3  -1  11   29.25    1.24
  -3  -1 -11   24.47    1.24
   3  -1  11   26.24    1.34
   3   1  11   27.15    1.25
   3   1  11   26.18    1.33
  -3   1 -11   24.63    1.22
  -4  -1 -11   13.14    0.67
   4  -1  11   14.44    0.64
   4  -1  11   12.42    0.78
   4  -1  11   12.78    0.71
  -4   1 -11   13.55    0.65
   4   1  11   12.77    0.69
   4   1  11   13.31    0.78
   5  -1  11   11.22    0.53
   5  -1  11   10.27    0.74
  -5  -1 -11   10.90    0.57
   5  -1  11    9.99    0.63
   5   1  11    9.90    0.60
  -5   1 -11   10.85    0.54
   5   1  11   11.07    0.72
   6  -1  11    6.55    0.52
  -6  -1 -11    6.92    0.43
   6  -1  11    6.08    0.62
  -6   1 -11    6.64    0.38
   6   1  11    7.63    0.59
   6   1  11    6.22    0.48
   7  -1  11    1.70    0.39
   7  -1  11    1.09    0.33
  -7  -1 -11    1.66    0.22
   7   1  11    1.91    0.36
   7   1  11    2.53    0.41
  -7   1 -11    1.92    0.19
  -8  -1 -11    3.67    0.39
   8  -1  11    4.60    0.65
   8  -1  11    4.20    0.62
   8   1  11    4.13    0.64
   8   1  11    3.26    0.49
   9  -1  11   -0.20    0.43
   9  -1  11   -0.29    0.43
   9   1  11   -0.17    0.45
   9   1  11    0.80    0.40
  10  -1  11    3.69    0.68
  10  -1  11    5.54    0.92
  10   1  11    3.46    0.63
  10  -2 -11    0.44    0.36
  10   2 -11    0.62    0.45
   9  -2 -11   -0.11    0.27
   9   2 -11    0.53    0.32
   9   2 -11    0.25    0.30
   8  -2 -11    4.44    0.46
   8   2 -11    5.30    0.56
   8   2 -11    5.10    0.56
   7  -2 -11   11.15    0.72
   7   2 -11   11.80    0.78
   7   2 -11   12.12    0.79
   6  -2 -11   12.31    0.72
   6   2 -11   12.57    0.77
   6   2 -11   12.68    0.76
   5   2 -11    2.08    0.31
   5   2 -11    1.78    0.26
   4  -2 -11   18.86    0.99
   4   2 -11   19.41    1.02
   4   2 -11   18.95    1.02
  -3  -2  11    1.64    0.20
   3  -2 -11    1.58    0.21
   3   2 -11    1.59    0.25
   3   2 -11    1.30    0.20
   2  -2 -11   86.30    3.99
  -2  -2  11   83.86    3.99
   2   2 -11   87.14    4.01
   2   2 -11   85.63    4.00
  -1  -2  11   40.72    1.85
   1  -2 -11   38.17    1.85
  -1  -2  11   37.97    1.82
   1   2 -11   39.54    1.86
  -1   2  11   41.38    1.85
  -1   2  11   37.03    1.85
   0  -2 -11   34.45    1.64
   0  -2  11   34.04    1.64
   0  -2  11   35.14    1.64
   0   2  11   35.80    1.64
   0   2 -11   34.46    1.64
   0   2  11   33.94    1.63
   1  -2  11   32.74    1.49
   1  -2  11   29.24    1.51
  -1  -2 -11   32.05    1.49
  -1   2 -11   31.33    1.47
   1   2  11   32.02    1.51
  -1   2 -11   30.50    1.47
   1   2  11   31.90    1.48
   2  -2  11    0.34    0.09
   2  -2  11    0.24    0.09
   2  -2  11    0.18    0.13
  -2  -2 -11    0.07    0.09
   2  -2  11    0.18    0.11
   2   2  11    0.19    0.11
   2   2  11    0.15    0.08
  -2   2 -11    0.12    0.06
   3  -2  11    1.40    0.21
  -3  -2 -11    1.37    0.17
   3  -2  11    1.24    0.22
   3   2  11    1.64    0.24
   3   2  11    1.63    0.16
  -3   2 -11    1.36    0.12
  -4  -2 -11    1.51    0.19
   4  -2  11    1.01    0.23
   4  -2  11    1.19    0.20
   4   2  11    0.85    0.20
   4   2  11    1.21    0.19
   5  -2  11    6.76    0.51
  -5  -2 -11    6.92    0.43
   5  -2  11    7.34    0.62
   5   2  11    6.18    0.42
   5   2  11    7.29    0.58
   6  -2  11    0.69    0.27
  -6  -2 -11    0.42    0.17
   6  -2  11    0.30    0.27
   6   2  11    0.09    0.19
   6   2  11    0.44    0.23
   7  -2  11    0.42    0.39
   7  -2  11   -0.30    0.30
  -7  -2 -11    0.20    0.19
   7   2  11    0.27    0.24
   7   2  11    0.05    0.25
   8  -2  11   -0.09    0.35
   8  -2  11    0.22    0.38
  -8  -2 -11    0.91    0.26
   8   2  11    0.64    0.34
   8   2  11    0.49    0.31
   9  -2  11   -0.01    0.45
   9  -2  11    0.20    0.43
   9   2  11    0.31    0.38
  10  -2  11    2.15    0.62
  10  -2  11    2.11    0.64
  10   2  11    1.09    0.53
  10  -3 -11   -0.04    0.35
  10   3 -11   -0.30    0.42
  10   3 -11    0.72    0.45
   9  -3 -11    0.32    0.27
   9   3 -11    0.25    0.34
   9   3 -11    0.45    0.35
   8  -3 -11    0.22    0.23
   8   3 -11    0.53    0.30
   8   3 -11   -0.02    0.28
   7  -3 -11    2.86    0.37
   7   3 -11    3.84    0.47
   7   3 -11    3.22    0.46
   6  -3 -11    0.82    0.20
   6   3 -11    0.95    0.26
   6   3 -11    0.65    0.26
   5  -3 -11   24.59    1.24
   5   3 -11   23.78    1.29
   5   3 -11   25.09    1.29
   4  -3 -11    2.08    0.25
   4   3 -11    1.50    0.25
   4   3 -11    1.52    0.26
  -3  -3  11    7.98    0.50
   3  -3 -11    8.11    0.49
   3   3 -11    8.36    0.53
   3   3 -11    8.62    0.54
   3   3 -11    9.83    0.43
  -2  -3  11   12.66    0.67
   2  -3 -11   13.19    0.68
   2   3 -11   12.37    0.70
   2   3 -11   13.37    0.64
   2   3 -11   13.15    0.70
   1  -3 -11    7.48    0.42
   1   3 -11    7.32    0.43
   0  -3  11   41.89    1.94
   0  -3  11   40.95    1.94
   0  -3 -11   40.78    1.94
   0   3 -11   41.29    1.94
   0   3  11   39.10    1.93
   0   3  11   42.87    1.95
   1  -3  11   65.07    2.87
  -1  -3 -11   62.05    2.87
   1  -3  11   58.88    2.90
  -1   3 -11   62.03    2.85
   1   3  11   60.42    2.89
  -1   3 -11   62.10    2.85
   1   3  11   61.13    2.86
  -2  -3 -11   13.65    0.69
   2  -3  11   12.66    0.75
   2  -3  11   14.20    0.71
   2   3  11   14.23    0.73
  -2   3 -11   13.84    0.65
  -2   3 -11   13.64    0.65
   2   3  11   13.73    0.66
   3  -3  11   15.18    0.89
  -3  -3 -11   15.19    0.80
   3  -3  11   16.64    0.84
   3   3  11   15.84    0.86
   3   3  11   17.23    0.77
   4  -3  11    1.30    0.25
  -4  -3 -11    1.02    0.16
   4  -3  11    1.13    0.21
   4   3  11    1.05    0.21
   4   3  11    1.02    0.16
   5  -3  11    0.60    0.28
   5  -3  11    0.45    0.23
  -5  -3 -11    0.46    0.16
   5   3  11    0.31    0.14
   5   3  11    0.56    0.23
  -6  -3 -11   13.00    0.72
   6  -3  11   11.42    0.87
   6  -3  11   13.10    0.85
   6   3  11   13.75    0.83
   6   3  11   12.92    0.70
  -7  -3 -11    1.65    0.26
   7  -3  11    0.69    0.33
   7  -3  11    1.31    0.37
   7   3  11    1.04    0.30
   7   3  11    0.80    0.26
   8  -3  11    1.43    0.41
   8  -3  11    1.46    0.41
  -8  -3 -11    1.22    0.29
   8   3  11    1.49    0.39
   9  -3  11    0.95    0.49
   9  -3  11    1.43    0.48
   9   3  11    1.94    0.45
  10  -3  11    1.49    0.60
  10  -3  11    1.98    0.67
  10   3  11    3.22    0.59
  10  -4 -11   -0.48    0.74
  10  -4 -11    0.60    0.34
  10   4 -11    0.22    0.43
  10   4 -11    0.53    0.46
   9  -4 -11    1.91    0.32
   9   4 -11    1.92    0.42
   9   4 -11    1.64    0.43
   8  -4 -11    1.36    0.27
   8   4 -11    1.87    0.37
   8   4 -11    0.76    0.36
   7  -4 -11    3.63    0.39
   7   4 -11    3.50    0.40
   7   4 -11    3.48    0.49
   7   4 -11    3.22    0.49
   6  -4 -11   19.71    1.08
  -6  -4  11   20.60    1.08
   6   4 -11   19.87    1.15
   6   4 -11   21.75    1.16
  -5  -4  11    8.58    0.54
   5  -4 -11    8.47    0.53
  -4  -4  11   19.15    1.03
   4  -4 -11   20.41    1.03
  -4  -4  11   20.74    1.03
  -3  -4  11   77.06    3.71
   3  -4 -11   79.96    3.71
  -3  -4  11   81.31    3.71
  -2  -4  11    8.31    0.46
   2  -4 -11    8.33    0.46
  -2  -4  11    7.86    0.46
  -1  -4  11   25.27    1.20
   1  -4 -11   24.64    1.20
  -1  -4  11   24.60    1.16
   1   4 -11   24.93    1.22
   1   4 -11   24.52    1.22
   0  -4  11   54.63    2.61
   0  -4 -11   55.25    2.62
   0  -4  11   56.59    2.61
   0   4 -11   56.30    2.62
   0   4  11   55.56    2.62
   0   4 -11   57.17    2.62
   1  -4  11    0.93    0.16
   2  -4  11    0.45    0.15
  -3  -4 -11   36.75    1.81
   3  -4  11   37.31    1.84
   3   4  11   39.65    1.76
   3   4  11   38.17    1.85
   4  -4  11    1.33    0.23
   4   4  11    0.95    0.20
   5  -4  11   11.71    0.74
  -5  -4 -11   11.45    0.65
   5   4  11   11.62    0.75
   5   4  11   11.44    0.59
   6  -4  11    1.32    0.39
  -6  -4 -11    1.51    0.25
   6   4  11    1.27    0.29
   6   4  11    1.48    0.25
  -7  -4 -11   11.27    0.69
   7  -4  11   10.17    0.85
   7  -4  11   11.28    0.85
   7   4  11   11.29    0.80
   7   4  11   10.79    0.69
   8  -4  11    0.19    0.42
  -8  -4 -11   -0.14    0.26
   8  -4  11    0.37    0.40
   8   4  11    0.11    0.30
   9  -4  11    0.61    0.50
  -9  -4 -11    1.01    0.39
   9  -4  11    0.73    0.48
   9   4  11    0.88    0.39
  10  -4  11   -0.67    0.61
  10  -4  11   -0.88    0.60
  10   4  11   -0.39    0.44
  10  -5 -11   -0.11    0.72
  10  -5 -11    0.05    0.35
  10   5 -11   -0.47    0.50
  10   5 -11    0.18    0.46
   9  -5 -11    1.55    0.31
   9   5 -11    1.19    0.43
   9   5 -11    0.97    0.42
   8  -5 -11    8.98    0.60
   8   5 -11    8.82    0.78
   8   5 -11    8.89    0.80
   7  -5 -11   -0.16    0.18
  -7  -5  11    0.22    0.21
   6  -5 -11   16.80    0.91
  -6  -5  11   17.04    0.92
   6   5 -11   16.06    0.83
  -5  -5  11    3.45    0.34
   5  -5 -11    3.73    0.32
  -4  -5  11    7.19    0.45
   4  -5 -11    6.08    0.42
  -3  -5  11    0.91    0.18
   3  -5 -11    1.03    0.17
  -3  -5  11    0.76    0.16
  -2  -5  11    8.16    0.47
  -2  -5  11    8.11    0.47
   2  -5 -11    8.11    0.47
  -1  -5  11   26.28    1.26
  -1  -5  11   27.77    1.30
   1  -5 -11   26.46    1.30
  -1  -5  11   26.80    1.30
   0  -5  11   36.28    1.82
   0  -5 -11   37.93    1.82
   0  -5  11   40.42    1.82
   0   5  11   38.79    1.83
  -1  -5 -11    9.83    0.50
   1  -5  11    7.77    0.53
   1  -5  11   10.17    0.51
   1   5  11   10.10    0.52
  -1   5 -11    8.35    0.47
  -1   5 -11    8.75    0.48
  -1   5 -11    8.61    0.48
  -2  -5 -11   18.80    0.96
   2  -5  11   19.81    0.98
  -2   5 -11   19.18    0.90
   2   5  11   19.19    0.98
   3  -5  11   21.05    1.10
  -3  -5 -11   21.44    1.07
   3   5  11   21.70    1.10
   4  -5  11    2.34    0.35
  -4  -5 -11    2.26    0.28
   4   5  11    2.18    0.32
  -5  -5 -11   15.28    0.84
   5  -5  11   14.05    0.93
   5   5  11   15.50    0.89
   5   5  11   15.76    0.74
  -6  -5 -11   21.73    1.16
   6  -5  11   21.82    1.27
   6   5  11   23.74    1.23
   6   5  11   21.41    1.10
   7  -5  11    1.12    0.37
  -7  -5 -11    0.31    0.24
   7   5  11    0.48    0.29
  -8  -5 -11    5.58    0.56
   8  -5  11    6.89    0.78
   8   5  11    7.20    0.71
   9  -5  11    0.86    0.54
   9  -5  11    2.11    0.54
  -9  -5 -11    2.23    0.38
   9   5  11    2.72    0.47
  10  -6 -11   -0.14    0.78
  10  -6 -11   -0.21    0.36
  10   6 -11   -0.63    0.49
  10   6 -11   -1.12    0.51
   9  -6 -11    2.37    0.66
   9  -6 -11    1.28    0.31
   9   6 -11    1.18    0.47
   9   6 -11    1.24    0.51
   8  -6 -11   -0.18    0.21
  -8  -6  11   -0.42    0.25
  -7  -6  11    0.45    0.23
   7  -6 -11    0.22    0.20
  -6  -6  11   33.07    1.63
   6  -6 -11   31.77    1.61
   5  -6 -11   76.43    3.68
  -5  -6  11   79.93    3.70
  -4  -6  11   76.43    3.56
   4  -6 -11   74.80    3.54
  -4  -6  11   75.12    3.56
  -3  -6  11    8.84    0.53
   3  -6 -11    8.71    0.52
  -3  -6  11    9.53    0.55
   2  -6 -11    8.92    0.47
  -2  -6  11    8.02    0.46
  -2  -6  11    6.54    0.46
  -1  -6  11   69.91    3.33
  -1  -6  11   74.63    3.33
   1  -6 -11   70.85    3.34
  -1  -6  11   70.24    3.29
   0  -6  11    0.04    0.10
   0  -6  11    0.13    0.12
   0  -6  11    0.26    0.13
   0  -6 -11    0.28    0.12
   0   6  11    0.29    0.14
   1  -6  11  101.32    4.49
  -1  -6 -11   98.52    4.49
  -1   6 -11   92.46    4.45
   1   6  11   93.89    4.49
  -2  -6 -11    0.26    0.13
   2  -6  11    0.49    0.16
  -3  -6 -11    2.85    0.30
   3  -6  11    3.21    0.34
   3   6  11    2.37    0.29
  -4  -6 -11    0.47    0.20
   4  -6  11    0.31    0.24
   4   6  11    0.60    0.20
   5  -6  11   10.71    0.77
  -5  -6 -11   10.13    0.65
   5   6  11   10.43    0.68
  -6  -6 -11    1.49    0.27
   6  -6  11    1.91    0.40
   6   6  11    1.39    0.28
   7  -6  11    0.95    0.40
  -7  -6 -11    0.83    0.27
   7   6  11    0.52    0.29
   8  -6  11    4.67    0.76
  -8  -6 -11    3.99    0.52
   8   6  11    4.03    0.58
   9  -6  11    1.77    0.58
  -9  -6 -11    1.28    0.38
   9   6  11    1.72    0.43
  10  -7 -11    3.19    0.47
  10  -7 -11    4.07    0.96
  10   7 -11    2.52    0.65
  10   7 -11    4.08    0.73
   9  -7 -11    0.43    0.65
  -9  -7  11    0.04    0.32
   9  -7 -11   -0.52    0.27
   9   7 -11    0.28    0.47
   8  -7 -11    0.73    0.25
  -8  -7  11    0.53    0.30
   8  -7 -11    1.87    0.56
   7  -7 -11   -0.25    0.18
  -7  -7  11   -0.11    0.23
  -6  -7  11    1.66    0.28
   6  -7 -11    1.42    0.24
  -5  -7  11   12.02    0.74
   5  -7 -11   12.46    0.69
  -5  -7  11   12.02    0.72
  -4  -7  11   44.35    2.12
  -4  -7  11   43.02    2.11
   4  -7 -11   43.62    2.10
  -3  -7  11    0.71    0.16
  -3  -7  11    0.52    0.19
   3  -7 -11    0.98    0.17
  -2  -7  11   19.99    0.98
   2  -7 -11   18.45    0.97
  -2  -7  11   19.51    0.99
   1  -7 -11   84.34    3.88
  -1  -7  11   77.83    3.83
  -1  -7  11   85.74    3.87
  -1  -7  11   84.85    3.87
   0  -7  11   34.16    1.62
   0  -7  11   35.14    1.64
   0  -7 -11   33.01    1.65
  -1  -7 -11   54.69    2.51
   1  -7  11   50.48    2.46
   1  -7  11   55.39    2.51
   1   7  11   51.30    2.51
  -2  -7 -11    7.59    0.49
   2  -7  11    7.78    0.49
   2   7  11    7.76    0.48
  -2   7 -11    7.20    0.40
  -2   7 -11    7.05    0.40
   3  -7  11   14.15    0.79
  -3  -7 -11   12.27    0.75
   3   7  11   13.58    0.75
   4  -7  11   19.50    1.10
  -4  -7 -11   19.56    1.03
   4   7  11   19.08    1.04
   5  -7  11    5.79    0.58
  -5  -7 -11    5.35    0.45
   5   7  11    5.24    0.46
   6  -7  11    9.52    0.76
  -6  -7 -11    8.01    0.60
   6   7  11    9.08    0.64
   7  -7  11   -0.12    0.40
  -7  -7 -11    0.31    0.27
   7   7  11    0.10    0.28
  -8  -7 -11    0.31    0.32
   8  -7  11    0.94    0.48
   8   7  11    0.34    0.30
  -9  -7 -11    3.80    0.51
   9  -7  11    4.11    0.68
   9   7  11    3.97    0.67
   9  -8 -11    4.04    0.84
   9  -8 -11    3.81    0.51
  -9  -8  11    3.08    0.47
   8  -8 -11    1.27    0.58
  -8  -8  11    1.62    0.33
   8  -8 -11    0.71    0.24
   7  -8 -11    0.48    0.44
   7  -8 -11   -0.12    0.18
  -7  -8  11   -0.20    0.25
   6  -8 -11    6.88    0.49
  -6  -8  11    6.53    0.54
  -5  -8  11    5.28    0.45
  -5  -8  11    5.36    0.48
   5  -8 -11    5.23    0.41
   4  -8 -11   14.68    0.77
  -4  -8  11   13.79    0.80
  -4  -8  11   14.25    0.79
  -3  -8  11    5.49    0.38
  -3  -8  11    5.51    0.42
   3  -8 -11    5.40    0.38
  -2  -8  11   12.10    0.70
  -2  -8  11   13.14    0.68
   2  -8 -11   12.26    0.68
  -1  -8  11   18.82    0.92
  -1  -8  11   17.43    0.92
   1  -8 -11   17.85    0.93
   0  -8  11    0.46    0.15
   0  -8 -11   -0.14    0.12
   0  -8  11    0.12    0.12
   1  -8  11    7.00    0.44
  -1  -8 -11    5.43    0.40
  -1  -8 -11    7.78    0.45
   1  -8  11    5.77    0.37
   1   8  11    6.63    0.45
   2  -8  11    7.11    0.40
   2  -8  11    7.85    0.51
  -2  -8 -11    7.98    0.50
   2   8  11    7.69    0.50
  -3  -8 -11    9.20    0.58
   3  -8  11    8.84    0.62
   3   8  11    8.70    0.57
   4  -8  11   36.75    1.91
  -4  -8 -11   38.49    1.87
   4   8  11   38.00    1.87
   6  -8  11    3.74    0.58
  -6  -8 -11    3.46    0.43
   6   8  11    3.11    0.44
   7  -8  11    1.18    0.42
  -7  -8 -11    0.99    0.31
   7   8  11    0.49    0.27
  -8  -8 -11    0.27    0.33
   8  -8  11    0.69    0.53
   8   8  11    0.31    0.30
  -9  -8 -11    0.95    0.42
   9  -8  11   -0.18    0.60
   9   8  11    0.23    0.37
   9  -9 -11    2.37    0.38
  -9  -9  11    2.68    0.45
   9  -9 -11    1.38    0.69
  -8  -9  11    2.67    0.40
   8  -9 -11    2.19    0.61
   8  -9 -11    2.65    0.40
   7  -9 -11   -0.33    0.20
   7  -9 -11   -0.02    0.46
  -7  -9  11   -0.23    0.26
  -6  -9  11   -0.02    0.23
   6  -9 -11    0.37    0.40
   6  -9 -11    0.01    0.19
  -5  -9  11   16.88    0.94
   5  -9 -11   16.23    1.13
   5  -9 -11   16.80    0.89
  -5  -9  11   15.32    0.92
  -4  -9  11   -0.09    0.18
  -4  -9  11   -0.11    0.19
   4  -9 -11    0.10    0.16
  -3  -9  11    2.06    0.32
   3  -9 -11    2.39    0.27
  -3  -9  11    2.83    0.30
  -2  -9  11   46.11    2.19
   2  -9 -11   47.82    2.20
  -2  -9  11   43.78    2.21
  -1  -9  11   16.91    0.87
   1  -9 -11   16.88    0.88
  -1  -9  11   17.32    0.87
   1  -9 -11   15.47    0.94
   0  -9  11   30.39    1.46
   0  -9 -11   28.13    1.50
   0  -9 -11   30.37    1.49
   0  -9  11   31.75    1.48
   1  -9  11    3.97    0.33
   1  -9  11    5.56    0.41
  -1  -9 -11    5.66    0.38
  -1  -9 -11    4.89    0.35
   1   9  11    4.81    0.41
   2  -9  11    0.02    0.11
  -2   9 -11    0.13    0.10
   3  -9  11    2.52    0.39
  -3  -9 -11    1.55    0.26
   3   9  11    2.28    0.37
   4  -9  11   15.74    0.94
  -4  -9 -11   15.07    0.88
   4   9  11   15.28    0.86
   5  -9  11   17.23    1.04
  -5  -9 -11   16.24    0.94
   5   9  11   16.87    0.96
  -6  -9 -11    3.63    0.46
   6  -9  11    4.74    0.66
   6   9  11    4.25    0.45
   7  -9  11   -0.07    0.43
  -7  -9 -11    0.12    0.30
   7   9  11   -0.51    0.24
   8  -9  11   -0.07    0.51
  -8  -9 -11    0.60    0.35
   8   9  11    0.15    0.31
   9  -9  11    2.75    0.69
  -9  -9 -11    2.44    0.50
   9   9  11    1.94    0.42
   9 -10 -11    6.71    0.64
   9 -10 -11    9.42    1.19
  -9 -10  11    7.87    0.78
   8 -10 -11    1.88    0.31
   8 -10 -11    1.12    0.62
  -8 -10  11    1.76    0.43
   7 -10 -11    0.45    0.23
   7 -10 -11    1.65    0.54
  -7 -10  11    0.89    0.31
  -6 -10  11   -0.13    0.27
   6 -10 -11    0.45    0.47
   6 -10 -11    0.55    0.21
   5 -10 -11    0.74    0.41
  -5 -10  11    0.75    0.25
  -5 -10  11    0.59    0.25
  -4 -10  11    1.12    0.26
  -4 -10  11    1.31    0.26
   4 -10 -11    1.41    0.22
   4 -10 -11    0.65    0.45
   3 -10 -11   82.03    3.86
  -3 -10  11   84.55    3.89
   3 -10 -11   81.61    4.00
  -3 -10  11   80.58    3.86
   2 -10 -11    2.07    0.30
   2 -10 -11    2.30    0.39
  -2 -10  11    3.19    0.32
  -2 -10  11    2.83    0.36
  -1 -10  11   23.94    1.19
   1 -10 -11   21.18    1.25
  -1 -10  11   25.50    1.18
   1 -10 -11   22.95    1.19
   0 -10 -11    0.26    0.17
   0 -10  11    0.00    0.15
   0 -10 -11   -0.04    0.21
   0 -10  11    0.23    0.18
   1 -10  11   20.63    1.02
  -1 -10 -11   20.07    1.01
   1 -10  11   18.39    0.95
  -1 -10 -11   16.98    0.93
  -2 -10 -11   18.34    0.95
   2 -10  11   17.49    0.96
   2 -10  11   17.00    0.85
   2  10  11   16.36    0.95
  -3 -10 -11    3.81    0.44
   3 -10  11    4.30    0.46
   3  10  11    4.10    0.44
   4 -10  11   24.36    1.35
  -4 -10 -11   26.45    1.32
   4  10  11   23.88    1.30
   5 -10  11    7.61    0.68
  -5 -10 -11    7.18    0.56
   5  10  11    7.84    0.56
   6 -10  11    2.44    0.47
  -6 -10 -11    1.90    0.33
   6  10  11    1.95    0.31
  -7 -10 -11    1.41    0.35
   7 -10  11    1.73    0.56
   7  10  11    1.17    0.30
  -8 -10 -11    2.03    0.45
   8 -10  11    3.21    0.66
   8  10  11    2.02    0.38
   9 -11 -11    2.34    0.86
  -9 -11  11    3.62    0.56
   9 -11 -11    3.92    0.48
   8 -11 -11    3.26    0.46
   8 -11 -11    2.11    0.67
  -8 -11  11    2.66    0.48
   7 -11 -11    0.13    0.24
   7 -11 -11    0.40    0.54
  -7 -11  11    0.14    0.31
   6 -11 -11   -0.05    0.43
  -6 -11  11   -0.44    0.26
   6 -11 -11    0.37    0.20
  -5 -11  11    5.91    0.51
   5 -11 -11    4.79    0.73
  -5 -11  11    6.31    0.55
   5 -11 -11    5.88    0.45
   4 -11 -11    0.56    0.20
  -4 -11  11    0.68    0.23
  -4 -11  11    0.38    0.24
   4 -11 -11    0.27    0.47
   3 -11 -11    1.29    0.40
   3 -11 -11    1.77    0.26
  -3 -11  11    2.21    0.33
  -3 -11  11    1.56    0.28
  -2 -11  11   14.72    0.80
   2 -11 -11   14.77    0.81
  -2 -11  11   14.25    0.83
   2 -11 -11   13.90    0.92
   1 -11 -11    2.08    0.27
  -1 -11  11    1.74    0.28
   1 -11 -11    1.20    0.32
  -1 -11  11    2.09    0.30
   0 -11  11   22.13    1.14
   0 -11 -11   22.24    1.14
   0 -11 -11   20.15    1.13
   0 -11  11   22.92    1.12
   1 -11  11    0.74    0.18
   1 -11  11    1.16    0.24
  -1 -11 -11    0.66    0.20
  -1 -11 -11    0.71    0.18
   2 -11  11   15.91    0.89
   2 -11  11   15.18    0.79
  -2 -11 -11   16.29    0.89
   2  11  11   13.93    0.88
  -3 -11 -11    8.14    0.60
   3 -11  11    9.11    0.65
   3 -11  11    8.26    0.45
   3  11  11    7.89    0.60
   4 -11  11    0.96    0.30
  -4 -11 -11    0.52    0.26
   4  11  11   -0.01    0.21
  -5 -11 -11    1.42    0.32
   5 -11  11    1.84    0.40
   5  11  11    1.06    0.27
  -6 -11 -11    1.10    0.34
   6 -11  11    1.98    0.48
   6  11  11    1.39    0.28
   7 -11  11    0.32    0.51
  -7 -11 -11    0.27    0.35
   7  11  11    0.06    0.25
   8 -11  11    0.99    0.62
  -8 -11 -11    1.18    0.46
   8 -12 -11   -0.51    0.29
  -8 -12  11    0.14    0.41
   8 -12 -11    0.21    0.69
   7 -12 -11   -0.31    0.24
   7 -12 -11    0.07    0.55
  -7 -12  11   -0.14    0.35
  -6 -12  11    0.09    0.29
   6 -12 -11    0.06    0.46
   6 -12 -11   -0.10    0.22
  -6 -12  11   -0.13    0.29
   5 -12 -11    0.99    0.24
  -5 -12  11    1.05    0.28
   5 -12 -11    1.57    0.47
  -5 -12  11    0.89    0.30
   4 -12 -11   10.03    0.64
  -4 -12  11    9.96    0.70
   4 -12 -11   10.13    0.89
  -4 -12  11   10.63    0.66
  -3 -12  11   29.17    1.46
   3 -12 -11   27.07    1.61
   3 -12 -11   28.66    1.46
  -3 -12  11   29.93    1.49
   2 -12 -11   36.35    2.01
  -2 -12  11   40.03    1.92
  -2 -12  11   40.32    1.94
   2 -12 -11   39.90    1.93
  -1 -12  11    1.98    0.33
  -1 -12  11    1.14    0.25
   1 -12 -11    1.14    0.31
   1 -12 -11    1.22    0.24
   0 -12 -11   10.42    0.70
   0 -12 -11   11.44    0.70
   0 -12  11   12.04    0.68
   0 -12  11   11.94    0.70
   1 -12  11    6.84    0.51
   1 -12  11    6.89    0.46
  -1 -12 -11    6.15    0.51
   2 -12  11    4.12    0.37
  -2 -12 -11    5.76    0.50
  -3 -12 -11    8.55    0.67
   3 -12  11   10.28    0.69
   3  12  11    9.71    0.68
  -4 -12 -11    3.84    0.48
   4 -12  11    4.33    0.56
   4  12  11    3.41    0.47
   5 -12  11   15.80    1.01
  -5 -12 -11   14.85    0.94
   5  12  11   13.74    0.89
  -6 -12 -11    0.65    0.33
   6 -12  11    1.31    0.51
   6  12  11   -0.08    0.25
  -7 -12 -11    0.14    0.37
   7 -12  11   -0.33    0.55
   7  12  11   -0.03    0.27
   8 -12  11    0.69    0.65
  -8 -12 -11    0.99    0.51
   8  12  11    0.37    0.34
  -8 -13  11    0.57    0.44
   8 -13 -11    1.87    0.74
   8 -13 -11    0.18    0.36
   7 -13 -11    2.13    0.61
   7 -13 -11    1.18    0.33
  -7 -13  11    2.24    0.44
   6 -13 -11    0.48    0.56
   6 -13 -11    1.55    0.28
  -6 -13  11    1.22    0.36
  -6 -13  11    1.05    0.37
   5 -13 -11    5.13    0.71
  -5 -13  11    5.58    0.56
  -5 -13  11    5.79    0.55
   5 -13 -11    5.63    0.47
   4 -13 -11    7.36    0.55
   4 -13 -11    6.90    0.79
  -4 -13  11    7.48    0.55
  -4 -13  11    6.96    0.59
  -3 -13  11   14.87    0.86
   3 -13 -11   14.47    1.08
  -3 -13  11   16.43    0.91
   3 -13 -11   14.93    0.86
   2 -13 -11    1.21    0.26
   2 -13 -11    0.88    0.36
  -2 -13  11    1.26    0.25
  -2 -13  11    1.30    0.28
   1 -13 -11    2.86    0.48
   1 -13 -11    3.25    0.41
  -1 -13  11    3.54    0.42
  -1 -13  11    4.03    0.39
   0 -13  11   41.69    2.03
   0 -13 -11   38.65    2.02
   0 -13 -11   40.71    2.05
   0 -13  11   44.32    2.04
   1 -13  11    1.19    0.27
   1 -13  11    1.04    0.24
  -1 -13 -11    1.21    0.20
  -1 -13 -11    1.29    0.29
   2 -13  11    2.44    0.39
  -2 -13 -11    1.76    0.32
   2 -13  11    1.82    0.25
   3 -13  11    2.09    0.35
  -3 -13 -11    1.65    0.33
   3  13  11    1.22    0.28
  -4 -13 -11    0.29    0.30
   4 -13  11    0.53    0.34
   4  13  11    0.36    0.27
  -5 -13 -11    0.39    0.32
   5 -13  11    1.19    0.42
   5  13  11    0.34    0.26
   6 -13  11    0.76    0.48
  -6 -13 -11   -0.67    0.35
   6  13  11   -0.46    0.27
  -7 -13 -11    0.18    0.45
   7 -13  11   -0.47    0.56
   7  13  11   -0.27    0.30
  -7 -14  11    1.91    0.47
   7 -14 -11    1.99    0.39
   7 -14 -11    1.91    0.76
  -6 -14  11    1.83    0.42
   6 -14 -11    1.84    0.34
  -6 -14  11    2.64    0.46
   6 -14 -11    1.39    0.65
   5 -14 -11   -0.16    0.52
   5 -14 -11    0.59    0.24
  -5 -14  11    0.11    0.30
  -5 -14  11    0.81    0.33
  -4 -14  11    0.63    0.26
   4 -14 -11    0.31    0.46
  -4 -14  11    0.19    0.30
   4 -14 -11    0.58    0.26
   3 -14 -11    3.73    0.44
  -3 -14  11    3.37    0.40
   3 -14 -11    3.32    0.58
  -3 -14  11    3.45    0.45
   2 -14 -11    0.24    0.35
  -2 -14  11   -0.14    0.24
  -2 -14  11    0.02    0.21
   2 -14 -11   -0.13    0.23
  -1 -14  11    2.21    0.32
   1 -14 -11    2.04    0.33
   1 -14 -11    2.27    0.37
  -1 -14  11    2.04    0.33
   0 -14 -11   28.83    1.59
   0 -14 -11   31.78    1.66
   0 -14  11   33.22    1.62
   0 -14  11   34.11    1.62
   1 -14  11   -0.06    0.26
  -1 -14 -11    0.32    0.28
   1 -14  11   -0.06    0.24
  -2 -14 -11    0.95    0.30
   2 -14  11    0.50    0.30
   2 -14  11    0.33    0.24
  -3 -14 -11    0.07    0.29
   3 -14  11    0.38    0.30
  -4 -14 -11    3.79    0.46
   4 -14  11    3.99    0.57
   4  14  11    2.76    0.39
  -5 -14 -11    1.67    0.40
   5 -14  11    1.99    0.50
   5  14  11    1.30    0.32
  -6 -14 -11    0.27    0.41
   6 -14  11    0.41    0.49
   6  14  11   -0.09    0.31
  -7 -14 -11    1.58    0.52
   7 -14  11    2.53    0.69
  -7 -15  11    0.06    0.45
   7 -15 -11    0.40    0.41
   7 -15 -11   -0.65    0.70
   6 -15 -11    5.45    0.80
  -6 -15  11    4.72    0.65
  -6 -15  11    4.50    0.58
   6 -15 -11    5.16    0.56
   5 -15 -11    5.87    0.57
  -5 -15  11    5.57    0.62
   5 -15 -11    6.00    0.91
  -5 -15  11    5.34    0.60
   4 -15 -11    3.60    0.63
  -4 -15  11    4.48    0.57
  -4 -15  11    4.33    0.49
   4 -15 -11    4.05    0.46
  -3 -15  11    0.36    0.28
   3 -15 -11   -0.18    0.26
   3 -15 -11    0.06    0.47
  -3 -15  11    0.19    0.25
   2 -15 -11    6.30    0.54
   2 -15 -11    4.72    0.74
  -2 -15  11    6.07    0.56
  -2 -15  11    5.72    0.47
  -1 -15  11    2.01    0.31
  -1 -15  11    1.33    0.31
   1 -15 -11    1.83    0.39
   1 -15 -11    1.95    0.35
   0 -15 -11   13.62    0.86
   0 -15  11   13.26    0.81
   0 -15 -11   11.69    0.78
   0 -15  11   14.87    0.82
   1 -15  11    0.17    0.29
   1 -15  11    0.42    0.29
  -1 -15 -11    0.85    0.31
   2 -15  11    2.14    0.35
   2 -15  11    2.24    0.38
  -2 -15 -11    2.02    0.40
  -3 -15 -11   -0.02    0.34
   3 -15  11    0.08    0.33
   4 -15  11   -0.23    0.38
  -4 -15 -11   -0.05    0.36
  -5 -15 -11    0.10    0.43
   5 -15  11    0.33    0.46
   5  15  11    0.38    0.30
   6 -15  11   -0.03    0.53
  -6 -15 -11    0.35    0.45
   6  15  11   -0.59    0.32
   6 -16 -11    0.38    0.38
  -6 -16  11    0.10    0.43
   6 -16 -11    0.05    0.69
  -6 -16  11    0.67    0.46
  -5 -16  11    1.45    0.42
   5 -16 -11    2.55    0.69
   5 -16 -11    1.99    0.39
  -5 -16  11    1.63    0.45
  -4 -16  11    2.25    0.42
   4 -16 -11    2.71    0.40
   4 -16 -11    2.14    0.62
  -4 -16  11    3.09    0.49
  -3 -16  11    0.00    0.32
  -3 -16  11    0.12    0.27
   3 -16 -11    0.28    0.30
   3 -16 -11    0.45    0.50
   2 -16 -11    1.28    0.33
  -2 -16  11    0.45    0.30
   2 -16 -11    1.37    0.51
  -2 -16  11    1.15    0.29
   1 -16 -11    2.31    0.42
  -1 -16  11    3.14    0.43
  -1 -16  11    2.77    0.38
   1 -16 -11    2.59    0.39
   0 -16  11    4.04    0.43
   0 -16 -11    3.80    0.57
   0 -16  11    3.88    0.47
   1 -16  11   17.08    0.97
  -1 -16 -11   15.52    1.01
   1 -16  11   14.27    0.95
  -2 -16 -11    1.12    0.39
   2 -16  11    1.53    0.36
   3 -16  11    0.03    0.37
  -3 -16 -11   -0.33    0.37
   4 -16  11    0.51    0.43
  -4 -16 -11    0.91    0.44
   5 -16  11    1.60    0.57
  -5 -16 -11    1.72    0.50
  -6 -16 -11    0.29    0.50
   6 -16  11    1.02    0.63
   6  16  11    0.06    0.36
  -5 -17  11    1.70    0.49
   5 -17 -11    1.26    0.42
  -5 -17  11    1.40    0.44
   5 -17 -11    1.25    0.71
  -4 -17  11    4.44    0.58
   4 -17 -11    3.76    0.72
  -4 -17  11    4.99    0.70
   4 -17 -11    3.86    0.60
  -3 -17  11    0.55    0.31
  -3 -17  11    0.67    0.36
   3 -17 -11    0.24    0.33
   3 -17 -11    0.12    0.51
  -2 -17  11   -0.48    0.33
   2 -17 -11   -0.21    0.31
  -2 -17  11   -0.04    0.29
   2 -17 -11   -0.08    0.50
   1 -17 -11    1.91    0.46
  -1 -17  11    2.21    0.36
  -1 -17  11    2.01    0.38
   1 -17 -11    2.05    0.39
   0 -17  11   -0.11    0.29
   0 -17  11   -0.20    0.35
   0 -17 -11   -0.10    0.33
  -1 -17 -11    0.40    0.36
   1 -17  11    0.51    0.38
   1 -17  11    0.62    0.32
   2 -17  11    2.26    0.42
  -2 -17 -11    2.01    0.49
  -3 -17 -11    0.53    0.44
   3 -17  11    0.60    0.41
  -4 -17 -11    0.01    0.45
   4 -17  11    0.40    0.46
   5 -17  11    2.78    0.61
  -5 -17 -11    1.50    0.54
  -5 -18  11    0.11    0.51
  -5 -18  11    1.26    0.50
   5 -18 -11   -0.77    0.70
   5 -18 -11    0.89    0.46
   4 -18 -11    0.94    0.65
  -4 -18  11    0.43    0.46
   4 -18 -11    0.20    0.42
  -4 -18  11    1.29    0.41
  -3 -18  11   -0.42    0.41
   3 -18 -11   -0.82    0.54
   3 -18 -11    0.07    0.39
  -3 -18  11    0.13    0.34
  -2 -18  11    2.77    0.46
   2 -18 -11    1.17    0.42
   2 -18 -11    1.03    0.54
  -2 -18  11    2.03    0.39
   1 -18 -11    0.39    0.41
  -1 -18  11    0.48    0.40
  -1 -18  11    0.15    0.31
   0 -18  11   24.24    1.42
   0 -18  11   26.50    1.39
   0 -18 -11   23.60    1.46
   1 -18  11   -0.10    0.35
   1 -18  11   -0.59    0.48
  -1 -18 -11   -0.23    0.44
  -2 -18 -11    0.83    0.46
   2 -18  11    0.77    0.40
   3 -18  11   -0.09    0.43
  -3 -18 -11    0.48    0.46
  -4 -18 -11    7.64    0.97
   4 -18  11    8.24    0.90
   3 -19 -11    4.80    0.72
  -3 -19  11    6.06    0.84
   3 -19 -11    3.42    0.74
  -3 -19  11    4.15    0.69
  -2 -19  11    0.97    0.39
   2 -19 -11    0.91    0.44
  -2 -19  11    1.54    0.48
  -1 -19  11    4.13    0.60
  -1 -19  11    4.91    0.64
   1 -19 -11    4.28    0.59
   0 -19  11   -0.13    0.35
   0 -19 -11    0.38    0.43
   0 -19  11    0.26    0.49
  -1 -19 -11    4.24    0.65
   1 -19  11    5.20    0.68
  -2 -19 -11    0.72    0.50
   2 -19  11   -0.03    0.43
  -3 -19 -11    3.79    0.69
   3 -19  11    5.26    0.73
  -1 -20  11    4.19    0.65
  -1 -20  11    4.11    0.68
   1 -20 -11    3.69    0.63
   0 -20 -11    0.31    0.54
   0 -20  11   -0.08    0.41
   0 -20  11   -0.42    0.57
   1 -20  11   -0.33    0.42
  -1 -20 -11   -0.48    0.53
  10   0 -12    2.68    0.48
   9   0 -12    0.05    0.30
   8   0 -12   16.33    0.98
   7   0 -12    0.34    0.22
   6   0 -12    5.49    0.45
   5   0 -12    0.01    0.16
   4   0 -12   42.69    2.07
   3   0 -12    2.63    0.27
  -2   0  12    6.80    0.41
   2   0 -12    7.02    0.42
   1   0 -12    0.27    0.10
  -1   0  12    0.28    0.09
   0   0  12   99.91    4.52
   0   0  12   96.69    4.52
   0   0 -12   96.83    4.52
   1   0  12    0.13    0.09
   1   0  12   -0.03    0.09
  -1   0 -12    0.14    0.07
  -2   0 -12   11.15    0.55
   2   0  12   10.26    0.62
   2   0  12   11.54    0.56
  -3   0 -12    1.77    0.16
   3   0  12    2.14    0.20
   3   0  12    1.66    0.27
   3   0  12    1.56    0.18
   4   0  12    0.06    0.13
   4   0  12    0.05    0.11
   4   0  12    0.13    0.17
  -4   0 -12    0.09    0.10
   5   0  12    0.10    0.23
   5   0  12    0.21    0.17
  -5   0 -12    0.13    0.12
   6   0  12   92.82    4.45
  -6   0 -12   93.79    4.27
   6   0  12   90.43    4.34
   7   0  12    0.32    0.29
   7   0  12    0.60    0.31
  -7   0 -12    0.47    0.16
   8   0  12    2.64    0.48
   8   0  12    2.43    0.44
   9   0  12   -0.37    0.42
   9   0  12    0.26    0.44
  10   0  12    2.03    0.59
  10  -1 -12    0.31    0.37
  10   1 -12    0.41    0.40
   9  -1 -12    3.77    0.53
   9   1 -12    4.23    0.54
   8  -1 -12    2.99    0.44
   8   1 -12    3.36    0.51
   7  -1 -12    0.71    0.26
   7   1 -12    1.03    0.27
   6  -1 -12    1.02    0.22
   6   1 -12    0.69    0.22
   6   1 -12    1.27    0.24
   5  -1 -12    7.88    0.52
   5   1 -12    7.61    0.53
   5   1 -12    7.68    0.53
   4  -1 -12    5.88    0.43
   4   1 -12    7.31    0.47
  -3  -1  12    8.64    0.52
   3  -1 -12    9.30    0.54
   3   1 -12    9.50    0.55
  -2  -1  12   23.93    1.19
   2  -1 -12   24.49    1.19
   2   1 -12   24.33    1.20
   1  -1 -12   46.23    2.20
  -1  -1  12   46.59    2.20
  -1  -1  12   47.78    2.18
   1   1 -12   46.63    2.21
  -1   1  12   48.43    2.19
  -1   1  12   44.83    2.20
   0  -1  12    1.33    0.17
   0  -1  12    1.42    0.16
   0  -1 -12    1.18    0.15
   0   1 -12    1.16    0.15
   0   1  12    1.64    0.16
   0   1  12    1.40    0.16
   1  -1  12   10.26    0.53
  -1  -1 -12   10.77    0.53
   1  -1  12    8.93    0.55
  -1   1 -12   10.78    0.52
   1   1  12    9.97    0.52
   1   1  12   10.79    0.56
   2  -1  12    1.23    0.16
   2  -1  12    0.83    0.16
   2  -1  12    1.53    0.17
  -2  -1 -12    0.97    0.12
   2   1  12    1.07    0.14
  -2   1 -12    1.03    0.12
   2   1  12    0.82    0.16
  -3  -1 -12   37.61    1.90
   3  -1  12   41.71    1.93
   3  -1  12   44.62    1.90
   3  -1  12   39.01    2.00
   3   1  12   43.96    1.91
   3   1  12   41.28    1.99
  -3   1 -12   36.92    1.89
   4  -1  12    0.11    0.09
   4  -1  12    0.28    0.15
   4  -1  12    0.14    0.19
  -4  -1 -12    0.19    0.11
   4   1  12    0.46    0.19
   4   1  12    0.08    0.13
   5  -1  12   12.09    0.55
   5  -1  12    9.25    0.74
   5  -1  12   10.52    0.64
  -5  -1 -12   11.08    0.58
   5   1  12   10.94    0.61
  -5   1 -12   11.48    0.55
   5   1  12    9.70    0.73
   6  -1  12   23.36    1.21
   6  -1  12   21.71    1.29
  -6  -1 -12   22.95    1.12
  -6   1 -12   22.08    1.08
   6   1  12   22.28    1.16
   6   1  12   23.33    1.28
  -7  -1 -12    2.74    0.31
   7  -1  12    2.85    0.43
   7  -1  12    3.30    0.46
   7   1  12    3.97    0.54
   7   1  12    3.07    0.44
   8  -1  12    1.03    0.40
   8  -1  12    1.52    0.39
   8   1  12    1.15    0.40
   8   1  12    1.34    0.37
   9  -1  12   -0.11    0.45
   9  -1  12    0.81    0.46
   9   1  12    0.86    0.43
  10  -1  12    0.49    0.60
  10  -1  12    0.70    0.63
  10   1  12    0.34    0.54
  10  -2 -12    1.11    0.38
  10   2 -12    1.81    0.49
   9  -2 -12    1.56    0.30
   9   2 -12    0.99    0.35
   8  -2 -12    2.92    0.43
   8   2 -12    4.69    0.54
   8   2 -12    3.59    0.53
   7  -2 -12    1.67    0.30
   7   2 -12    2.25    0.35
   7   2 -12    2.83    0.42
   6  -2 -12    3.97    0.38
   6   2 -12    3.66    0.43
   6   2 -12    3.00    0.39
   5  -2 -12   37.38    1.83
   5   2 -12   38.30    1.87
   5   2 -12   36.30    1.86
   4  -2 -12    4.26    0.35
   4   2 -12    4.55    0.38
   4   2 -12    4.75    0.40
   3  -2 -12    0.54    0.15
  -3  -2  12    0.26    0.13
   3   2 -12    0.36    0.15
   3   2 -12    0.46    0.16
  -2  -2  12    0.59    0.13
   2  -2 -12    0.63    0.13
   2   2 -12    0.48    0.14
  -1  -2  12  123.58    5.58
  -1  -2  12  121.18    5.61
   1  -2 -12  117.91    5.61
   1   2 -12  122.65    5.62
  -1   2  12  125.47    5.61
  -1   2  12  118.45    5.61
   0  -2  12    8.18    0.44
   0  -2  12    8.08    0.44
   0  -2 -12    7.97    0.44
   0   2 -12    7.84    0.44
   0   2  12    7.64    0.44
   0   2  12    8.67    0.45
   1  -2  12  115.69    5.61
  -1  -2 -12  122.20    5.58
   1  -2  12  123.82    5.58
  -1   2 -12  120.64    5.57
   1   2  12  123.43    5.57
   1   2  12  120.93    5.60
   2  -2  12    1.25    0.16
   2  -2  12    1.29    0.18
   2  -2  12    1.17    0.16
  -2  -2 -12    1.15    0.16
   2  -2  12    0.69    0.17
   2   2  12    1.20    0.14
   2   2  12    1.71    0.21
  -2   2 -12    0.98    0.11
   3  -2  12   20.66    0.94
   3  -2  12   21.10    0.94
   3  -2  12   19.71    1.00
   3  -2  12   18.31    1.05
  -3  -2 -12   19.40    0.97
  -3   2 -12   18.05    0.93
   3   2  12   20.07    1.04
   3   2  12   21.49    0.96
  -4  -2 -12   34.14    1.66
   4  -2  12   33.27    1.78
   4  -2  12   34.85    1.70
   4   2  12   36.88    1.65
   4   2  12   35.39    1.76
   5  -2  12    3.29    0.37
   5  -2  12    3.49    0.51
  -5  -2 -12    3.44    0.30
   5   2  12    3.28    0.29
   5   2  12    3.50    0.43
  -6  -2 -12   10.43    0.60
   6  -2  12   10.85    0.73
   6  -2  12    9.46    0.76
   6   2  12   10.41    0.62
   6   2  12   11.40    0.74
   7  -2  12    0.00    0.29
   7  -2  12    0.29    0.37
  -7  -2 -12    0.18    0.20
   7   2  12    0.33    0.24
   7   2  12    0.35    0.28
   8  -2  12    3.03    0.46
   8  -2  12    2.88    0.48
  -8  -2 -12    3.22    0.44
   8   2  12    2.97    0.48
   8   2  12    2.63    0.39
   9  -2  12    1.40    0.50
   9  -2  12    1.17    0.49
   9   2  12    1.31    0.44
  10  -2  12    2.76    0.70
  10  -2  12    1.98    0.63
  10   2  12    3.23    0.63
  10  -3 -12    0.16    0.36
  10   3 -12   -0.11    0.44
   9  -3 -12    1.47    0.33
   9   3 -12    2.03    0.44
   9   3 -12    2.13    0.41
   8  -3 -12    2.93    0.43
   8   3 -12    3.65    0.52
   8   3 -12    3.49    0.44
   7  -3 -12    4.35    0.43
   7   3 -12    4.32    0.53
   7   3 -12    5.14    0.53
   6  -3 -12    3.05    0.36
   6   3 -12    3.29    0.38
   6   3 -12    3.37    0.40
   5  -3 -12    4.44    0.35
   5   3 -12    3.16    0.38
   5   3 -12    4.30    0.40
   4  -3 -12    5.45    0.38
  -4  -3  12    4.80    0.38
   4   3 -12    4.85    0.41
   4   3 -12    5.50    0.43
  -3  -3  12   34.96    1.75
   3  -3 -12   36.28    1.75
   3   3 -12   36.55    1.78
   3   3 -12   36.82    1.78
   2  -3 -12    6.52    0.38
  -2  -3  12    5.81    0.37
   2   3 -12    5.40    0.39
   2   3 -12    6.08    0.40
   1  -3 -12    0.25    0.10
  -1  -3  12    0.48    0.11
  -1  -3  12    0.29    0.07
   1   3 -12    0.01    0.11
  -1   3  12    0.25    0.12
   1   3 -12    0.11    0.11
   0  -3  12   92.00    4.26
   0  -3  12   92.94    4.25
   0  -3 -12   92.78    4.26
   0   3  12   88.39    4.25
   0   3 -12   92.94    4.26
   0   3  12   92.69    4.26
   1  -3  12    2.96    0.29
  -1  -3 -12    3.38    0.25
   1  -3  12    3.80    0.25
  -1   3 -12    3.28    0.24
   1   3  12    3.99    0.27
  -1   3 -12    3.31    0.22
   1   3  12    3.67    0.24
  -2  -3 -12   12.95    0.68
   2  -3  12   11.68    0.73
   2  -3  12   13.50    0.69
  -2   3 -12   13.12    0.63
   2   3  12   14.25    0.72
  -2   3 -12   12.45    0.64
   2   3  12   14.89    0.66
   3  -3  12    4.23    0.33
  -3  -3 -12    4.07    0.29
   3  -3  12    3.53    0.39
   3   3  12    3.91    0.34
   3   3  12    4.44    0.25
   4  -3  12    0.52    0.22
   4  -3  12    0.58    0.19
   4   3  12    0.49    0.18
   5  -3  12    5.68    0.51
  -5  -3 -12    7.01    0.43
   5   3  12    6.80    0.53
   5   3  12    6.35    0.40
   6  -3  12    4.61    0.57
  -6  -3 -12    3.66    0.36
   6  -3  12    3.68    0.53
   6   3  12    4.30    0.47
   6   3  12    4.21    0.35
  -7  -3 -12    4.43    0.43
   7  -3  12    4.48    0.57
   7  -3  12    4.44    0.61
   7   3  12    4.02    0.43
   7   3  12    4.41    0.53
   8  -3  12    8.63    0.73
  -8  -3 -12    7.83    0.59
   8  -3  12    5.94    0.86
   8   3  12    7.31    0.73
   9  -3  12    0.62    0.46
   9  -3  12    0.33    0.49
   9   3  12    0.70    0.41
  10  -3  12    1.59    0.63
  10  -3  12    1.57    0.68
  10   3  12    0.71    0.53
  10  -4 -12   -0.17    0.35
  10   4 -12    0.33    0.46
  10   4 -12    0.41    0.49
   9  -4 -12    0.93    0.29
   9   4 -12    1.14    0.40
   9   4 -12    1.05    0.43
   8  -4 -12    4.54    0.46
   8   4 -12    3.89    0.61
   8   4 -12    4.54    0.62
   7  -4 -12    0.16    0.20
   7   4 -12    0.01    0.29
   7   4 -12   -0.11    0.26
   6  -4 -12    1.98    0.27
   6   4 -12    1.80    0.31
   6   4 -12    1.44    0.29
   5  -4 -12    0.27    0.15
   5   4 -12    0.50    0.22
   5   4 -12    0.09    0.20
   4  -4 -12   14.27    0.77
  -4  -4  12   13.29    0.77
  -4  -4  12   14.43    0.77
   4   4 -12   14.31    0.82
   4   4 -12   15.05    0.83
   3  -4 -12    6.45    0.42
  -3  -4  12    6.12    0.41
   3   4 -12    6.22    0.47
   3   4 -12    6.57    0.48
   2  -4 -12   59.25    2.82
  -2  -4  12   58.82    2.82
   2   4 -12   61.09    2.86
   2   4 -12   61.42    2.86
   1  -4 -12   33.96    1.66
  -1  -4  12   34.19    1.61
  -1  -4  12   35.51    1.66
   1   4 -12   34.29    1.67
   1   4 -12   35.44    1.68
   0  -4 -12   66.20    3.07
   0  -4  12   64.07    3.06
   0  -4  12   66.28    3.06
   0   4 -12   65.94    3.07
   0   4 -12   65.83    3.07
   0   4  12   65.98    3.08
   1  -4  12   19.11    0.91
  -1  -4 -12   19.37    0.91
   1  -4  12   16.46    0.93
  -1   4 -12   18.47    0.88
   1   4  12   16.72    0.88
  -1   4 -12   18.62    0.88
   1   4  12   18.30    0.92
   2  -4  12   57.62    2.60
   2  -4  12   51.16    2.63
  -2  -4 -12   55.73    2.58
   2   4  12   50.91    2.55
  -2   4 -12   55.68    2.54
  -2   4 -12   57.52    2.54
   2   4  12   56.67    2.61
   3  -4  12    3.42    0.37
  -3  -4 -12    3.76    0.28
   3  -4  12    3.82    0.33
   3   4  12    4.08    0.33
   3   4  12    3.44    0.22
  -4  -4 -12    0.17    0.14
   4  -4  12    0.19    0.22
   4  -4  12    0.06    0.18
   4   4  12   -0.02    0.09
   4   4  12   -0.01    0.17
   5  -4  12   33.64    1.70
  -5  -4 -12   33.43    1.63
   5  -4  12   29.53    1.75
   5   4  12   34.49    1.72
   5   4  12   35.95    1.58
  -6  -4 -12    0.45    0.22
   6  -4  12    0.21    0.28
   6  -4  12    0.64    0.33
   6   4  12    0.10    0.16
   6   4  12    0.52    0.24
  -7  -4 -12    2.97    0.44
   7  -4  12    4.50    0.57
   7  -4  12    2.77    0.45
   7   4  12    4.13    0.53
  -8  -4 -12    0.40    0.28
   8  -4  12    0.24    0.41
   8  -4  12    1.20    0.43
   8   4  12    0.72    0.35
   9  -4  12    8.98    1.09
   9  -4  12   10.39    0.98
   9   4  12   10.98    0.96
  10  -5 -12    1.56    0.76
  10   5 -12   -0.18    0.49
  10   5 -12    0.01    0.47
   9  -5 -12    0.19    0.27
   9   5 -12    0.19    0.40
   9   5 -12   -0.02    0.42
   8  -5 -12    5.61    0.51
   8   5 -12    7.14    0.69
   8   5 -12    6.11    0.71
   7  -5 -12    7.22    0.54
   7   5 -12    7.15    0.67
   7   5 -12    7.40    0.67
  -6  -5  12    8.28    0.56
   6  -5 -12    8.21    0.55
  -5  -5  12   20.84    1.09
   5  -5 -12   20.62    1.07
  -4  -5  12    5.10    0.40
  -4  -5  12    5.51    0.40
   4  -5 -12    5.35    0.37
  -3  -5  12    6.03    0.41
   3  -5 -12    4.99    0.36
  -3  -5  12    5.30    0.37
   2  -5 -12    3.81    0.28
  -2  -5  12    2.90    0.28
  -2  -5  12    3.33    0.27
   1  -5 -12    9.45    0.52
  -1  -5  12    8.89    0.51
  -1  -5  12    9.43    0.47
  -1  -5  12    9.55    0.51
   0  -5  12    1.09    0.15
   0  -5  12    1.12    0.18
   0  -5 -12    1.44    0.18
   0   5 -12    1.10    0.16
   0   5 -12    1.09    0.16
   0   5  12    1.29    0.21
   1  -5  12    0.49    0.14
  -1  -5 -12    0.52    0.12
   1  -5  12    0.22    0.13
   2  -5  12    4.90    0.34
   2  -5  12    3.83    0.37
  -2  -5 -12    4.75    0.32
  -2   5 -12    4.08    0.25
   2   5  12    4.46    0.33
  -2   5 -12    4.82    0.24
  -3  -5 -12    0.35    0.15
   3  -5  12    0.51    0.18
   3   5  12    0.36    0.16
   3   5  12    0.41    0.08
  -4  -5 -12    3.16    0.33
   4  -5  12    4.01    0.40
   4   5  12    3.68    0.39
   4   5  12    3.60    0.21
   5  -5  12   51.69    2.54
  -5  -5 -12   50.13    2.46
   5   5  12   54.03    2.38
   5   5  12   50.06    2.52
  -6  -5 -12   10.71    0.69
   6  -5  12   10.41    0.79
   6   5  12   10.54    0.72
   7  -5  12    3.23    0.48
  -7  -5 -12    3.30    0.44
   7   5  12    3.51    0.52
   8  -5  12    5.31    0.77
   8  -5  12    4.16    0.63
  -8  -5 -12    6.16    0.56
   8   5  12    6.03    0.70
   9  -5  12    1.04    0.54
   9  -5  12    1.67    0.57
  -9  -5 -12    1.67    0.49
   9   5  12    2.62    0.48
  10  -6 -12    2.60    0.84
  10  -6 -12    0.71    0.40
  10   6 -12    1.67    0.56
  10   6 -12    1.80    0.58
   9  -6 -12    0.24    0.60
   9  -6 -12    0.30    0.28
   9   6 -12   -0.56    0.42
   9   6 -12   -0.21    0.46
   8  -6 -12    3.47    0.40
  -8  -6  12    3.99    0.48
   8   6 -12    3.61    0.52
   8   6 -12    3.00    0.52
  -7  -6  12    6.68    0.54
   7  -6 -12    7.04    0.52
   6  -6 -12    7.38    0.53
  -6  -6  12    8.31    0.56
  -5  -6  12    4.91    0.41
  -5  -6  12    5.10    0.46
   5  -6 -12    5.16    0.38
   4  -6 -12    5.88    0.41
  -4  -6  12    6.19    0.45
  -4  -6  12    5.70    0.43
  -3  -6  12   19.61    1.05
   3  -6 -12   20.99    1.04
  -3  -6  12   21.18    1.05
  -2  -6  12   10.42    0.57
   2  -6 -12    9.22    0.56
  -2  -6  12   11.05    0.58
   1  -6 -12    7.84    0.44
  -1  -6  12    7.07    0.43
  -1  -6  12    6.51    0.38
  -1  -6  12    7.54    0.43
   0  -6  12   45.41    2.10
   0  -6  12   43.90    2.08
   0  -6  12   42.35    2.09
   0  -6 -12   44.84    2.10
   0   6  12   44.57    2.11
   1  -6  12    2.63    0.27
  -1  -6 -12    2.81    0.25
  -1   6 -12    2.00    0.23
   1   6  12    2.55    0.27
   2  -6  12    5.49    0.38
  -2  -6 -12    5.04    0.35
  -2   6 -12    5.11    0.28
  -2   6 -12    4.58    0.27
   2   6  12    5.14    0.37
   3  -6  12   28.27    1.44
  -3  -6 -12   29.90    1.42
   3   6  12   27.47    1.43
  -4  -6 -12   48.92    2.36
   4  -6  12   49.87    2.42
   4   6  12   49.07    2.40
   5  -6  12   16.25    0.96
  -5  -6 -12   15.09    0.87
   5   6  12   15.63    0.90
  -6  -6 -12   18.90    1.07
   6  -6  12   20.81    1.17
   6   6  12   20.21    1.13
  -7  -6 -12    3.02    0.43
   7  -6  12    2.57    0.47
   7   6  12    2.29    0.36
   8  -6  12    7.13    0.79
  -8  -6 -12    4.89    0.56
   8   6  12    4.91    0.62
   9  -6  12    0.28    0.50
   9  -6  12    1.97    0.59
  -9  -6 -12    0.96    0.38
   9   6  12    1.00    0.41
  10  -7 -12    2.17    0.88
  10   7 -12    2.91    0.70
   9  -7 -12    1.13    0.31
   9  -7 -12    0.35    0.66
   9   7 -12    2.08    0.59
   9   7 -12    1.10    0.54
  -8  -7  12    0.85    0.31
   8  -7 -12    0.11    0.23
  -7  -7  12    4.35    0.46
   7  -7 -12    3.72    0.39
  -6  -7  12    0.48    0.23
   6  -7 -12    0.40    0.19
  -5  -7  12    0.11    0.23
   5  -7 -12    0.10    0.16
  -5  -7  12    0.09    0.19
   4  -7 -12    6.89    0.46
  -4  -7  12    6.92    0.49
  -4  -7  12    7.17    0.50
   3  -7 -12   41.96    2.06
  -3  -7  12   42.27    2.07
  -3  -7  12   45.13    2.09
  -2  -7  12    2.34    0.25
   2  -7 -12    3.19    0.27
  -2  -7  12    2.51    0.29
  -1  -7  12   38.03    1.84
   1  -7 -12   38.86    1.89
  -1  -7  12   40.00    1.88
  -1  -7  12   40.52    1.88
   0  -7  12   34.75    1.59
   0  -7 -12   34.06    1.60
   0  -7  12   29.59    1.58
   0  -7  12   33.40    1.57
   0   7  12   32.39    1.60
   1  -7  12    2.35    0.21
   2  -7  12    0.94    0.20
  -2  -7 -12    0.94    0.20
  -2   7 -12    0.89    0.12
  -2   7 -12    0.71    0.09
  -3  -7 -12   16.26    0.91
   3  -7  12   17.41    0.93
   3   7  12   16.61    0.91
   4  -7  12   64.88    3.42
  -4  -7 -12   75.76    3.39
   4   7  12   73.64    3.41
  -5  -7 -12    4.36    0.44
   5  -7  12    5.31    0.54
   5   7  12    5.19    0.48
  -6  -7 -12    6.67    0.55
   6  -7  12    8.64    0.69
   6   7  12    7.51    0.61
  -7  -7 -12    2.26    0.36
   7  -7  12    3.53    0.52
   7   7  12    2.56    0.37
   8  -7  12    0.63    0.46
  -8  -7 -12    0.14    0.31
   8   7  12    0.29    0.33
   9  -7  12    0.82    0.59
  -9  -7 -12   -0.15    0.40
   9   7  12    0.60    0.36
   9  -8 -12   -0.03    0.29
   9  -8 -12    0.19    0.62
  -9  -8  12   -0.05    0.37
  -8  -8  12    0.44    0.30
   8  -8 -12    0.41    0.24
   8  -8 -12    0.01    0.53
  -7  -8  12    0.40    0.25
   7  -8 -12    0.10    0.21
  -6  -8  12    0.29    0.23
   6  -8 -12    0.46    0.21
  -5  -8  12    8.82    0.61
   5  -8 -12    9.18    0.57
  -5  -8  12    9.04    0.63
  -3  -8  12   14.11    0.77
   3  -8 -12   13.89    0.75
  -3  -8  12   13.52    0.76
  -2  -8  12    2.22    0.32
  -2  -8  12    3.23    0.28
   2  -8 -12    2.47    0.27
  -1  -8  12   24.58    1.20
   1  -8 -12   24.37    1.21
  -1  -8  12   22.04    1.16
  -1  -8  12   25.72    1.20
   0  -8 -12   21.73    1.13
   0  -8  12   23.17    1.13
   0  -8  12   22.70    1.11
  -1  -8 -12   15.29    0.78
   1  -8  12   15.55    0.78
   1  -8  12   12.49    0.71
   1   8  12   13.63    0.78
  -2  -8 -12    2.45    0.31
  -2   8 -12    1.60    0.22
  -2   8 -12    1.90    0.21
  -2   8 -12    1.40    0.16
   3  -8  12   14.53    0.85
  -3  -8 -12   14.99    0.82
   3   8  12   13.97    0.83
   4  -8  12    3.74    0.48
  -4  -8 -12    3.62    0.40
   4   8  12    3.27    0.38
   5  -8  12   11.88    0.80
  -5  -8 -12   10.93    0.71
   5   8  12   11.65    0.72
  -6  -8 -12    5.04    0.50
   6  -8  12    6.21    0.64
   6   8  12    4.98    0.53
   7  -8  12    0.13    0.40
  -7  -8 -12   -0.29    0.28
   7   8  12   -0.21    0.26
  -8  -8 -12    0.34    0.34
   8  -8  12    0.86    0.51
   8   8  12    0.32    0.31
  -9  -8 -12    0.24    0.41
   9  -8  12    1.38    0.66
   9   8  12    0.58    0.38
   9  -9 -12    0.23    0.34
   9  -9 -12    0.50    0.70
  -9  -9  12    0.28    0.38
  -8  -9  12    1.92    0.39
   8  -9 -12    1.98    0.63
   8  -9 -12    2.25    0.34
   7  -9 -12   -0.18    0.22
   7  -9 -12   -0.05    0.47
  -7  -9  12    0.20    0.29
   6  -9 -12    0.44    0.21
  -6  -9  12    0.31    0.26
   6  -9 -12   -0.30    0.44
  -5  -9  12    8.12    0.58
  -5  -9  12    7.54    0.57
   5  -9 -12    8.33    0.53
  -4  -9  12    3.83    0.37
   4  -9 -12    3.41    0.33
  -4  -9  12    3.37    0.40
  -3  -9  12   10.11    0.62
   3  -9 -12    9.68    0.60
  -3  -9  12   11.13    0.64
   2  -9 -12   11.03    0.63
  -2  -9  12   11.09    0.67
  -2  -9  12   11.13    0.63
  -1  -9  12    6.07    0.42
   1  -9 -12    5.48    0.40
  -1  -9  12    6.24    0.41
   0  -9  12    2.35    0.28
   0  -9 -12    2.40    0.28
   0  -9  12    2.51    0.26
   0  -9 -12    1.88    0.30
   1  -9  12   10.33    0.57
   1  -9  12   11.70    0.64
  -1  -9 -12    9.40    0.58
  -1  -9 -12   11.13    0.64
   1   9  12   10.78    0.66
   2  -9  12    8.15    0.57
   2  -9  12    7.57    0.44
  -2  -9 -12    8.51    0.55
   2   9  12    9.22    0.58
   3  -9  12    3.49    0.40
  -3  -9 -12    3.02    0.36
   3   9  12    2.24    0.38
  -4  -9 -12    4.44    0.44
   4   9  12    4.22    0.42
  -5  -9 -12    5.04    0.51
   5  -9  12    6.27    0.59
   5   9  12    6.18    0.50
   6  -9  12    4.87    0.66
  -6  -9 -12    4.10    0.49
   6   9  12    3.96    0.46
  -7  -9 -12    1.81    0.36
   7  -9  12    1.73    0.50
   7   9  12    1.67    0.32
   8  -9  12   -0.42    0.53
  -8  -9 -12    0.58    0.37
   8   9  12   -0.29    0.30
   9  -9  12    6.25    1.05
  -9  -9 -12    7.02    0.83
   9   9  12    5.59    0.75
   9 -10 -12    0.80    0.36
  -9 -10  12   -0.10    0.43
   9 -10 -12    0.00    0.74
   8 -10 -12    0.91    0.61
   8 -10 -12    0.30    0.28
  -8 -10  12    0.84    0.39
   7 -10 -12    0.82    0.25
   7 -10 -12    1.56    0.58
  -7 -10  12    1.28    0.34
   6 -10 -12    0.75    0.22
  -6 -10  12    1.05    0.30
   6 -10 -12    0.42    0.46
   5 -10 -12    2.02    0.49
  -5 -10  12    3.08    0.40
   5 -10 -12    2.79    0.33
  -5 -10  12    2.51    0.34
  -4 -10  12   18.52    0.99
   4 -10 -12   16.91    0.94
  -4 -10  12   17.79    0.96
   4 -10 -12   17.01    1.20
  -3 -10  12   12.60    0.77
   3 -10 -12   12.91    0.94
  -3 -10  12   14.29    0.79
   3 -10 -12   14.68    0.77
   2 -10 -12   18.20    1.12
   2 -10 -12   18.80    1.01
  -2 -10  12   19.97    1.04
  -2 -10  12   20.30    1.01
   1 -10 -12    3.20    0.47
  -1 -10  12    3.97    0.38
   1 -10 -12    3.58    0.34
  -1 -10  12    4.39    0.36
   0 -10  12    0.11    0.15
   0 -10 -12   -0.26    0.21
   0 -10 -12    0.21    0.17
   0 -10  12    0.17    0.20
  -1 -10 -12    3.33    0.33
   1 -10  12    4.21    0.40
  -1 -10 -12    4.62    0.37
   1 -10  12    3.46    0.30
   2 -10  12   33.81    1.73
   2 -10  12   40.24    1.85
  -2 -10 -12   37.35    1.83
   2  10  12   35.83    1.83
   3 -10  12   66.59    3.24
  -3 -10 -12   69.54    3.23
   3  10  12   65.84    3.22
   4 -10  12    4.24    0.52
  -4 -10 -12    4.85    0.46
   4  10  12    4.00    0.45
  -5 -10 -12    2.02    0.33
   5 -10  12    1.85    0.38
   5  10  12    1.63    0.29
  -6 -10 -12    0.27    0.29
   6 -10  12    0.26    0.39
   6  10  12   -0.16    0.23
   7 -10  12    1.12    0.49
  -7 -10 -12    0.76    0.35
   7  10  12    1.06    0.31
  -8 -10 -12   -0.22    0.40
   8 -10  12    1.05    0.57
   8  10  12   -0.32    0.31
  -8 -11  12    0.88    0.41
   8 -11 -12    1.07    0.31
   8 -11 -12    0.66    0.62
   7 -11 -12    1.10    0.26
   7 -11 -12    0.41    0.54
  -7 -11  12    0.96    0.34
   6 -11 -12    0.07    0.45
  -6 -11  12    0.36    0.28
   6 -11 -12    0.55    0.22
  -6 -11  12    0.44    0.28
   5 -11 -12    0.03    0.20
   5 -11 -12    0.63    0.42
  -5 -11  12   -0.22    0.24
  -5 -11  12   -0.01    0.22
   4 -11 -12   -0.13    0.19
  -4 -11  12    0.16    0.22
   4 -11 -12    0.08    0.42
  -4 -11  12   -0.10    0.20
  -3 -11  12    5.37    0.47
  -3 -11  12    5.27    0.43
   3 -11 -12    4.18    0.65
   3 -11 -12    4.97    0.41
   2 -11 -12    1.96    0.29
  -2 -11  12    0.88    0.24
  -2 -11  12    1.21    0.25
   2 -11 -12    0.26    0.34
   1 -11 -12   12.49    0.83
  -1 -11  12   14.85    0.75
  -1 -11  12   12.55    0.77
   1 -11 -12   13.15    0.76
   0 -11 -12    7.57    0.54
   0 -11  12    9.02    0.53
   0 -11  12    7.96    0.53
   0 -11 -12    7.42    0.56
   1 -11  12   26.14    1.30
  -1 -11 -12   27.14    1.37
   1 -11  12   27.70    1.35
  -1 -11 -12   24.80    1.28
   2 -11  12   16.04    0.86
  -2 -11 -12   17.74    0.97
   2 -11  12   18.22    0.97
   2  11  12   16.56    0.96
   3 -11  12    4.58    0.45
  -3 -11 -12    3.57    0.47
   3  11  12    3.55    0.44
   4 -11  12   -0.29    0.28
  -4 -11 -12    0.10    0.28
   4  11  12   -0.08    0.22
  -5 -11 -12   -0.30    0.27
   5 -11  12    0.52    0.31
   5  11  12    0.22    0.25
  -6 -11 -12    7.46    0.66
   6 -11  12    8.50    0.81
   6  11  12    6.99    0.59
  -7 -11 -12    0.11    0.37
   7 -11  12    0.05    0.50
   7  11  12   -0.14    0.27
  -8 -11 -12    1.36    0.48
   8 -11  12    2.49    0.64
   8  11  12    1.39    0.37
   8 -12 -12    0.92    0.68
   8 -12 -12    1.13    0.36
  -8 -12  12    0.45    0.41
   7 -12 -12    3.11    0.65
  -7 -12  12    3.17    0.48
   7 -12 -12    3.16    0.45
  -6 -12  12    0.89    0.34
  -6 -12  12    0.49    0.32
   6 -12 -12    1.27    0.52
   6 -12 -12    0.60    0.24
  -5 -12  12    0.38    0.26
   5 -12 -12   -0.03    0.46
  -5 -12  12    0.16    0.27
   5 -12 -12    0.26    0.21
  -4 -12  12    0.09    0.25
   4 -12 -12    0.29    0.20
  -4 -12  12    0.47    0.22
   4 -12 -12   -0.08    0.42
   3 -12 -12    1.50    0.25
  -3 -12  12    1.14    0.28
   3 -12 -12    1.18    0.46
  -3 -12  12    2.13    0.34
   2 -12 -12   17.74    0.97
   2 -12 -12   15.37    1.07
  -2 -12  12   18.92    0.97
  -2 -12  12   18.70    0.99
  -1 -12  12   10.02    0.62
   1 -12 -12    8.78    0.67
   1 -12 -12    8.25    0.59
  -1 -12  12    9.49    0.58
   0 -12 -12    1.94    0.30
   0 -12  12    2.08    0.31
   0 -12  12    1.64    0.27
   0 -12 -12    1.92    0.29
  -1 -12 -12    8.87    0.57
   1 -12  12   10.17    0.61
   1 -12  12   11.99    0.69
  -1 -12 -12   11.42    0.68
  -2 -12 -12   14.53    0.85
   2 -12  12   12.99    0.74
   2 -12  12   14.62    0.85
  -3 -12 -12    9.30    0.67
   3 -12  12    9.55    0.67
   3  12  12    8.77    0.65
  -4 -12 -12    0.87    0.31
   4 -12  12    0.81    0.33
   4  12  12    0.62    0.26
   5 -12  12    2.17    0.43
  -5 -12 -12    2.18    0.36
   5  12  12    1.82    0.32
  -6 -12 -12    0.57    0.34
   6 -12  12    0.36    0.46
   6  12  12   -0.01    0.26
  -7 -12 -12   -0.38    0.38
   7 -12  12    0.33    0.55
   7  12  12    0.01    0.29
  -8 -12 -12    1.05    0.54
   8 -12  12   -0.54    0.67
   8  12  12    0.47    0.36
   8 -13 -12    0.47    0.75
   8 -13 -12    1.03    0.40
  -8 -13  12    0.65    0.49
   7 -13 -12    0.98    0.63
  -7 -13  12    0.91    0.42
   7 -13 -12    0.48    0.30
  -6 -13  12    0.18    0.32
   6 -13 -12   -0.16    0.52
  -6 -13  12    0.29    0.32
   6 -13 -12    0.29    0.27
  -5 -13  12   -0.04    0.30
   5 -13 -12    0.26    0.22
  -5 -13  12    0.76    0.30
   5 -13 -12   -0.66    0.45
   4 -13 -12    3.15    0.41
  -4 -13  12    3.06    0.45
   4 -13 -12    3.28    0.55
  -4 -13  12    3.15    0.41
  -3 -13  12    7.86    0.60
   3 -13 -12    8.76    0.59
   3 -13 -12    5.71    0.86
  -3 -13  12    7.84    0.56
   2 -13 -12   -0.14    0.21
  -2 -13  12    0.47    0.25
   2 -13 -12   -0.22    0.32
  -2 -13  12    0.42    0.21
   1 -13 -12    0.75    0.32
  -1 -13  12    0.71    0.24
  -1 -13  12    0.34    0.24
   1 -13 -12    0.45    0.23
   0 -13 -12    1.40    0.29
   0 -13  12    1.53    0.28
   0 -13 -12    1.17    0.29
   0 -13  12    1.12    0.29
  -1 -13 -12    0.26    0.25
   1 -13  12    0.06    0.21
   1 -13  12    0.55    0.23
  -2 -13 -12   14.16    0.89
   2 -13  12   15.29    0.88
   2 -13  12   13.85    0.78
   3 -13  12    7.52    0.60
  -3 -13 -12    6.14    0.62
   3  13  12    6.08    0.57
   4 -13  12    0.11    0.34
  -4 -13 -12   -0.24    0.30
   4  13  12   -0.04    0.26
   5 -13  12    0.73    0.41
  -5 -13 -12    1.03    0.36
   5  13  12    0.72    0.29
  -6 -13 -12   -0.23    0.37
   6 -13  12   -0.09    0.45
   7 -13  12    1.89    0.60
  -7 -13 -12    0.95    0.50
   7  13  12    1.06    0.35
  -7 -14  12    9.10    0.86
   7 -14 -12    7.73    0.70
   7 -14 -12    9.03    1.17
  -6 -14  12   -0.47    0.38
   6 -14 -12   -0.03    0.29
  -6 -14  12   -0.03    0.35
   6 -14 -12   -0.40    0.58
   5 -14 -12    2.35    0.35
  -5 -14  12    2.21    0.41
  -5 -14  12    3.11    0.43
   5 -14 -12    2.85    0.61
  -4 -14  12    4.50    0.49
   4 -14 -12    4.72    0.66
  -4 -14  12    4.31    0.55
   4 -14 -12    5.18    0.48
   3 -14 -12    0.21    0.46
  -3 -14  12    0.17    0.27
   3 -14 -12    0.45    0.25
  -3 -14  12    0.38    0.24
  -2 -14  12    1.76    0.31
   2 -14 -12    0.99    0.41
  -2 -14  12    1.58    0.28
   2 -14 -12    1.68    0.31
  -1 -14  12    2.09    0.37
  -1 -14  12    2.85    0.34
   1 -14 -12    2.64    0.40
   1 -14 -12    2.82    0.37
   0 -14 -12    0.57    0.26
   0 -14 -12    0.04    0.26
   0 -14  12    0.17    0.24
   0 -14  12    0.88    0.25
   1 -14  12    0.57    0.26
  -1 -14 -12    0.07    0.28
   1 -14  12    0.18    0.28
   2 -14  12    5.76    0.54
  -2 -14 -12    6.19    0.57
   2 -14  12    5.57    0.48
   3 -14  12    4.67    0.58
  -3 -14 -12    4.46    0.55
   4 -14  12    0.04    0.36
  -4 -14 -12    0.50    0.34
   4  14  12   -0.02    0.27
   5 -14  12    0.78    0.44
  -5 -14 -12    0.81    0.40
   5  14  12    0.85    0.33
   6 -14  12    5.13    0.85
  -6 -14 -12    5.14    0.64
   6  14  12    3.90    0.59
  -7 -14 -12    5.67    0.86
   7 -14  12    6.08    1.04
   7  14  12    4.31    0.67
   7 -15 -12    4.44    0.65
   7 -15 -12    2.67    0.81
  -7 -15  12    3.09    0.55
   6 -15 -12    0.13    0.33
  -6 -15  12    0.66    0.42
   6 -15 -12    0.12    0.63
  -6 -15  12    0.59    0.39
   5 -15 -12    2.28    0.67
  -5 -15  12    2.57    0.42
   5 -15 -12    3.12    0.40
  -5 -15  12    2.67    0.44
   4 -15 -12    0.89    0.31
  -4 -15  12    1.17    0.34
   4 -15 -12    1.29    0.55
  -4 -15  12    1.32    0.33
  -3 -15  12    0.14    0.29
  -3 -15  12    0.16    0.26
   3 -15 -12    0.52    0.27
   3 -15 -12   -0.31    0.45
  -2 -15  12    7.60    0.56
   2 -15 -12    6.35    0.77
  -2 -15  12    7.28    0.60
   2 -15 -12    6.90    0.58
   1 -15 -12    6.20    0.57
  -1 -15  12    7.05    0.52
   1 -15 -12    5.11    0.61
  -1 -15  12    5.80    0.54
   0 -15  12   -0.14    0.25
   0 -15 -12   -0.18    0.28
   0 -15  12    0.15    0.25
   1 -15  12   12.03    0.80
  -1 -15 -12   11.36    0.82
   1 -15  12   13.15    0.81
  -2 -15 -12    3.78    0.53
   2 -15  12    4.01    0.50
   3 -15  12    3.47    0.58
  -3 -15 -12    2.86    0.46
   4 -15  12    1.78    0.43
  -4 -15 -12    2.63    0.45
   5 -15  12    0.40    0.51
  -5 -15 -12   -0.32    0.41
   5  15  12   -0.60    0.29
  -6 -15 -12   -0.67    0.45
   6 -16 -12   -0.17    0.40
  -6 -16  12    1.01    0.44
  -6 -16  12    0.89    0.44
   6 -16 -12   -0.24    0.68
   5 -16 -12    0.69    0.36
   5 -16 -12   -0.42    0.62
  -5 -16  12    0.12    0.37
  -5 -16  12    0.59    0.41
  -4 -16  12    0.13    0.30
  -4 -16  12    0.02    0.34
   4 -16 -12   -0.27    0.53
   4 -16 -12    0.05    0.31
   3 -16 -12    1.16    0.33
  -3 -16  12    1.31    0.35
   3 -16 -12    1.59    0.54
  -3 -16  12    1.32    0.33
  -2 -16  12    2.27    0.37
   2 -16 -12    1.52    0.54
  -2 -16  12    2.18    0.35
   2 -16 -12    2.17    0.37
   1 -16 -12    0.51    0.37
   1 -16 -12    1.00    0.34
  -1 -16  12    0.64    0.30
   0 -16  12    0.25    0.30
   0 -16  12   -0.01    0.26
   0 -16 -12   -0.23    0.31
   1 -16  12    8.08    0.64
  -1 -16 -12    6.90    0.67
   1 -16  12    6.24    0.64
  -2 -16 -12    0.63    0.37
   2 -16  12    0.28    0.32
  -3 -16 -12    5.89    0.76
   3 -16  12    6.86    0.72
   4 -16  12    0.25    0.43
  -4 -16 -12   -0.23    0.42
   5 -16  12    0.06    0.50
  -5 -16 -12   -0.11    0.48
  -5 -17  12    0.60    0.45
   5 -17 -12    0.11    0.40
  -5 -17  12    0.54    0.44
   5 -17 -12    0.13    0.68
   4 -17 -12    0.57    0.38
   4 -17 -12   -0.46    0.60
  -4 -17  12   -0.19    0.43
  -4 -17  12    0.47    0.35
  -3 -17  12    0.27    0.32
   3 -17 -12    0.42    0.35
  -3 -17  12    0.03    0.39
   3 -17 -12   -0.73    0.52
   2 -17 -12    5.22    0.68
  -2 -17  12    4.07    0.61
   2 -17 -12    5.71    0.62
  -2 -17  12    5.01    0.55
  -1 -17  12    0.62    0.29
  -1 -17  12    0.24    0.34
   1 -17 -12    0.16    0.33
   0 -17 -12    3.30    0.47
   0 -17  12    2.74    0.42
   0 -17  12    2.70    0.40
   1 -17  12    0.03    0.40
   1 -17  12    0.39    0.32
  -1 -17 -12    0.37    0.40
  -2 -17 -12    8.76    0.84
   2 -17  12    9.16    0.74
  -3 -17 -12    0.81    0.46
   3 -17  12    0.32    0.41
  -4 -17 -12    6.24    0.81
   4 -17  12    7.57    0.88
   5 -17  12    0.11    0.55
  -5 -17 -12    0.67    0.53
   4 -18 -12   -0.52    0.64
  -4 -18  12    1.00    0.48
  -4 -18  12    1.27    0.44
   4 -18 -12    0.71    0.44
   3 -18 -12   -0.24    0.59
  -3 -18  12    0.08    0.43
   3 -18 -12    0.77    0.41
  -3 -18  12    0.01    0.36
  -2 -18  12    1.68    0.38
   2 -18 -12    1.32    0.71
  -2 -18  12    0.98    0.42
   2 -18 -12    1.48    0.44
  -1 -18  12    0.60    0.33
  -1 -18  12    0.49    0.41
   1 -18 -12    0.61    0.40
   0 -18  12    1.06    0.38
   0 -18 -12    1.17    0.46
   0 -18  12    1.26    0.42
  -1 -18 -12   -0.61    0.44
   1 -18  12   -0.11    0.32
   2 -18  12    1.75    0.43
  -2 -18 -12    1.67    0.51
   3 -18  12   -0.03    0.43
  -3 -18 -12    0.65    0.47
   4 -18  12    0.91    0.53
  -4 -18 -12    0.11    0.56
  -3 -19  12    1.45    0.45
  -3 -19  12    1.41    0.56
   3 -19 -12    1.40    0.47
   3 -19 -12    1.25    0.65
  -2 -19  12    0.56    0.49
   2 -19 -12    0.43    0.42
  -2 -19  12   -0.11    0.37
  -1 -19  12   -0.25    0.48
   1 -19 -12    0.60    0.46
  -1 -19  12   -0.22    0.37
   0 -19  12    1.13    0.52
   0 -19 -12    0.59    0.47
   0 -19  12    1.05    0.41
  -1 -19 -12    0.13    0.49
   1 -19  12    0.25    0.40
   2 -19  12   -0.02    0.43
  -2 -19 -12    0.15    0.51
  10   0 -13    0.61    0.41
   9   0 -13    7.13    0.66
   8   0 -13    0.60    0.29
   7   0 -13    1.54    0.30
   6   0 -13    0.07    0.20
   5   0 -13    2.07    0.29
   4   0 -13    0.24    0.15
   3   0 -13   15.42    0.83
   2   0 -13    0.12    0.11
  -2   0  13    0.10    0.11
   1   0 -13   39.41    1.87
  -1   0  13   38.74    1.87
  -1   0  13   39.96    1.85
   0   0  13    1.09    0.16
   0   0 -13    0.99    0.15
  -2   0 -13    0.14    0.08
   2   0  13    0.10    0.12
   2   0  13    0.17    0.10
  -3   0 -13    0.16    0.09
   3   0  13    0.22    0.12
   3   0  13    0.34    0.16
   4   0  13    0.10    0.13
  -4   0 -13    0.26    0.10
   4   0  13    0.27    0.19
   5   0  13   17.17    0.99
  -5   0 -13   16.07    0.82
   5   0  13   16.74    0.88
  -6   0 -13    0.50    0.15
   6   0  13    0.85    0.23
   6   0  13    0.47    0.25
   7   0  13    5.47    0.56
   7   0  13    7.20    0.65
   8   0  13   -0.12    0.37
   8   0  13   -0.16    0.35
   9   0  13    3.22    0.60
   9   0  13    4.65    0.60
  10  -1 -13    2.02    0.45
  10   1 -13    1.96    0.46
   9  -1 -13    0.89    0.32
   9   1 -13    1.08    0.34
   8  -1 -13   14.60    0.92
   8   1 -13   15.76    0.96
   7  -1 -13    0.18    0.23
   7   1 -13    0.98    0.27
   6  -1 -13    0.75    0.21
   6   1 -13    0.77    0.24
   5  -1 -13    3.59    0.34
   5   1 -13    3.65    0.36
   4  -1 -13    9.51    0.57
   4   1 -13    9.84    0.59
  -3  -1  13   19.80    1.04
   3  -1 -13   20.81    1.05
   3   1 -13   20.57    1.06
   2  -1 -13   -0.08    0.11
  -2  -1  13    0.02    0.11
  -2   1  13   -0.02    0.11
   2   1 -13   -0.07    0.12
   1  -1 -13    2.62    0.22
  -1  -1  13    3.21    0.24
  -1  -1  13    3.34    0.22
  -1   1  13    2.65    0.24
   1   1 -13    2.29    0.23
  -1   1  13    2.97    0.24
   0  -1  13   33.19    1.57
   0  -1  13   32.80    1.57
   0  -1 -13   32.09    1.56
   0   1 -13   32.59    1.56
   0   1  13   34.15    1.57
   0   1  13   32.92    1.57
   1  -1  13   19.30    0.93
  -1  -1 -13   18.51    0.92
   1  -1  13   18.93    0.96
   1   1  13   19.45    0.93
   1   1  13   18.57    0.95
  -1   1 -13   18.97    0.91
   2  -1  13    8.56    0.46
   2  -1  13    8.08    0.52
  -2  -1 -13    8.52    0.45
   2  -1  13    8.41    0.46
   2   1  13    8.70    0.45
   2   1  13    8.14    0.51
  -2   1 -13    8.03    0.43
   3  -1  13    4.15    0.30
   3  -1  13    3.67    0.26
  -3  -1 -13    3.71    0.25
   3  -1  13    3.97    0.36
   3   1  13    4.19    0.27
  -3   1 -13    3.58    0.23
   3   1  13    3.53    0.35
   4  -1  13    5.53    0.39
  -4  -1 -13    5.63    0.34
   4  -1  13    5.91    0.32
   4   1  13    5.53    0.35
   4   1  13    5.16    0.48
  -4   1 -13    5.45    0.31
   5  -1  13    0.58    0.20
   5  -1  13    0.01    0.22
   5   1  13    0.88    0.25
  -5   1 -13    0.49    0.12
  -6  -1 -13    0.42    0.17
   6  -1  13    0.81    0.27
   6  -1  13    0.46    0.27
   6   1  13    1.17    0.28
   6   1  13    1.14    0.23
  -6   1 -13    0.54    0.13
   7  -1  13   15.60    1.01
  -7  -1 -13   14.10    0.78
   7  -1  13   15.34    0.95
   7   1  13   15.31    1.00
   7   1  13   13.81    0.85
   8  -1  13    2.58    0.42
   8  -1  13    1.49    0.43
   8   1  13    2.18    0.46
   8   1  13    2.78    0.44
   9  -1  13    1.20    0.48
   9  -1  13   -0.61    0.45
   9   1  13   -0.16    0.42
  10  -2 -13    1.26    0.42
  10   2 -13    2.10    0.47
   9   2 -13    1.56    0.39
   8  -2 -13    8.41    0.64
   8   2 -13    9.79    0.73
   7  -2 -13    2.74    0.38
   7   2 -13    2.78    0.38
   7   2 -13    2.64    0.37
   6  -2 -13    4.46    0.41
   6   2 -13    4.42    0.44
   6   2 -13    4.04    0.44
   5  -2 -13   12.82    0.72
   5   2 -13   12.66    0.76
   5   2 -13   12.31    0.75
   3  -2 -13    7.33    0.45
  -3  -2  13    6.82    0.44
   3   2 -13    6.79    0.48
   3   2 -13    6.84    0.48
   2  -2 -13    8.64    0.50
  -2  -2  13    8.63    0.50
   2   2 -13    9.09    0.52
  -1  -2  13    5.33    0.31
   1  -2 -13    4.60    0.30
  -1  -2  13    4.76    0.27
  -1   2  13    4.48    0.31
   1   2 -13    3.89    0.31
  -1   2  13    3.74    0.30
   0  -2 -13    0.27    0.10
   0  -2  13    0.09    0.09
   0  -2  13    0.17    0.11
   0   2  13   -0.04    0.10
   0   2  13    0.20    0.09
   0   2 -13    0.15    0.10
   1  -2  13    9.58    0.56
  -1  -2 -13    9.81    0.53
   1  -2  13    9.98    0.54
   1   2  13   10.22    0.53
   1   2  13   10.54    0.56
  -1   2 -13   10.87    0.52
  -2  -2 -13   25.54    1.29
   2  -2  13   27.44    1.29
   2  -2  13   25.61    1.36
   2  -2  13   28.40    1.31
   2  -2  13   28.56    1.29
   2   2  13   26.91    1.34
   2   2  13   27.33    1.28
  -2   2 -13   26.75    1.27
  -3  -2 -13   21.14    1.07
   3  -2  13   20.80    1.16
   3  -2  13   23.30    1.05
   3  -2  13   22.51    1.05
   3  -2  13   23.30    1.10
   3   2  13   21.80    1.15
   3   2  13   24.03    1.06
  -3   2 -13   19.80    1.03
   4  -2  13   20.69    1.20
  -4  -2 -13   21.55    1.08
   4  -2  13   22.00    1.12
   4   2  13   24.00    1.07
   4   2  13   21.81    1.18
   5  -2  13   17.48    0.96
   5  -2  13   16.97    1.04
  -5  -2 -13   17.93    0.90
   5   2  13   18.15    0.90
   5   2  13   18.07    1.02
  -6  -2 -13    6.13    0.43
   6  -2  13    6.34    0.57
   6  -2  13    5.51    0.59
   6   2  13    6.64    0.45
   6   2  13    6.48    0.57
  -7  -2 -13    3.78    0.38
   7  -2  13    3.59    0.57
   7  -2  13    3.80    0.56
   7   2  13    4.38    0.53
   7   2  13    3.25    0.42
   8  -2  13    4.24    0.60
   8   2  13    4.36    0.69
   9  -2  13    0.57    0.48
   9  -2  13   -0.55    0.45
   9   2  13   -0.09    0.40
  10  -3 -13    2.13    0.43
  10   3 -13    2.87    0.54
   9  -3 -13    0.79    0.30
   9   3 -13    1.17    0.41
   9   3 -13    1.13    0.42
   8  -3 -13    6.56    0.54
   8   3 -13    7.38    0.66
   8   3 -13    6.79    0.68
   7  -3 -13   10.05    0.66
   7   3 -13    9.50    0.71
   7   3 -13    9.56    0.73
   6  -3 -13    9.01    0.58
   6   3 -13    8.04    0.62
   6   3 -13    8.55    0.63
   5  -3 -13    0.23    0.16
   5   3 -13    0.23    0.19
   5   3 -13    0.13    0.18
   4  -3 -13   13.04    0.70
  -4  -3  13   11.70    0.71
   4   3 -13   13.47    0.75
   4   3 -13   12.54    0.74
  -3  -3  13    1.34    0.21
   3  -3 -13    0.92    0.18
   3   3 -13    1.08    0.21
   3   3 -13    1.17    0.23
   2  -3 -13   36.10    1.75
  -2  -3  13   35.43    1.75
   2   3 -13   37.11    1.78
   2   3 -13   37.27    1.78
   1  -3 -13    0.50    0.12
  -1  -3  13    0.63    0.09
  -1  -3  13    0.45    0.12
  -1   3  13    0.64    0.13
   1   3 -13    0.66    0.14
   0  -3 -13    2.37    0.21
   0  -3  13    2.62    0.22
   0  -3  13    2.14    0.21
   0   3 -13    1.67    0.20
   0   3  13    2.30    0.23
   0   3  13    2.09    0.20
   1  -3  13    0.06    0.12
   1  -3  13    0.06    0.10
  -1  -3 -13    0.04    0.10
   1   3  13    0.25    0.11
   1   3  13    0.13    0.10
  -1   3 -13    0.05    0.08
  -2  -3 -13    7.86    0.45
   2  -3  13    7.60    0.52
   2  -3  13    8.72    0.47
  -2   3 -13    7.45    0.41
   2   3  13    8.54    0.50
  -2   3 -13    8.11    0.41
   2   3  13    8.56    0.43
  -3  -3 -13    2.76    0.24
   3  -3  13    2.90    0.35
   3  -3  13    3.27    0.27
   3   3  13    2.62    0.20
   3   3  13    2.75    0.31
   4  -3  13    0.67    0.18
   4  -3  13    0.63    0.23
   5  -3  13   47.27    2.29
   5  -3  13   43.82    2.37
  -5  -3 -13   45.70    2.23
   5   3  13   47.10    2.33
   5   3  13   50.90    2.21
  -6  -3 -13    1.23    0.22
   6  -3  13    1.30    0.35
   6  -3  13    1.04    0.31
   6   3  13    0.75    0.25
   6   3  13    1.26    0.21
   7  -3  13    2.03    0.41
  -7  -3 -13    2.53    0.31
   7  -3  13    2.40    0.39
   7   3  13    2.29    0.30
   7   3  13    2.13    0.38
  -8  -3 -13    2.79    0.38
   8  -3  13    2.47    0.49
   8  -3  13    3.05    0.47
   8   3  13    2.56    0.45
   9  -3  13    1.62    0.53
   9  -3  13    1.14    0.51
   9   3  13    1.66    0.47
  10  -4 -13    0.52    0.36
  10   4 -13    0.70    0.46
  10   4 -13    0.02    0.46
   9  -4 -13    1.65    0.33
   9   4 -13    0.98    0.47
   9   4 -13    1.43    0.44
   8  -4 -13    3.76    0.45
   8   4 -13    3.64    0.50
   8   4 -13    4.22    0.61
   7  -4 -13   28.35    1.50
   7   4 -13   30.31    1.59
   7   4 -13   29.21    1.59
   6  -4 -13   11.04    0.68
   6   4 -13   11.82    0.78
   6   4 -13   11.34    0.75
   5  -4 -13    6.24    0.42
   5   4 -13    5.37    0.49
   5   4 -13    4.48    0.47
   4  -4 -13   -0.02    0.13
  -4  -4  13    0.22    0.17
   4   4 -13    0.28    0.18
   4   4 -13    0.27    0.18
   3  -4 -13   32.12    1.58
  -3  -4  13   31.50    1.59
   3   4 -13   32.88    1.63
   3   4 -13   33.66    1.64
  -2  -4  13    4.33    0.30
   2   4 -13    3.11    0.33
   1  -4 -13    0.39    0.11
  -1  -4  13    0.51    0.09
  -1  -4  13    0.50    0.13
   1   4 -13    0.38    0.14
   1   4 -13    0.24    0.13
   0  -4  13    1.16    0.18
   0  -4  13    1.61    0.19
   0  -4 -13    1.17    0.18
   0   4  13    1.80    0.22
   0   4 -13    1.23    0.19
  -1  -4 -13    2.56    0.23
   1  -4  13    2.88    0.24
   1  -4  13    2.51    0.27
   1   4  13    2.74    0.25
  -1   4 -13    2.80    0.21
   1   4  13    2.89    0.21
  -2  -4 -13    5.49    0.36
   2  -4  13    5.15    0.42
   2  -4  13    5.35    0.37
   2   4  13    5.82    0.32
  -2   4 -13    5.28    0.31
   2   4  13    6.14    0.39
  -2   4 -13    5.75    0.30
  -3  -4 -13   11.26    0.61
   3  -4  13   11.10    0.64
   3  -4  13   11.17    0.69
   3   4  13   11.09    0.66
   3   4  13   11.69    0.56
  -4  -4 -13    0.97    0.18
   4  -4  13    0.54    0.25
   4  -4  13    0.95    0.22
   4   4  13    0.96    0.12
   4   4  13    0.96    0.22
   5  -4  13    0.38    0.26
   5  -4  13    0.67    0.27
  -5  -4 -13    0.54    0.20
   5   4  13    0.46    0.22
   6  -4  13    1.00    0.32
   6  -4  13    0.96    0.34
  -6  -4 -13    1.18    0.25
   6   4  13    1.01    0.18
   6   4  13    1.03    0.29
   7  -4  13    1.69    0.38
   7  -4  13    1.73    0.38
  -7  -4 -13    1.70    0.31
   7   4  13    1.78    0.33
   8  -4  13    0.05    0.43
   8  -4  13   -0.02    0.39
  -8  -4 -13    0.21    0.30
   8   4  13   -0.24    0.34
   9  -4  13    2.24    0.60
   9  -4  13    2.95    0.56
   9   4  13    2.64    0.50
  10  -5 -13   -1.11    0.77
  10  -5 -13    0.29    0.37
  10   5 -13   -0.15    0.54
  10   5 -13    0.42    0.50
   9  -5 -13    0.22    0.28
   9   5 -13    0.14    0.40
   9   5 -13   -0.44    0.42
   8  -5 -13    3.82    0.44
   8   5 -13    4.43    0.68
   8   5 -13    3.73    0.51
   7  -5 -13    0.32    0.22
   7   5 -13    0.67    0.33
   6  -5 -13    7.02    0.49
   6   5 -13    7.47    0.63
   6   5 -13    7.25    0.61
   5  -5 -13   33.68    1.67
  -5  -5  13   33.61    1.67
   5   5 -13   34.43    1.74
   5   5 -13   32.71    1.73
  -4  -5  13    1.30    0.21
  -4  -5  13    1.14    0.22
   4  -5 -13    1.35    0.19
  -3  -5  13    0.34    0.16
   3  -5 -13    0.49    0.14
  -3  -5  13    0.66    0.18
  -2  -5  13    5.70    0.37
   2  -5 -13    5.25    0.37
   2   5 -13    5.66    0.42
   2   5 -13    5.58    0.42
  -1  -5  13   18.24    0.88
  -1  -5  13   18.04    0.93
   1  -5 -13   18.45    0.93
   1   5 -13   18.28    0.95
   1   5 -13   19.10    0.95
   0  -5  13   12.44    0.66
   0  -5  13   12.62    0.66
   0  -5 -13   12.76    0.67
   0   5 -13   12.36    0.67
   0   5  13   12.73    0.68
   0   5 -13   12.52    0.67
  -1  -5 -13    4.27    0.29
   1  -5  13    3.49    0.27
   1  -5  13    2.97    0.31
   1   5  13    3.59    0.31
  -1   5 -13    3.43    0.25
   2  -5  13   29.53    1.41
  -2  -5 -13   29.05    1.40
   2  -5  13   25.99    1.44
  -2   5 -13   28.96    1.34
  -2   5 -13   29.41    1.34
   2   5  13   28.82    1.42
  -3  -5 -13    2.06    0.25
   3  -5  13    2.04    0.28
   3  -5  13    1.53    0.26
   3   5  13    1.86    0.28
   3   5  13    1.94    0.15
   4  -5  13   -0.16    0.23
  -4  -5 -13    0.22    0.17
   4  -5  13   -0.17    0.21
   4   5  13    0.34    0.20
   5  -5  13    5.35    0.64
   5  -5  13    6.51    0.59
  -5  -5 -13    6.75    0.50
   5   5  13    6.98    0.54
   5   5  13    6.42    0.37
  -6  -5 -13    0.91    0.26
   6  -5  13    0.99    0.35
   6  -5  13    1.83    0.36
   6   5  13    1.53    0.28
  -7  -5 -13    0.85    0.27
   7  -5  13   -0.14    0.36
   7  -5  13    0.67    0.37
   7   5  13    0.55    0.28
   8  -5  13    0.40    0.43
  -8  -5 -13    0.74    0.29
   8  -5  13    0.05    0.43
   8   5  13    0.81    0.37
   9  -5  13    3.59    0.64
   9  -5  13    3.60    0.64
  10  -6 -13    0.49    0.38
  10  -6 -13    0.14    0.80
  10   6 -13    0.29    0.55
  10   6 -13    0.25    0.60
   9  -6 -13    3.34    0.50
   9   6 -13    2.68    0.59
   9   6 -13    2.64    0.55
   8  -6 -13    3.04    0.43
   8   6 -13    2.38    0.47
   8   6 -13    2.92    0.48
  -7  -6  13    0.67    0.26
   7  -6 -13    0.14    0.22
   7   6 -13    0.20    0.32
   7   6 -13    0.66    0.33
   6  -6 -13    0.33    0.20
  -6  -6  13    0.11    0.21
  -5  -6  13    0.03    0.18
  -5  -6  13    0.11    0.21
   5  -6 -13    0.26    0.16
  -4  -6  13   13.20    0.75
  -4  -6  13   12.69    0.75
   4  -6 -13   12.83    0.72
  -3  -6  13    8.47    0.52
   3  -6 -13    8.48    0.51
  -3  -6  13    8.66    0.54
  -2  -6  13    1.78    0.23
  -2  -6  13    1.66    0.26
   2  -6 -13    1.79    0.22
   1  -6 -13    0.43    0.14
  -1  -6  13    0.42    0.09
  -1  -6  13    0.26    0.13
  -1  -6  13    0.48    0.13
   0  -6  13   14.08    0.71
   0  -6 -13   13.85    0.73
   0  -6  13   13.08    0.72
   0   6 -13   12.74    0.72
   0   6 -13   13.67    0.72
   0   6  13   14.18    0.75
  -1  -6 -13   13.29    0.71
   1  -6  13   12.47    0.73
   1  -6  13   14.26    0.71
   1   6  13   13.49    0.73
  -1   6 -13   12.93    0.68
   2  -6  13    1.01    0.19
   2  -6  13    0.66    0.19
  -2  -6 -13    1.13    0.19
  -2   6 -13    0.68    0.10
  -3  -6 -13   12.14    0.70
   3  -6  13   11.60    0.71
   3   6  13   12.98    0.72
  -4  -6 -13   19.84    1.05
   4  -6  13   19.57    1.08
   4   6  13   19.41    1.07
   5  -6  13    2.11    0.35
  -5  -6 -13    1.96    0.29
   5   6  13    3.11    0.37
  -6  -6 -13    7.21    0.55
   6  -6  13    8.52    0.69
   6   6  13    7.38    0.61
   7  -6  13   -0.30    0.36
  -7  -6 -13   -0.21    0.25
   7   6  13    0.39    0.29
   8  -6  13    2.84    0.51
   8  -6  13    1.53    0.49
  -8  -6 -13    2.07    0.37
   8   6  13    1.89    0.39
   9  -6  13    0.98    0.57
   9  -6  13   -0.59    0.50
   9   6  13    0.97    0.42
   9  -7 -13   -0.36    0.30
   9  -7 -13    0.24    0.67
   9   7 -13   -0.77    0.51
   9   7 -13   -0.86    0.46
   8  -7 -13    0.36    0.24
  -8  -7  13    0.91    0.31
   8   7 -13    0.16    0.39
   8   7 -13    0.30    0.40
  -7  -7  13    0.10    0.24
   7  -7 -13    0.15    0.21
   6  -7 -13    4.18    0.38
  -6  -7  13    3.52    0.42
  -5  -7  13    8.97    0.58
  -5  -7  13    8.25    0.59
   5  -7 -13    8.21    0.54
  -4  -7  13  113.66    5.39
  -4  -7  13  117.88    5.39
   4  -7 -13  114.54    5.37
  -3  -7  13    2.03    0.31
  -3  -7  13    1.92    0.27
   3  -7 -13    2.30    0.24
   2  -7 -13    2.63    0.26
  -2  -7  13    2.57    0.31
  -2  -7  13    2.76    0.28
  -1  -7  13    4.89    0.33
  -1  -7  13    4.14    0.28
   1  -7 -13    4.96    0.34
  -1  -7  13    4.13    0.34
   0  -7  13    0.38    0.15
   0  -7  13    0.37    0.15
   0  -7 -13    0.44    0.14
   0  -7  13    0.35    0.12
   0   7  13    0.69    0.18
  -1  -7 -13    2.03    0.28
   1  -7  13    2.30    0.27
   1   7  13    2.30    0.29
  -1   7 -13    1.87    0.24
  -1   7 -13    2.19    0.24
  -2  -7 -13   23.40    1.16
   2  -7  13   24.26    1.17
   2   7  13   23.13    1.16
  -2   7 -13   19.83    1.06
  -2   7 -13   23.01    1.08
  -3  -7 -13    1.61    0.25
   3  -7  13    1.53    0.28
   3   7  13    1.96    0.31
   4  -7  13   11.73    0.73
  -4  -7 -13   11.29    0.68
   4   7  13   10.54    0.68
   5  -7  13    6.03    0.58
  -5  -7 -13    7.04    0.51
   5   7  13    6.77    0.52
  -6  -7 -13    5.44    0.52
   6  -7  13    5.27    0.61
   6   7  13    6.41    0.54
  -7  -7 -13    0.25    0.29
   7  -7  13    0.29    0.41
   7   7  13    0.36    0.28
   8  -7  13    2.48    0.53
  -8  -7 -13    1.46    0.37
   8   7  13    2.00    0.39
  -9  -7 -13    0.83    0.43
   9  -7  13    1.08    0.60
   9  -7  13    1.95    0.62
   9   7  13    1.31    0.44
   9  -8 -13    0.95    0.35
   9  -8 -13    0.32    0.68
   9   8 -13    0.23    0.55
   9   8 -13    0.17    0.55
  -8  -8  13    9.38    0.72
   8  -8 -13    7.38    0.98
   8  -8 -13    7.78    0.62
  -7  -8  13    1.94    0.33
   7  -8 -13    1.25    0.26
   6  -8 -13    0.85    0.22
  -6  -8  13    1.02    0.26
   5  -8 -13   42.47    2.07
  -5  -8  13   41.20    2.10
  -5  -8  13   44.08    2.11
  -4  -8  13    4.32    0.38
  -4  -8  13    3.54    0.39
   4  -8 -13    3.91    0.34
   3  -8 -13    6.17    0.42
  -3  -8  13    6.14    0.45
  -3  -8  13    5.87    0.45
  -2  -8  13   16.56    0.87
  -2  -8  13   16.91    0.86
   2  -8 -13   14.67    0.84
  -1  -8  13    0.21    0.16
  -1  -8  13    0.34    0.11
   1  -8 -13    0.31    0.14
  -1  -8  13    0.61    0.17
   0  -8  13    5.33    0.41
   0  -8  13    5.92    0.38
   0  -8  13    6.51    0.41
   0  -8 -13    6.17    0.41
   1  -8  13    4.71    0.32
  -1  -8 -13    5.71    0.38
   1  -8  13    5.64    0.40
   1   8  13    4.73    0.42
   2  -8  13   28.31    1.36
  -2  -8 -13   26.49    1.34
   2   8  13   26.48    1.35
  -2   8 -13   25.15    1.27
   3  -8  13    7.53    0.54
  -3  -8 -13    6.74    0.50
   3   8  13    7.15    0.51
   4  -8  13    0.53    0.26
  -4  -8 -13    0.35    0.20
   4   8  13    0.35    0.20
  -5  -8 -13   -0.16    0.21
   5  -8  13   -0.06    0.28
   5   8  13    0.41    0.21
   6  -8  13    0.71    0.37
  -6  -8 -13    0.46    0.28
   6   8  13    0.86    0.26
   7  -8  13    0.39    0.39
  -7  -8 -13   -0.34    0.29
   7   8  13   -0.51    0.26
   8  -8  13    0.57    0.49
  -8  -8 -13    0.38    0.37
   8   8  13   -0.36    0.32
   9  -8  13    0.04    0.60
  -9  -8 -13    0.61    0.44
   9  -8  13    0.54    0.65
   9   8  13    0.05    0.38
   9  -9 -13    8.53    0.74
  -9  -9  13   10.26    0.83
   9  -9 -13    9.90    1.30
   8  -9 -13    1.53    0.62
  -8  -9  13    0.70    0.38
   8  -9 -13    0.76    0.28
   7  -9 -13   -0.23    0.22
   7  -9 -13    0.19    0.48
  -7  -9  13    0.71    0.31
   6  -9 -13    1.01    0.24
  -6  -9  13    1.12    0.30
   5  -9 -13    0.10    0.19
  -5  -9  13    0.15    0.22
  -5  -9  13    0.00    0.23
   4  -9 -13   26.58    1.36
  -4  -9  13   26.45    1.38
  -4  -9  13   28.01    1.40
  -3  -9  13    2.34    0.36
   3  -9 -13    2.77    0.30
  -3  -9  13    2.76    0.35
   2  -9 -13   26.33    1.35
  -2  -9  13   27.21    1.37
  -2  -9  13   27.64    1.36
  -1  -9  13    0.58    0.18
   1  -9 -13    0.43    0.16
   0  -9  13    1.13    0.22
   0  -9 -13    0.86    0.18
   0  -9  13    0.97    0.18
   1  -9  13   17.82    0.94
   1  -9  13   17.76    0.88
  -1  -9 -13   18.89    0.95
  -1  -9 -13   15.89    0.90
   1   9  13   17.80    0.97
   2  -9  13   26.18    1.28
  -2  -9 -13   25.67    1.27
  -2   9 -13   23.68    1.20
  -2   9 -13   22.96    1.20
   2   9  13   25.27    1.28
   3  -9  13    7.44    0.56
  -3  -9 -13    7.40    0.53
   3   9  13    6.17    0.51
  -4  -9 -13   23.20    1.24
   4  -9  13   23.14    1.27
   4   9  13   23.44    1.23
  -5  -9 -13    4.53    0.48
   5  -9  13    5.88    0.57
   5   9  13    5.04    0.47
   6  -9  13    4.83    0.64
  -6  -9 -13    4.84    0.54
   6   9  13    4.82    0.50
   7  -9  13    1.29    0.48
  -7  -9 -13    1.38    0.36
   7   9  13    0.89    0.31
   8  -9  13   -0.34    0.51
  -8  -9 -13    0.83    0.40
   8   9  13   -0.26    0.31
   9 -10 -13    3.89    0.49
   9 -10 -13    2.54    0.91
  -9 -10  13    4.70    0.61
   8 -10 -13    2.80    0.70
  -8 -10  13    2.28    0.45
   8 -10 -13    2.50    0.36
   7 -10 -13    0.16    0.55
   7 -10 -13    0.17    0.22
  -7 -10  13    0.27    0.31
   6 -10 -13    0.28    0.21
   6 -10 -13    0.16    0.44
  -6 -10  13   -0.32    0.25
  -5 -10  13    1.06    0.26
   5 -10 -13    1.17    0.46
   5 -10 -13    1.48    0.24
  -5 -10  13    1.30    0.27
   4 -10 -13    7.64    0.84
  -4 -10  13    7.50    0.54
   4 -10 -13    7.81    0.53
  -4 -10  13    7.92    0.58
   3 -10 -13   14.78    1.02
  -3 -10  13   15.69    0.86
  -3 -10  13   16.27    0.87
   3 -10 -13   15.36    0.85
   2 -10 -13   80.19    3.80
   2 -10 -13   79.05    3.89
  -2 -10  13   82.44    3.81
  -2 -10  13   81.08    3.80
   1 -10 -13   11.01    0.66
   1 -10 -13   11.21    0.77
  -1 -10  13   12.90    0.69
  -1 -10  13   12.18    0.67
  -1 -10  13   10.20    0.61
   0 -10 -13    4.74    0.38
   0 -10  13    4.92    0.39
   0 -10 -13    5.01    0.46
   0 -10  13    4.68    0.37
  -1 -10 -13    4.88    0.39
   1 -10  13    3.70    0.32
   1 -10  13    4.12    0.41
  -1 -10 -13    3.84    0.35
   2 -10  13   29.21    1.40
  -2 -10 -13   27.64    1.40
   2 -10  13   25.71    1.28
   2  10  13   25.52    1.39
  -3 -10 -13    3.04    0.40
   3 -10  13    3.57    0.41
   3  10  13    2.40    0.37
  -4 -10 -13    1.70    0.31
   4 -10  13    1.91    0.34
   4  10  13    1.59    0.28
  -5 -10 -13   -0.17    0.26
   5 -10  13    0.52    0.32
   5  10  13   -0.04    0.21
  -6 -10 -13    3.47    0.52
   6 -10  13    4.53    0.68
   6  10  13    2.61    0.38
   7 -10  13   -0.05    0.47
  -7 -10 -13   -0.33    0.34
   7  10  13   -0.24    0.26
  -8 -10 -13    0.49    0.44
   8 -10  13    1.77    0.63
   8  10  13    0.97    0.36
   8 -11 -13   -0.40    0.62
  -8 -11  13    0.81    0.41
   8 -11 -13    0.46    0.32
   7 -11 -13    1.03    0.28
  -7 -11  13    1.01    0.37
   7 -11 -13    1.62    0.60
  -6 -11  13    5.01    0.52
   6 -11 -13    6.17    0.82
   6 -11 -13    4.58    0.45
  -6 -11  13    5.07    0.54
   5 -11 -13    1.01    0.24
   5 -11 -13    1.75    0.49
  -5 -11  13    1.29    0.28
  -5 -11  13    0.66    0.28
  -4 -11  13    0.72    0.23
  -4 -11  13    0.85    0.26
   4 -11 -13    0.70    0.43
   4 -11 -13    0.51    0.21
  -3 -11  13    6.79    0.49
  -3 -11  13    6.79    0.52
   3 -11 -13    6.05    0.72
   3 -11 -13    6.47    0.47
   2 -11 -13   29.58    1.45
  -2 -11  13   29.49    1.45
   2 -11 -13   26.87    1.55
  -2 -11  13   28.62    1.46
   1 -11 -13   19.83    1.06
   1 -11 -13   19.26    1.13
  -1 -11  13   20.57    1.07
  -1 -11  13   20.81    1.06
   0 -11  13    5.16    0.41
   0 -11  13    5.35    0.41
   0 -11 -13    4.39    0.46
   0 -11 -13    4.73    0.43
   1 -11  13    1.91    0.29
  -1 -11 -13    2.08    0.27
  -2 -11 -13   25.42    1.34
   2 -11  13   28.26    1.35
   2 -11  13   23.96    1.23
   2  11  13   24.27    1.33
   3 -11  13   11.10    0.71
  -3 -11 -13   10.45    0.71
   3  11  13    9.82    0.68
  -4 -11 -13    0.66    0.29
   4 -11  13    0.58    0.31
  -5 -11 -13    1.24    0.34
   5 -11  13    1.87    0.42
   5  11  13    1.15    0.28
   6 -11  13    6.72    0.73
  -6 -11 -13    4.52    0.60
   6  11  13    5.16    0.55
  -7 -11 -13   -0.58    0.37
   7 -11  13   -0.47    0.48
   7  11  13   -0.52    0.27
  -8 -11 -13    6.44    0.86
   8 -11  13    6.05    0.81
   8  11  13    5.52    0.70
  -8 -12  13    0.31    0.42
   8 -12 -13    0.32    0.68
   8 -12 -13    0.09    0.34
   7 -12 -13   -0.31    0.27
  -7 -12  13   -0.03    0.37
   7 -12 -13    0.97    0.57
   6 -12 -13   -0.15    0.23
  -6 -12  13   -0.54    0.31
  -6 -12  13   -0.35    0.28
  -5 -12  13    1.51    0.30
   5 -12 -13    1.64    0.52
   5 -12 -13    1.35    0.26
  -5 -12  13    1.29    0.32
  -4 -12  13    0.89    0.28
   4 -12 -13    0.56    0.44
  -4 -12  13    0.85    0.26
   4 -12 -13    0.84    0.23
   3 -12 -13    7.75    0.53
  -3 -12  13    7.06    0.57
  -3 -12  13    7.73    0.54
   3 -12 -13    7.41    0.81
   2 -12 -13    0.69    0.35
  -2 -12  13    1.15    0.25
   2 -12 -13    1.17    0.23
  -2 -12  13    1.54    0.26
  -1 -12  13   12.19    0.70
   1 -12 -13   10.48    0.77
   1 -12 -13   11.11    0.70
  -1 -12  13   12.46    0.71
   0 -12 -13    2.76    0.38
   0 -12  13    2.97    0.34
   0 -12  13    2.47    0.32
   0 -12 -13    1.98    0.32
   1 -12  13   17.12    0.91
  -1 -12 -13   16.32    0.93
   1 -12  13   15.26    0.85
   2 -12  13   17.89    0.99
   2 -12  13   16.80    0.89
  -2 -12 -13   18.15    1.01
   3 -12  13   29.46    1.52
  -3 -12 -13   28.60    1.52
   3  12  13   28.02    1.50
   4 -12  13    4.65    0.54
  -4 -12 -13    4.47    0.53
   4  12  13    4.14    0.51
   5 -12  13    0.72    0.38
  -5 -12 -13    0.82    0.32
   5  12  13    0.54    0.30
   6 -12  13    0.63    0.47
  -6 -12 -13    0.60    0.37
   6  12  13    0.49    0.29
  -7 -12 -13    0.44    0.42
   7 -12  13    0.94    0.54
   7  12  13    0.95    0.33
   7 -13 -13    0.19    0.30
  -7 -13  13    0.80    0.40
   7 -13 -13    0.65    0.64
   6 -13 -13   -0.30    0.59
  -6 -13  13   -0.01    0.32
  -6 -13  13   -0.13    0.32
   6 -13 -13   -0.45    0.25
   5 -13 -13    2.15    0.31
  -5 -13  13    2.51    0.37
   5 -13 -13    2.27    0.57
  -5 -13  13    2.14    0.35
  -4 -13  13    0.29    0.26
   4 -13 -13    0.33    0.44
  -4 -13  13    0.41    0.24
   4 -13 -13    0.06    0.22
  -3 -13  13    8.27    0.62
   3 -13 -13    9.16    0.61
   3 -13 -13    7.17    0.88
  -3 -13  13    8.51    0.59
  -2 -13  13    4.91    0.47
   2 -13 -13    4.29    0.61
   2 -13 -13    5.38    0.46
  -2 -13  13    4.86    0.44
  -1 -13  13    1.11    0.25
  -1 -13  13    1.51    0.27
   1 -13 -13    1.16    0.33
   1 -13 -13    0.58    0.25
   0 -13 -13   -0.07    0.26
   0 -13  13    0.14    0.23
   0 -13 -13    0.39    0.23
   0 -13  13   -0.15    0.23
   1 -13  13    5.95    0.48
   1 -13  13    6.77    0.53
  -1 -13 -13    6.16    0.53
   2 -13  13   10.14    0.68
  -2 -13 -13    9.60    0.71
   2 -13  13    8.58    0.57
  -3 -13 -13    2.17    0.37
   3 -13  13    3.01    0.46
   3  13  13    1.62    0.32
   4 -13  13    2.94    0.44
  -4 -13 -13    2.40    0.41
   4  13  13    1.94    0.35
  -5 -13 -13    0.82    0.38
   5 -13  13    0.66    0.44
   5  13  13    0.33    0.27
   6 -13  13   -0.44    0.47
  -6 -13 -13    0.57    0.39
  -7 -13 -13    0.04    0.48
   7 -13  13    0.57    0.60
   7  13  13   -0.06    0.34
  -7 -14  13    3.19    0.50
   7 -14 -13    2.27    0.43
   7 -14 -13    2.48    0.75
   6 -14 -13    2.26    0.63
   6 -14 -13    1.22    0.34
  -6 -14  13    1.29    0.41
  -6 -14  13    0.26    0.40
   5 -14 -13    0.20    0.26
   5 -14 -13    0.26    0.50
  -5 -14  13   -0.13    0.31
  -5 -14  13   -0.02    0.31
   4 -14 -13   -0.04    0.24
  -4 -14  13    0.41    0.25
   4 -14 -13    0.06    0.47
  -4 -14  13   -0.24    0.27
  -3 -14  13    0.64    0.29
   3 -14 -13    0.46    0.49
   3 -14 -13    0.29    0.26
  -3 -14  13    0.85    0.26
  -2 -14  13    0.12    0.26
   2 -14 -13    0.36    0.26
  -2 -14  13    0.06    0.23
   2 -14 -13   -0.12    0.37
   1 -14 -13    0.15    0.27
  -1 -14  13   -0.03    0.23
  -1 -14  13    0.11    0.23
   1 -14 -13    0.53    0.32
   0 -14  13    3.01    0.40
   0 -14 -13    2.98    0.44
   0 -14  13    3.73    0.42
   0 -14 -13    2.65    0.43
   1 -14  13    0.68    0.27
   1 -14  13    0.54    0.30
  -1 -14 -13    0.58    0.28
  -2 -14 -13    5.99    0.59
   2 -14  13    6.63    0.58
  -3 -14 -13    2.13    0.39
   4 -14  13    4.28    0.66
  -4 -14 -13    4.43    0.53
   4  14  13    3.02    0.49
   5 -14  13    0.39    0.44
  -5 -14 -13    0.33    0.39
   5  14  13   -0.20    0.30
   6 -14  13    0.19    0.50
  -6 -14 -13    0.82    0.48
   6  14  13   -0.34    0.31
   6 -15 -13   -0.30    0.33
  -6 -15  13    0.60    0.38
  -6 -15  13    0.12    0.40
   6 -15 -13   -0.52    0.67
   5 -15 -13    0.13    0.29
  -5 -15  13    0.54    0.38
  -5 -15  13    0.33    0.36
   5 -15 -13    1.16    0.62
   4 -15 -13    1.83    0.57
   4 -15 -13    2.00    0.33
  -4 -15  13    1.95    0.36
  -4 -15  13    1.02    0.35
  -3 -15  13    2.64    0.39
  -3 -15  13    3.02    0.43
   3 -15 -13    2.30    0.37
   3 -15 -13    2.62    0.56
   2 -15 -13   -0.24    0.44
  -2 -15  13    0.07    0.25
  -2 -15  13   -0.01    0.28
   2 -15 -13    0.35    0.28
   1 -15 -13   14.47    0.99
   1 -15 -13   16.70    0.99
  -1 -15  13   17.24    0.94
  -1 -15  13   16.72    0.96
   0 -15  13   -0.39    0.26
   0 -15  13   -0.29    0.25
   0 -15 -13   -0.20    0.28
   1 -15  13   10.33    0.69
   1 -15  13    8.03    0.70
  -1 -15 -13   10.53    0.75
  -2 -15 -13    0.12    0.33
   2 -15  13    0.15    0.28
  -3 -15 -13    1.87    0.43
   3 -15  13    2.02    0.42
  -4 -15 -13    3.98    0.56
   4 -15  13    4.97    0.69
  -5 -15 -13    0.28    0.45
   5 -15  13   -0.19    0.45
   6 -15  13    0.04    0.59
  -6 -15 -13    0.12    0.51
   6 -16 -13    3.61    0.86
  -6 -16  13    4.79    0.71
  -6 -16  13    3.98    0.57
   6 -16 -13    3.17    0.49
   5 -16 -13    0.84    0.66
  -5 -16  13    0.33    0.43
  -5 -16  13    0.73    0.39
   5 -16 -13    0.97    0.36
   4 -16 -13    0.28    0.33
   4 -16 -13    0.08    0.59
  -4 -16  13    1.05    0.35
  -4 -16  13    0.51    0.37
   3 -16 -13    3.47    0.52
  -3 -16  13    3.62    0.50
  -3 -16  13    4.69    0.59
   3 -16 -13    3.50    0.63
  -2 -16  13    0.70    0.28
   2 -16 -13    0.57    0.51
  -2 -16  13    0.50    0.34
   2 -16 -13    1.13    0.33
   1 -16 -13    0.06    0.31
  -1 -16  13    0.20    0.27
  -1 -16  13   -0.03    0.30
   1 -16 -13   -0.35    0.54
   0 -16  13    6.04    0.61
   0 -16 -13    5.59    0.61
   0 -16  13    6.25    0.55
  -1 -16 -13    1.13    0.39
   1 -16  13    1.70    0.34
   1 -16  13    1.15    0.39
   2 -16  13   -0.15    0.33
  -2 -16 -13    0.11    0.35
   3 -16  13    4.18    0.60
  -3 -16 -13    3.70    0.55
   4 -16  13    5.37    0.76
  -4 -16 -13    6.08    0.81
  -5 -16 -13    0.76    0.48
   5 -16  13   -0.39    0.48
  -5 -17  13    0.36    0.45
   5 -17 -13   -0.31    0.38
  -5 -17  13   -0.36    0.43
   5 -17 -13   -0.34    0.71
   4 -17 -13   -0.42    0.62
   4 -17 -13    0.11    0.39
  -4 -17  13    0.35    0.43
  -4 -17  13    0.76    0.38
   3 -17 -13    0.25    0.37
   3 -17 -13   -0.54    0.56
  -3 -17  13    0.65    0.34
  -3 -17  13    1.29    0.41
  -2 -17  13    0.75    0.33
  -2 -17  13    1.60    0.40
   2 -17 -13    0.92    0.38
   2 -17 -13    0.76    0.53
   1 -17 -13   -0.16    0.37
  -1 -17  13   -0.61    0.35
  -1 -17  13   -0.25    0.29
   0 -17 -13    4.12    0.54
   0 -17  13    4.20    0.50
   0 -17  13    4.16    0.54
  -1 -17 -13    0.31    0.39
   1 -17  13   -0.48    0.31
  -2 -17 -13    2.57    0.52
   2 -17  13    3.57    0.54
   3 -17  13    0.91    0.42
  -3 -17 -13    1.25    0.48
  -4 -17 -13    2.74    0.58
   4 -17  13    2.98    0.56
   4 -18 -13    5.69    0.74
  -4 -18  13    5.32    0.67
   4 -18 -13    5.12    0.86
  -4 -18  13    7.25    0.78
  -3 -18  13    0.69    0.45
  -3 -18  13    0.14    0.38
   3 -18 -13    0.74    0.66
   3 -18 -13    0.72    0.41
  -2 -18  13    0.20    0.44
   2 -18 -13   -0.53    0.38
  -2 -18  13    0.20    0.35
  -1 -18  13    0.65    0.43
   1 -18 -13    1.23    0.43
  -1 -18  13    0.39    0.35
   0 -18  13    0.40    0.34
   0 -18 -13    0.54    0.45
   0 -18  13    0.49    0.42
   1 -18  13    0.11    0.37
  -1 -18 -13   -0.25    0.41
   2 -18  13    3.34    0.52
  -2 -18 -13    2.65    0.59
  -3 -18 -13    0.40    0.52
   3 -18  13    0.65    0.45
  -2 -19  13   -0.37    0.52
  -2 -19  13    0.39    0.39
   2 -19 -13    0.06    0.44
  -1 -19  13    1.16    0.42
  -1 -19  13    1.15    0.54
   1 -19 -13    0.94    0.45
   0 -19 -13    9.08    0.91
   0 -19  13   10.94    0.84
  -1 -19 -13    1.82    0.53
   1 -19  13    1.39    0.46
  -2 -19 -13    1.33    0.58
   2 -19  13    1.02    0.47
  10   0 -14   15.36    1.07
   9   0 -14   -0.49    0.32
   8   0 -14    0.37    0.28
   7   0 -14    0.31    0.26
   6   0 -14   52.68    2.57
   5   0 -14    0.37    0.17
   4   0 -14    2.69    0.30
   3   0 -14   -0.17    0.13
   2   0 -14    3.83    0.31
  -2   0  14    3.76    0.29
  -1   0  14    0.38    0.11
  -1   0  14    0.24    0.13
   0   0 -14  214.99   10.10
   0   0  14  221.42   10.10
   0   0  14  223.46   10.11
  -1   0 -14    0.12    0.08
   1   0  14    0.08    0.10
   1   0  14    0.07    0.11
   2   0  14    6.83    0.46
   2   0  14    7.23    0.40
  -2   0 -14    6.76    0.38
   3   0  14    1.66    0.21
   3   0  14    1.17    0.22
  -3   0 -14    1.62    0.16
   4   0  14   13.29    0.82
  -4   0 -14   12.19    0.66
   4   0  14   13.91    0.70
  -5   0 -14    0.09    0.13
   5   0  14    0.17    0.21
   5   0  14   -0.23    0.18
   6   0  14    2.52    0.35
  -6   0 -14    2.22    0.25
   6   0  14    1.46    0.32
   7   0  14   -0.04    0.27
   7   0  14    0.08    0.29
   8   0  14    0.11    0.37
   8   0  14    0.47    0.38
   9   0  14    0.49    0.46
  10  -1 -14    0.82    0.40
  10   1 -14   -0.45    0.41
   9  -1 -14    0.62    0.32
   9   1 -14    0.65    0.37
   8  -1 -14    3.23    0.48
   8   1 -14    3.85    0.50
   7  -1 -14    2.45    0.35
   7   1 -14    3.49    0.45
   6  -1 -14   41.35    2.03
   6   1 -14   40.40    2.04
   5   1 -14    0.45    0.20
   4  -1 -14   10.75    0.63
   4   1 -14   10.51    0.64
  -3  -1  14   13.15    0.74
   3  -1 -14   14.45    0.75
   3   1 -14   13.11    0.75
   2  -1 -14    0.54    0.14
  -2  -1  14    0.43    0.13
  -2   1  14    0.17    0.13
   2   1 -14    0.47    0.14
  -1  -1  14    5.30    0.31
   1  -1 -14    4.49    0.32
   1   1 -14    4.55    0.32
  -1   1  14    5.29    0.33
  -1   1  14    4.96    0.34
   0  -1  14   12.64    0.65
   0  -1  14   13.02    0.66
   0  -1 -14   12.38    0.65
   0   1  14   12.28    0.66
   0   1 -14   12.39    0.65
   0   1  14   12.93    0.66
   1  -1  14   43.62    2.12
   1  -1  14   45.13    2.09
  -1  -1 -14   44.04    2.09
   1   1  14   45.30    2.09
   1   1  14   43.77    2.11
  -1   1 -14   44.74    2.08
  -2  -1 -14    0.39    0.10
   2  -1  14    0.35    0.14
   2  -1  14    0.58    0.13
  -2   1 -14    0.38    0.09
   2   1  14    0.55    0.11
   2   1  14    0.33    0.13
  -3  -1 -14    5.16    0.33
   3  -1  14    5.39    0.45
   3  -1  14    5.93    0.36
   3  -1  14    6.21    0.35
   3   1  14    5.79    0.34
   3   1  14    5.30    0.42
  -3   1 -14    4.96    0.30
  -4  -1 -14    2.67    0.23
   4  -1  14    1.37    0.28
   4  -1  14    1.78    0.25
   4  -1  14    2.02    0.22
  -4   1 -14    2.07    0.19
   4   1  14    2.16    0.24
   4   1  14    2.81    0.39
   5  -1  14    7.56    0.50
  -5  -1 -14    7.25    0.44
   5  -1  14    7.31    0.61
   5   1  14    7.35    0.46
  -5   1 -14    7.09    0.40
   5   1  14    6.97    0.59
  -6  -1 -14   45.33    2.19
   6  -1  14   46.21    2.37
   6  -1  14   46.35    2.26
  -6   1 -14   47.76    2.20
   6   1  14   45.96    2.35
   6   1  14   46.93    2.23
   7  -1  14    0.93    0.36
   7  -1  14    0.59    0.31
  -7  -1 -14    0.23    0.29
   7   1  14    0.77    0.30
   7   1  14    0.24    0.26
   8  -1  14    0.04    0.39
   8  -1  14    0.20    0.35
   8   1  14    0.30    0.37
   8   1  14    0.29    0.40
   9  -1  14    3.54    0.56
   9  -1  14    2.75    0.60
   9   1  14    4.05    0.59
  10  -2 -14    1.04    0.39
  10   2 -14    2.15    0.49
   9  -2 -14    0.19    0.30
   9   2 -14   -0.02    0.37
   8  -2 -14    3.91    0.47
   8   2 -14    3.96    0.49
   7  -2 -14   -0.08    0.22
   7   2 -14   -0.06    0.26
   6  -2 -14    1.12    0.23
   6   2 -14    1.22    0.25
   6   2 -14    1.22    0.27
   5  -2 -14    7.03    0.48
   5   2 -14    6.52    0.52
   5   2 -14    6.88    0.51
   4  -2 -14    7.00    0.46
   4   2 -14    7.17    0.50
  -3  -2  14   13.67    0.75
   3  -2 -14   14.43    0.75
   3   2 -14   13.48    0.78
   2  -2 -14   10.31    0.57
  -2  -2  14    9.64    0.56
   2   2 -14   10.18    0.58
  -1  -2  14    9.75    0.48
   1  -2 -14    8.58    0.51
  -1  -2  14    9.12    0.52
   1   2 -14    9.47    0.52
  -1   2  14    9.68    0.52
  -1   2  14    8.83    0.52
   0  -2 -14    4.66    0.32
   0  -2  14    5.25    0.32
   0  -2  14    5.49    0.33
   0   2  14    4.76    0.32
   0   2  14    4.80    0.33
   0   2 -14    5.01    0.32
  -1  -2 -14   16.90    0.85
   1  -2  14   17.55    0.86
   1  -2  14   16.60    0.88
   1   2  14   17.77    0.85
  -1   2 -14   17.12    0.84
   1   2  14   17.04    0.88
   2  -2  14    8.19    0.45
   2  -2  14    8.01    0.46
   2  -2  14    8.14    0.46
   2  -2  14    7.57    0.50
  -2  -2 -14    7.65    0.44
   2   2  14    8.09    0.49
   2   2  14    8.27    0.44
  -2   2 -14    8.10    0.41
   3  -2  14    1.16    0.18
  -3  -2 -14    0.80    0.14
   3  -2  14    0.94    0.14
   3  -2  14    1.00    0.21
   3  -2  14    1.30    0.18
   3   2  14    1.12    0.21
  -3   2 -14    0.84    0.10
   3   2  14    1.07    0.14
   4  -2  14    0.78    0.20
  -4  -2 -14    0.74    0.15
   4  -2  14    0.72    0.26
   4   2  14    0.67    0.22
   4   2  14    1.12    0.15
  -5  -2 -14    3.58    0.32
   5  -2  14    3.17    0.47
   5  -2  14    4.02    0.41
   5   2  14    4.58    0.33
   5   2  14    3.40    0.43
   6  -2  14    3.37    0.50
   6  -2  14    3.84    0.50
  -6  -2 -14    1.96    0.31
   6   2  14    2.77    0.34
   6   2  14    3.20    0.45
  -7  -2 -14    0.56    0.21
   7  -2  14    0.23    0.32
   7  -2  14    0.59    0.33
   7   2  14    0.26    0.30
   7   2  14    0.54    0.24
   8  -2  14    3.92    0.62
   8  -2  14    4.56    0.71
   8   2  14    4.96    0.71
   9  -2  14    1.03    0.48
   9  -2  14    0.36    0.47
   9   2  14    0.15    0.43
  10  -3 -14    0.02    0.37
  10   3 -14    0.13    0.44
   9  -3 -14    1.23    0.32
   9   3 -14    1.44    0.47
   8  -3 -14   10.12    0.68
   8   3 -14    8.91    0.78
   8   3 -14    8.79    0.75
   7  -3 -14    5.56    0.49
   7   3 -14    5.38    0.56
   7   3 -14    4.88    0.56
   6  -3 -14    0.52    0.20
   6   3 -14    0.19    0.24
   6   3 -14    0.63    0.23
   5  -3 -14   48.68    2.41
   5   3 -14   50.17    2.46
   5   3 -14   51.14    2.46
   4  -3 -14   28.50    1.38
  -4  -3  14   25.64    1.39
   4   3 -14   27.81    1.41
   4   3 -14   28.34    1.42
   3  -3 -14   23.92    1.20
  -3  -3  14   23.95    1.21
   3   3 -14   24.13    1.24
   3   3 -14   23.67    1.23
  -2  -3  14    4.26    0.31
   2  -3 -14    4.75    0.33
   2   3 -14    3.82    0.34
   1  -3 -14    1.02    0.15
  -1  -3  14    0.68    0.15
  -1  -3  14    1.11    0.14
   1   3 -14    0.87    0.16
  -1   3  14    1.12    0.16
   0  -3  14   61.62    2.84
   0  -3  14   61.70    2.84
   0  -3 -14   61.37    2.84
   0   3  14   57.31    2.84
   0   3  14   61.55    2.85
   0   3 -14   60.60    2.84
  -1  -3 -14    1.39    0.19
   1  -3  14    1.84    0.21
   1  -3  14    1.49    0.23
   1   3  14    1.35    0.20
  -1   3 -14    1.77    0.17
   1   3  14    1.87    0.19
   2  -3  14    0.09    0.13
  -2  -3 -14    0.35    0.11
   2  -3  14    0.14    0.15
  -2   3 -14    0.09    0.10
   2   3  14    0.26    0.11
   2   3  14    0.17    0.13
  -2   3 -14    0.13    0.08
   3  -3  14   11.98    0.63
  -3  -3 -14   10.51    0.60
   3  -3  14   11.06    0.70
   3   3  14   11.29    0.57
   3   3  14   11.22    0.67
   4  -3  14    2.06    0.34
   4  -3  14    2.60    0.33
  -4  -3 -14    2.97    0.28
   4   3  14    2.57    0.39
   4   3  14    3.00    0.23
   5  -3  14   16.39    0.92
   5  -3  14   13.89    0.97
  -5  -3 -14   15.70    0.85
   5   3  14   16.77    0.96
   5   3  14   17.37    0.81
   6  -3  14    1.13    0.32
   6  -3  14    0.77    0.33
  -6  -3 -14    0.87    0.21
   6   3  14    0.97    0.19
   6   3  14    0.46    0.26
   7  -3  14    6.82    0.64
   7  -3  14    7.30    0.74
  -7  -3 -14    6.87    0.53
   7   3  14    5.71    0.64
   8  -3  14    9.00    0.77
   8  -3  14    9.66    0.95
   8   3  14    9.44    0.83
   9  -3  14    0.85    0.54
   9  -3  14    1.52    0.51
   9   3  14    1.59    0.48
  10  -4 -14    0.05    0.36
  10   4 -14   -0.03    0.51
   9  -4 -14    1.36    0.34
   9   4 -14    0.69    0.42
   9   4 -14    1.85    0.45
   8  -4 -14    2.01    0.31
   8   4 -14    1.44    0.40
   8   4 -14    2.29    0.43
   7  -4 -14    4.99    0.46
   7   4 -14    4.52    0.57
   7   4 -14    5.31    0.58
   6  -4 -14    3.23    0.37
   6   4 -14    3.07    0.43
   6   4 -14    2.92    0.43
   5  -4 -14   13.23    0.73
   5   4 -14   12.37    0.79
   5   4 -14   11.97    0.78
   4  -4 -14    4.42    0.36
  -4  -4  14    4.28    0.39
   4   4 -14    4.62    0.43
   4   4 -14    5.12    0.43
   3  -4 -14    1.57    0.22
  -3  -4  14    1.72    0.24
   3   4 -14    1.73    0.26
   3   4 -14    1.45    0.24
  -2  -4  14    6.51    0.40
   2  -4 -14    6.03    0.40
   2   4 -14    6.09    0.44
   2   4 -14    6.43    0.44
   1  -4 -14    0.67    0.14
  -1  -4  14    0.34    0.13
  -1  -4  14    0.59    0.09
   1   4 -14    0.39    0.14
   1   4 -14    0.50    0.14
   0  -4 -14    0.26    0.11
   0  -4  14    0.27    0.13
   0  -4  14   -0.01    0.10
   0   4 -14    0.01    0.11
  -1  -4 -14    0.28    0.12
   1  -4  14    0.19    0.13
   1  -4  14    0.16    0.13
   1   4  14    0.42    0.11
   1   4  14    0.31    0.12
  -1   4 -14    0.16    0.10
   2  -4  14    1.40    0.22
   2  -4  14    0.58    0.18
  -2  -4 -14    0.97    0.16
  -2   4 -14    0.88    0.12
   2   4  14    0.79    0.17
  -2   4 -14    0.88    0.13
   2   4  14    0.86    0.13
   3  -4  14    1.24    0.24
  -3  -4 -14    1.58    0.24
   3  -4  14    1.64    0.26
   3   4  14    1.30    0.23
   3   4  14    1.70    0.17
   4  -4  14   -0.02    0.19
   4  -4  14    0.21    0.25
  -4  -4 -14    0.27    0.16
   4   4  14    0.40    0.19
   5  -4  14    4.36    0.50
   5  -4  14    3.25    0.53
  -5  -4 -14    3.56    0.38
   5   4  14    4.01    0.44
   5   4  14    4.04    0.28
  -6  -4 -14    7.55    0.57
   6  -4  14    7.45    0.70
   6  -4  14    8.30    0.65
   6   4  14    8.55    0.64
   7  -4  14    0.59    0.34
  -7  -4 -14    0.24    0.27
   7  -4  14    0.15    0.33
   7   4  14    0.15    0.30
   8  -4  14    3.04    0.56
  -8  -4 -14    3.92    0.55
   8  -4  14    4.93    0.70
   8   4  14    5.17    0.65
   9  -4  14    3.69    0.64
   9  -4  14    5.58    0.85
   9   4  14    3.13    0.55
  10  -5 -14    0.06    0.37
  10   5 -14    0.17    0.54
  10   5 -14    0.45    0.54
   9  -5 -14    1.35    0.34
   9   5 -14    1.74    0.52
   9   5 -14    1.33    0.47
   8  -5 -14    0.37    0.26
   8   5 -14    0.18    0.38
   8   5 -14   -0.12    0.33
   7  -5 -14    5.66    0.48
   7   5 -14    5.67    0.60
   7   5 -14    5.17    0.59
   6  -5 -14   14.68    0.85
   6   5 -14   15.75    0.96
   6   5 -14   15.06    0.94
   5   5 -14    0.08    0.24
   5   5 -14    0.49    0.26
   4  -5 -14    0.89    0.18
  -4  -5  14    0.54    0.22
   4   5 -14    0.41    0.21
   4   5 -14    0.73    0.21
   3  -5 -14   14.72    0.79
  -3  -5  14   14.23    0.81
   3   5 -14   15.88    0.86
   3   5 -14   14.73    0.85
   2  -5 -14    8.42    0.48
  -2  -5  14    7.90    0.49
   2   5 -14    8.43    0.53
   2   5 -14    8.03    0.54
  -1  -5  14   -0.06    0.11
   1  -5 -14   -0.06    0.12
   1   5 -14    0.02    0.13
   1   5 -14    0.07    0.13
   0  -5 -14   28.78    1.40
   0  -5  14   28.20    1.38
   0  -5  14   28.91    1.39
   0   5  14   28.60    1.41
   0   5 -14   28.68    1.39
  -1  -5 -14    0.02    0.12
   1  -5  14    0.01    0.13
   1  -5  14   -0.06    0.12
   1   5  14    0.06    0.13
   2  -5  14    2.61    0.26
   2  -5  14    1.61    0.24
  -2  -5 -14    2.04    0.26
   2   5  14    1.88    0.18
  -2   5 -14    1.80    0.16
  -2   5 -14    1.74    0.18
   2   5  14    1.87    0.26
  -3  -5 -14   25.31    1.25
   3  -5  14   23.80    1.32
   3  -5  14   25.70    1.27
   3   5  14   24.65    1.19
   3   5  14   26.26    1.30
   4  -5  14    5.10    0.58
   4  -5  14    6.62    0.53
  -4  -5 -14    6.98    0.48
   4   5  14    6.62    0.49
   4   5  14    5.84    0.34
  -5  -5 -14    1.59    0.30
   5  -5  14    1.20    0.33
   5  -5  14    2.08    0.35
   6  -5  14    9.79    0.84
   6  -5  14   11.72    0.79
  -6  -5 -14   11.45    0.70
   6   5  14   11.91    0.78
   7  -5  14    0.61    0.38
  -7  -5 -14    0.87    0.27
   7  -5  14    0.62    0.34
   7   5  14    0.54    0.30
   8  -5  14    0.43    0.41
  -8  -5 -14    0.49    0.31
   8  -5  14    0.49    0.43
   8   5  14    0.84    0.37
   9  -5  14    8.73    1.11
   9  -5  14   14.61    1.12
   9   5  14   11.84    1.02
   9  -6 -14    5.03    0.58
   9   6 -14    4.66    0.64
   9   6 -14    4.42    0.67
   8  -6 -14    0.41    0.27
   8   6 -14    0.11    0.36
   8   6 -14   -0.04    0.36
   7  -6 -14    0.43    0.23
   7   6 -14    0.25    0.33
   7   6 -14    0.10    0.33
  -6  -6  14   13.90    0.82
   6  -6 -14   14.02    0.80
   6   6 -14   13.69    0.89
   6   6 -14   14.13    0.93
   5  -6 -14    0.21    0.16
  -5  -6  14   -0.08    0.20
  -5  -6  14    0.21    0.20
  -4  -6  14    2.18    0.33
  -3  -6  14    1.40    0.23
  -3  -6  14    1.44    0.22
   3  -6 -14    1.62    0.21
  -2  -6  14   16.13    0.87
  -2  -6  14   16.98    0.87
   2  -6 -14   16.60    0.86
   2   6 -14   16.74    0.92
  -1  -6  14   10.35    0.56
   1  -6 -14    9.98    0.56
  -1  -6  14    9.22    0.50
   1   6 -14   10.12    0.59
   1   6 -14   10.30    0.59
   0  -6  14    1.28    0.17
   0  -6  14    1.19    0.18
   0  -6 -14    1.34    0.19
   0   6 -14    1.31    0.19
   0   6 -14    1.29    0.19
   0   6  14    1.75    0.26
   1  -6  14    5.85    0.45
  -1  -6 -14    6.66    0.44
   1  -6  14    7.52    0.44
  -1   6 -14    6.81    0.40
   1   6  14    6.70    0.45
   2  -6  14   21.98    1.26
   2  -6  14   26.82    1.23
  -2  -6 -14   24.62    1.23
  -2   6 -14   24.57    1.15
  -2   6 -14   22.68    1.15
   2   6  14   25.44    1.24
   3  -6  14    3.97    0.47
   3  -6  14    5.12    0.42
  -3  -6 -14    4.70    0.41
   3   6  14    4.40    0.40
   4  -6  14    7.82    0.57
  -4  -6 -14    7.22    0.52
   4  -6  14    6.83    0.67
   4   6  14    6.80    0.52
   5  -6  14    0.63    0.29
  -5  -6 -14    0.64    0.23
   5  -6  14    0.42    0.30
   5   6  14    0.82    0.23
  -6  -6 -14    6.82    0.54
   6  -6  14    6.26    0.72
   6  -6  14    6.47    0.61
   6   6  14    6.71    0.57
  -7  -6 -14    1.32    0.30
   7  -6  14    1.85    0.42
   7  -6  14    1.25    0.41
   7   6  14    1.37    0.34
   8  -6  14    2.05    0.49
  -8  -6 -14    1.36    0.35
   8  -6  14    1.50    0.49
   8   6  14    0.79    0.37
   9  -6  14    2.50    0.60
   9  -6  14    1.33    0.66
   9   6  14    2.21    0.47
   9  -7 -14    3.46    0.53
   9  -7 -14    3.47    0.77
   9   7 -14    4.02    0.68
   9   7 -14    3.52    0.62
   8  -7 -14    0.40    0.24
   8   7 -14   -0.69    0.44
   8   7 -14    0.53    0.45
   7  -7 -14    0.32    0.20
  -7  -7  14    0.12    0.26
   7   7 -14   -0.35    0.34
   7   7 -14    0.18    0.36
   6  -7 -14   20.98    1.13
  -6  -7  14   21.44    1.15
   5  -7 -14    1.23    0.22
  -5  -7  14    1.90    0.30
  -5  -7  14    1.34    0.26
  -4  -7  14   20.58    1.03
   4  -7 -14   18.54    1.00
  -4  -7  14   18.17    1.02
  -3  -7  14    4.19    0.38
  -3  -7  14    3.70    0.35
   3  -7 -14    3.97    0.32
   2  -7 -14    2.45    0.26
  -2  -7  14    2.16    0.29
  -2  -7  14    1.77    0.25
   1  -7 -14    7.69    0.46
  -1  -7  14    7.54    0.48
  -1  -7  14    7.26    0.41
  -1  -7  14    7.92    0.47
   0  -7 -14    0.77    0.15
   0  -7  14    0.55    0.16
   0  -7  14    0.69    0.17
   0   7 -14    0.73    0.18
   0   7 -14    0.69    0.17
   0   7  14    0.86    0.19
   1  -7  14    0.82    0.19
  -1  -7 -14    1.65    0.24
   1  -7  14    1.26    0.21
   1   7  14    1.03    0.20
  -1   7 -14    1.01    0.17
  -1   7 -14    0.90    0.16
   2  -7  14    2.51    0.35
   2  -7  14    2.14    0.35
  -2  -7 -14    2.68    0.32
   2   7  14    2.57    0.34
   3  -7  14   10.95    0.68
  -3  -7 -14   10.08    0.64
   3   7  14   10.63    0.65
  -4  -7 -14   11.99    0.72
   4  -7  14   12.00    0.76
   4   7  14   11.40    0.71
  -5  -7 -14    3.37    0.42
   5  -7  14    4.58    0.52
   5   7  14    4.35    0.46
  -6  -7 -14    0.61    0.27
   6  -7  14    0.13    0.33
   6   7  14    0.44    0.26
   7  -7  14    0.33    0.39
  -7  -7 -14    0.02    0.31
   7  -7  14   -0.29    0.37
   7   7  14   -0.11    0.29
   8  -7  14   16.06    1.31
   8  -7  14   18.70    1.25
  -8  -7 -14   16.94    1.07
   8   7  14   19.84    1.15
   9  -7  14   12.46    1.36
   9  -7  14   16.47    1.33
   9   7  14   13.13    1.07
   9  -8 -14   -0.35    0.64
   9  -8 -14    0.01    0.32
   9   8 -14   -0.75    0.50
   9   8 -14    0.30    0.55
   8  -8 -14    0.84    0.28
  -8  -8  14    0.34    0.34
   8   8 -14   -0.47    0.45
   8   8 -14   -0.44    0.46
   7  -8 -14    1.15    0.26
  -7  -8  14    1.97    0.33
  -6  -8  14    3.65    0.46
   6  -8 -14    4.05    0.41
  -5  -8  14    4.27    0.43
  -5  -8  14    4.11    0.44
   5  -8 -14    5.16    0.42
  -4  -8  14    2.51    0.36
  -4  -8  14    3.74    0.38
   4  -8 -14    3.66    0.33
   3  -8 -14   26.03    1.30
  -3  -8  14   24.34    1.31
  -3  -8  14   26.90    1.32
  -2  -8  14   19.50    1.00
  -2  -8  14   17.82    1.00
   2  -8 -14   19.46    0.99
  -1  -8  14    1.26    0.20
  -1  -8  14    1.84    0.20
   1  -8 -14    2.07    0.25
  -1  -8  14    2.14    0.27
   0  -8  14   16.00    0.82
   0  -8  14   15.33    0.79
   0  -8  14   14.29    0.81
   0  -8 -14   15.59    0.82
   1  -8  14   12.87    0.78
  -1  -8 -14   13.66    0.77
   1  -8  14   15.53    0.78
  -1   8 -14   13.66    0.74
   1   8  14   14.38    0.80
  -1   8 -14   13.82    0.74
   2  -8  14   43.82    1.97
  -2  -8 -14   39.57    1.96
   2   8  14   39.76    1.97
  -2   8 -14   37.10    1.87
   3  -8  14   33.03    1.62
  -3  -8 -14   31.98    1.60
   3   8  14   30.95    1.61
  -4  -8 -14    0.38    0.21
   4  -8  14    0.43    0.26
   4   8  14    0.57    0.20
   5  -8  14    1.37    0.35
  -5  -8 -14    1.25    0.28
   5   8  14    1.29    0.27
  -6  -8 -14    0.84    0.30
   6  -8  14    1.36    0.40
   6   8  14    0.65    0.27
  -7  -8 -14    2.19    0.38
   7  -8  14    2.01    0.46
   7   8  14    2.08    0.37
   8  -8  14   -0.12    0.48
  -8  -8 -14    0.25    0.36
   8   8  14    0.20    0.32
   9  -9 -14    4.84    0.62
   9  -9 -14    3.08    0.89
   9   9 -14    3.20    0.76
   9   9 -14    3.64    0.73
   8  -9 -14    3.48    0.50
  -8  -9  14    4.47    0.64
   8  -9 -14    4.84    0.75
   7  -9 -14    0.69    0.56
  -7  -9  14    0.98    0.30
   7  -9 -14    1.18    0.27
   6  -9 -14   14.12    0.82
  -6  -9  14   14.03    0.87
   5  -9 -14    3.99    0.39
  -5  -9  14    4.48    0.44
  -5  -9  14    5.17    0.46
   4  -9 -14    6.18    0.43
  -4  -9  14    5.15    0.45
  -4  -9  14    5.80    0.49
  -3  -9  14   37.62    1.80
   3  -9 -14   36.05    1.79
  -3  -9  14   35.84    1.80
  -2  -9  14    1.14    0.24
   1  -9 -14    9.53    0.56
  -1  -9  14    9.55    0.57
  -1  -9  14    7.89    0.49
  -1  -9  14    9.63    0.57
   0  -9  14    9.91    0.58
   0  -9  14    9.31    0.54
   0  -9 -14    9.55    0.57
   0  -9  14    9.03    0.57
  -1  -9 -14    0.95    0.23
   1  -9  14    0.80    0.16
  -1  -9 -14    1.15    0.21
   1  -9  14    1.25    0.23
   1   9  14    1.01    0.23
   2  -9  14   58.16    2.62
  -2  -9 -14   55.35    2.62
   2   9  14   53.45    2.62
  -2   9 -14   52.01    2.54
  -2   9 -14   52.51    2.54
  -3  -9 -14   24.34    1.26
   3  -9  14   24.29    1.26
   3   9  14   22.85    1.25
   4  -9  14    1.00    0.29
  -4  -9 -14    1.28    0.28
   4   9  14    1.05    0.23
   5  -9  14    1.13    0.34
  -5  -9 -14    1.17    0.30
   5   9  14    1.05    0.25
  -6  -9 -14    5.45    0.57
   6  -9  14    5.92    0.66
   6   9  14    4.76    0.53
  -7  -9 -14    4.30    0.49
   7  -9  14    3.22    0.56
   7   9  14    3.14    0.54
   8  -9  14    1.00    0.54
  -8  -9 -14   -0.47    0.40
   8   9  14   -0.22    0.34
   8 -10 -14    1.48    0.67
   8 -10 -14    1.11    0.34
  -8 -10  14    1.18    0.42
   7 -10 -14    0.16    0.23
   7 -10 -14   -0.87    0.50
  -7 -10  14    0.62    0.33
  -6 -10  14    2.61    0.45
   6 -10 -14    2.62    0.35
  -6 -10  14    3.15    0.41
   6 -10 -14    3.24    0.58
  -5 -10  14    0.22    0.27
   5 -10 -14    0.10    0.21
  -5 -10  14    0.23    0.21
  -4 -10  14    2.75    0.40
  -4 -10  14    2.22    0.36
   4 -10 -14    2.95    0.33
  -3 -10  14    0.42    0.21
  -3 -10  14    0.26    0.21
   3 -10 -14    0.43    0.18
   2 -10 -14   13.79    0.75
  -2 -10  14   12.01    0.75
  -2 -10  14   12.46    0.72
  -1 -10  14    0.88    0.21
   1 -10 -14    0.12    0.31
  -1 -10  14    0.48    0.23
  -1 -10  14    0.34    0.15
   1 -10 -14    0.51    0.19
   0 -10 -14   -0.14    0.16
   0 -10 -14   -0.16    0.24
   0 -10  14    0.00    0.16
   1 -10  14    7.15    0.45
   1 -10  14    7.44    0.52
  -1 -10 -14    7.90    0.54
   2 -10  14    4.66    0.43
  -2 -10 -14    5.02    0.45
   2  10  14    4.58    0.44
  -2  10 -14    3.98    0.36
  -2  10 -14    3.61    0.35
   3 -10  14    7.64    0.57
  -3 -10 -14    6.63    0.53
   3  10  14    6.57    0.53
  -4 -10 -14   10.40    0.68
   4 -10  14    9.77    0.70
   4  10  14    9.01    0.67
   5 -10  14    3.08    0.44
  -5 -10 -14    3.17    0.39
   5  10  14    3.07    0.42
  -6 -10 -14    2.54    0.41
   6 -10  14    2.62    0.50
   6  10  14    3.47    0.49
   7 -10  14    2.12    0.52
  -7 -10 -14    1.83    0.43
   7  10  14    1.83    0.37
  -8 -10 -14    0.27    0.43
   8 -10  14   -0.10    0.55
   8  10  14   -0.53    0.34
   8 -11 -14    0.77    0.33
  -8 -11  14    0.45    0.39
   8 -11 -14    0.86    0.68
   7 -11 -14   -0.02    0.26
   7 -11 -14    0.86    0.55
  -7 -11  14    0.34    0.37
  -6 -11  14    1.26    0.32
  -6 -11  14    1.61    0.33
   6 -11 -14    1.38    0.26
   6 -11 -14    1.30    0.54
  -5 -11  14    0.38    0.25
   5 -11 -14   -0.04    0.21
  -5 -11  14    0.11    0.26
   5 -11 -14   -0.43    0.44
  -4 -11  14    1.90    0.31
  -4 -11  14    1.51    0.28
   4 -11 -14    1.59    0.26
   4 -11 -14    1.52    0.49
  -3 -11  14    0.78    0.25
   3 -11 -14    0.97    0.23
  -3 -11  14    1.03    0.24
   3 -11 -14    0.09    0.42
   2 -11 -14   40.71    2.05
   2 -11 -14   39.93    2.15
  -2 -11  14   44.44    2.06
  -2 -11  14   42.36    2.05
  -1 -11  14    0.47    0.17
   1 -11 -14    1.09    0.31
  -1 -11  14    0.25    0.22
  -1 -11  14    0.71    0.21
   1 -11 -14    1.01    0.21
   0 -11  14    0.58    0.21
   0 -11 -14    0.68    0.27
   0 -11 -14    0.53    0.21
   0 -11  14    0.71    0.23
  -1 -11 -14   -0.09    0.19
   1 -11  14   -0.34    0.15
   1 -11  14   -0.10    0.19
  -1 -11 -14   -0.09    0.20
  -2 -11 -14    0.60    0.23
   2  11  14    0.66    0.24
   3 -11  14   26.73    1.37
  -3 -11 -14   26.78    1.38
   3  11  14   23.81    1.36
   4 -11  14   -0.06    0.28
  -4 -11 -14    0.73    0.29
   4  11  14    0.24    0.23
  -5 -11 -14    1.46    0.37
   5 -11  14    2.00    0.40
   5  11  14    1.30    0.31
   6 -11  14    1.58    0.48
  -6 -11 -14    1.76    0.40
   6  11  14    1.33    0.33
  -7 -11 -14    0.31    0.39
   7 -11  14   -0.31    0.50
   7  11  14    0.16    0.31
   8 -12 -14    1.27    0.39
  -8 -12  14    2.63    0.51
   8 -12 -14    2.47    0.76
   7 -12 -14    0.15    0.60
   7 -12 -14    0.60    0.31
  -7 -12  14    0.60    0.39
  -6 -12  14   -0.49    0.31
   6 -12 -14    0.51    0.25
  -6 -12  14   -0.11    0.30
   6 -12 -14   -0.36    0.52
  -5 -12  14   10.66    0.74
  -5 -12  14   11.63    0.77
   5 -12 -14   10.73    0.70
   5 -12 -14   10.51    0.99
   4 -12 -14    2.21    0.52
  -4 -12  14    1.85    0.29
   4 -12 -14    1.93    0.30
  -4 -12  14    1.08    0.29
  -3 -12  14    2.69    0.35
  -3 -12  14    2.39    0.37
   3 -12 -14    2.27    0.56
   3 -12 -14    2.47    0.36
  -2 -12  14    7.01    0.53
   2 -12 -14    6.20    0.68
  -2 -12  14    7.58    0.51
   2 -12 -14    6.86    0.51
   1 -12 -14    6.28    0.50
   1 -12 -14    5.49    0.58
  -1 -12  14    6.08    0.47
  -1 -12  14    5.99    0.46
   0 -12  14    0.40    0.21
   0 -12  14    0.15    0.23
   0 -12 -14   -0.10    0.26
   0 -12 -14    0.14    0.23
   1 -12  14    0.15    0.19
  -1 -12 -14    0.28    0.23
   1 -12  14    0.40    0.23
   2 -12  14    3.75    0.40
  -2 -12 -14    4.39    0.49
  -3 -12 -14    1.54    0.33
   3 -12  14    2.68    0.43
   3  12  14    0.72    0.28
   4 -12  14    6.56    0.63
  -4 -12 -14    7.69    0.65
   4  12  14    5.57    0.60
  -5 -12 -14   -0.79    0.33
   5 -12  14    0.64    0.40
   5  12  14    0.19    0.27
  -6 -12 -14    1.26    0.41
   6 -12  14    1.52    0.51
   6  12  14    0.97    0.33
   7 -12  14    2.76    0.62
  -7 -12 -14    3.01    0.55
   7  12  14    2.68    0.42
  -7 -13  14    2.42    0.47
   7 -13 -14    2.27    0.71
   7 -13 -14    2.13    0.39
  -6 -13  14    0.24    0.33
   6 -13 -14   -0.85    0.57
  -6 -13  14    0.28    0.36
   6 -13 -14   -0.42    0.25
   5 -13 -14    0.14    0.52
  -5 -13  14    1.16    0.32
   5 -13 -14    1.49    0.28
  -4 -13  14    0.60    0.27
   4 -13 -14    0.05    0.45
   4 -13 -14    0.42    0.24
   3 -13 -14    0.76    0.50
  -3 -13  14    0.22    0.27
   3 -13 -14    1.02    0.26
  -3 -13  14    0.60    0.24
  -2 -13  14    4.20    0.42
   2 -13 -14    4.01    0.43
   2 -13 -14    2.85    0.49
  -2 -13  14    3.78    0.43
  -1 -13  14    0.36    0.22
  -1 -13  14   -0.35    0.21
   1 -13 -14    0.20    0.31
   1 -13 -14   -0.02    0.24
   0 -13 -14   -0.25    0.26
   0 -13  14    0.07    0.24
   0 -13  14   -0.34    0.22
   0 -13 -14    0.03    0.23
  -1 -13 -14    2.55    0.35
   1 -13  14    2.69    0.39
   1 -13  14    2.48    0.37
  -2 -13 -14   24.73    1.38
   2 -13  14   26.09    1.36
  -3 -13 -14    2.25    0.39
   3 -13  14    3.47    0.52
   4 -13  14    0.54    0.37
  -4 -13 -14    0.22    0.34
   4  13  14   -0.15    0.26
  -5 -13 -14   -0.48    0.38
   5 -13  14   -0.12    0.40
   5  13  14   -0.12    0.29
  -6 -13 -14    3.46    0.52
   6 -13  14    3.48    0.61
   6  13  14    2.14    0.40
  -7 -13 -14    7.78    0.94
   7 -13  14    8.77    1.10
   7  13  14    5.45    0.71
   7 -14 -14    3.31    0.83
   7 -14 -14    2.82    0.42
  -7 -14  14    2.54    0.50
  -6 -14  14    0.70    0.42
   6 -14 -14    0.20    0.62
  -6 -14  14    1.07    0.40
   6 -14 -14    0.08    0.31
   5 -14 -14   -0.14    0.56
  -5 -14  14    0.81    0.33
  -5 -14  14    0.49    0.34
   5 -14 -14    0.57    0.27
   4 -14 -14    4.21    0.68
  -4 -14  14    4.63    0.49
   4 -14 -14    4.17    0.46
  -4 -14  14    3.27    0.49
  -3 -14  14    0.20    0.27
  -3 -14  14    0.29    0.24
   3 -14 -14    0.79    0.27
   3 -14 -14   -0.41    0.45
  -2 -14  14    0.56    0.23
   2 -14 -14    0.07    0.40
  -2 -14  14    0.28    0.26
   2 -14 -14    0.57    0.26
  -1 -14  14    0.33    0.23
   1 -14 -14    0.01    0.33
   1 -14 -14   -0.04    0.25
  -1 -14  14    0.15    0.25
   0 -14  14   -0.06    0.25
   0 -14 -14   -0.06    0.25
   0 -14  14   -0.12    0.23
  -1 -14 -14    1.63    0.32
   1 -14  14    1.67    0.32
   1 -14  14    1.45    0.29
   2 -14  14    2.56    0.44
  -2 -14 -14    2.56    0.42
  -3 -14 -14   15.81    1.02
   3 -14  14   15.29    0.98
   4 -14  14    0.31    0.37
  -4 -14 -14    0.22    0.37
   4  14  14    0.14    0.29
   5 -14  14    4.51    0.70
  -5 -14 -14    3.31    0.54
   5  14  14    2.37    0.41
   6 -14  14    1.91    0.60
  -6 -14 -14    1.02    0.49
   6  14  14    0.73    0.38
   6 -15 -14    0.03    0.68
  -6 -15  14    0.57    0.42
   6 -15 -14   -0.18    0.35
  -6 -15  14   -0.33    0.40
   5 -15 -14   -0.78    0.59
   5 -15 -14    0.23    0.31
  -5 -15  14    0.04    0.36
  -5 -15  14    0.46    0.35
  -4 -15  14    1.45    0.35
   4 -15 -14    1.02    0.30
   4 -15 -14    1.41    0.58
  -4 -15  14    0.59    0.36
  -3 -15  14    7.50    0.64
   3 -15 -14    5.95    0.87
   3 -15 -14    6.69    0.61
  -3 -15  14    7.92    0.59
  -2 -15  14    0.02    0.23
   2 -15 -14   -0.23    0.47
  -2 -15  14    0.20    0.29
   2 -15 -14    0.36    0.30
   1 -15 -14   14.31    0.92
  -1 -15  14   15.08    0.87
  -1 -15  14   14.71    0.87
   1 -15 -14   12.97    0.92
   0 -15  14    0.19    0.28
   0 -15  14   -0.31    0.26
   0 -15 -14   -0.22    0.28
   1 -15  14    5.23    0.60
  -1 -15 -14    5.91    0.63
   1 -15  14    7.02    0.56
   2 -15  14    0.42    0.33
  -2 -15 -14    0.48    0.35
  -3 -15 -14    2.21    0.43
   3 -15  14    2.42    0.43
   4 -15  14    3.30    0.52
  -4 -15 -14    2.82    0.55
   5 -15  14    2.82    0.57
  -5 -15 -14    3.23    0.56
   5  15  14    1.77    0.40
   6 -15  14    0.18    0.62
  -6 -15 -14    0.48    0.49
   6  15  14   -0.34    0.38
   5 -16 -14    1.70    0.42
   5 -16 -14    1.94    0.72
  -5 -16  14    2.04    0.45
  -5 -16  14    2.12    0.46
  -4 -16  14    6.46    0.67
  -4 -16  14    6.62    0.70
   4 -16 -14    5.68    0.64
   4 -16 -14    6.77    0.99
  -3 -16  14    1.24    0.37
   3 -16 -14    0.98    0.35
   3 -16 -14    0.55    0.55
  -3 -16  14    0.88    0.32
  -2 -16  14    5.55    0.55
  -2 -16  14    5.01    0.60
   2 -16 -14    6.10    0.61
   2 -16 -14    4.56    0.67
  -1 -16  14    0.11    0.33
   1 -16 -14    0.11    0.32
  -1 -16  14   -0.19    0.27
   0 -16  14    0.29    0.34
   0 -16 -14   -0.18    0.31
   0 -16  14    0.12    0.29
   1 -16  14    0.22    0.29
  -1 -16 -14    0.02    0.36
  -2 -16 -14    0.00    0.37
   2 -16  14   -0.13    0.33
  -3 -16 -14    2.41    0.51
   3 -16  14    2.16    0.46
   4 -16  14    1.25    0.47
  -4 -16 -14    0.31    0.47
  -5 -16 -14    1.81    0.57
   5 -16  14    1.70    0.60
   5 -17 -14    1.27    0.44
  -5 -17  14    1.51    0.50
  -5 -17  14    1.64    0.49
   5 -17 -14    3.39    0.83
  -4 -17  14    0.61    0.45
   4 -17 -14    0.62    0.38
  -4 -17  14    1.38    0.42
   4 -17 -14    0.47    0.66
  -3 -17  14    4.29    0.65
   3 -17 -14    3.13    0.67
  -3 -17  14    4.25    0.57
   3 -17 -14    4.05    0.53
  -2 -17  14    4.02    0.60
   2 -17 -14    2.39    0.94
  -2 -17  14    2.93    0.44
   2 -17 -14    3.46    0.48
  -1 -17  14   -0.61    0.29
   1 -17 -14    0.55    0.37
  -1 -17  14    0.09    0.37
   0 -17 -14   -0.23    0.38
   0 -17  14    0.78    0.33
   0 -17  14   -0.15    0.37
   1 -17  14    0.49    0.35
  -1 -17 -14    0.47    0.44
  -2 -17 -14    1.09    0.47
   2 -17  14    1.49    0.40
   3 -17  14    2.75    0.51
  -3 -17 -14    3.11    0.55
   4 -17  14    2.50    0.56
  -4 -17 -14    2.45    0.58
  -3 -18  14    0.85    0.39
   3 -18 -14    1.25    0.64
  -3 -18  14    1.04    0.47
   3 -18 -14    1.68    0.41
  -2 -18  14    0.76    0.45
   2 -18 -14    0.31    0.40
  -2 -18  14    0.64    0.38
  -1 -18  14    0.29    0.34
  -1 -18  14    0.17    0.45
   1 -18 -14    0.30    0.39
   0 -18 -14    0.32    0.44
   0 -18  14    0.45    0.37
  -1 -18 -14    3.69    0.58
   1 -18  14    3.04    0.51
  -2 -18 -14    1.25    0.52
   2 -18  14    1.45    0.44
   3 -18  14    0.96    0.50
  -3 -18 -14    0.87    0.55
  -2 -19  14    0.59    0.43
   2 -19 -14    0.26    0.44
  -2 -19  14   -0.23    0.53
   1 -19 -14    0.93    0.49
  -1 -19  14    1.72    0.56
  -1 -19  14    0.75    0.42
   0 -19 -14    0.67    0.52
   0 -19  14    1.22    0.41
  -1 -19 -14    1.45    0.57
   1 -19  14    1.32    0.48
  10   0 -15    0.16    0.41
   9   0 -15   -0.28    0.34
   8   0 -15   -0.06    0.30
   7   0 -15   40.90    2.07
   5   0 -15   55.96    2.71
   4   0 -15    0.06    0.15
   3   0 -15   13.49    0.75
  -2   0  15    0.11    0.13
   2   0 -15    0.41    0.14
  -1   0  15  166.72    7.79
  -1   0  15  169.97    7.76
   1   0 -15  169.76    7.78
   0   0  15    3.29    0.26
   0   0 -15    3.25    0.25
   0   0  15    3.21    0.27
   1   0  15   26.69    1.39
  -1   0 -15   30.94    1.38
   1   0  15   29.16    1.41
  -2   0 -15   -0.05    0.09
   2   0  15    0.00    0.11
   2   0  15    0.11    0.14
  -3   0 -15    1.52    0.18
   3   0  15    1.83    0.32
   3   0  15    1.52    0.20
  -5   0 -15   14.29    0.73
   5   0  15   14.43    0.77
   5   0  15   14.11    0.90
  -6   0 -15    0.31    0.15
   6   0  15    0.48    0.26
   7   0  15    0.74    0.31
   7   0  15    0.38    0.31
   8   0  15    0.48    0.36
   8   0  15   -0.25    0.35
   9   0  15   -0.58    0.43
  10  -1 -15    0.59    0.39
  10   1 -15   -0.03    0.42
   9  -1 -15    0.73    0.36
   9   1 -15    0.23    0.37
   8  -1 -15    2.57    0.38
   8   1 -15    2.87    0.42
   7  -1 -15    8.79    0.64
   7   1 -15    9.03    0.67
   6  -1 -15    4.39    0.42
   6   1 -15    4.38    0.44
   5  -1 -15   14.97    0.85
   5   1 -15   15.15    0.86
   4  -1 -15   14.26    0.81
   4   1 -15   15.03    0.82
  -3  -1  15    3.22    0.31
   3  -1 -15    3.96    0.32
   3   1 -15    3.19    0.31
  -2  -1  15    8.02    0.48
   2  -1 -15    8.38    0.50
  -2   1  15    7.42    0.49
   2   1 -15    8.41    0.50
   1  -1 -15   12.24    0.68
  -1  -1  15   13.23    0.65
  -1  -1  15   12.87    0.69
  -1   1  15   13.10    0.67
   1   1 -15   13.16    0.68
  -1   1  15   12.22    0.69
   0  -1  15   26.05    1.24
   0  -1  15   25.83    1.23
   0  -1 -15   24.75    1.23
   0   1  15   25.73    1.23
   0   1 -15   24.30    1.23
   0   1  15   25.06    1.24
   1   1  15    1.19    0.19
   2  -1  15    2.19    0.28
   2  -1  15    2.44    0.22
  -2  -1 -15    2.03    0.21
  -2   1 -15    2.07    0.19
   2   1  15    2.01    0.26
   2   1  15    2.14    0.21
   3  -1  15   -0.40    0.24
   3  -1  15   -0.16    0.16
   3  -1  15    0.02    0.13
  -3  -1 -15    0.15    0.11
   3   1  15    0.02    0.16
   3   1  15    0.03    0.12
  -3   1 -15    0.06    0.09
   4  -1  15   30.19    1.62
   4  -1  15   33.17    1.52
  -4  -1 -15   29.17    1.48
   4   1  15   30.02    1.61
   4   1  15   34.11    1.50
  -4   1 -15   29.70    1.46
   5  -1  15    0.06    0.20
   5  -1  15   -0.16    0.21
  -5  -1 -15    0.02    0.15
   5   1  15    0.05    0.21
   5   1  15   -0.12    0.17
  -5   1 -15    0.05    0.12
   6  -1  15    6.59    0.63
   6  -1  15    6.65    0.55
  -6  -1 -15    6.16    0.43
   6   1  15    6.68    0.48
   6   1  15    6.26    0.60
   7  -1  15    3.32    0.44
   7  -1  15    3.55    0.58
   7   1  15    3.59    0.45
   7   1  15    3.58    0.56
   8  -1  15    0.31    0.39
   8  -1  15    0.69    0.36
   8   1  15    0.10    0.35
   9  -1  15    1.62    0.53
   9  -1  15    1.20    0.53
   9   1  15    1.72    0.50
  10  -2 -15    0.43    0.38
  10   2 -15   -0.19    0.45
   9  -2 -15   -0.45    0.32
   9   2 -15   -0.08    0.40
   8  -2 -15    0.81    0.29
   8   2 -15    0.70    0.32
   7  -2 -15    1.41    0.31
   7   2 -15    1.30    0.33
   6  -2 -15    3.64    0.40
   6   2 -15    4.32    0.44
   5  -2 -15    0.30    0.18
   5   2 -15    0.16    0.20
   4  -2 -15    1.20    0.20
   4   2 -15    1.09    0.23
  -3  -2  15    0.49    0.17
   3  -2 -15    0.29    0.15
   3   2 -15    0.50    0.18
  -2  -2  15    0.80    0.16
   2  -2 -15    1.01    0.18
   2   2 -15    1.16    0.19
  -1  -2  15   17.30    0.88
  -1  -2  15   17.69    0.84
   1  -2 -15   16.61    0.87
  -1   2  15   16.24    0.88
  -1   2  15   17.67    0.88
   1   2 -15   17.64    0.88
   0  -2  15   28.55    1.34
   0  -2  15   27.57    1.33
   0  -2 -15   26.99    1.33
   0   2  15   27.66    1.34
   0   2  15   26.75    1.34
   0   2 -15   28.04    1.33
  -1  -2 -15   10.86    0.56
   1  -2  15   10.38    0.57
   1  -2  15   10.39    0.59
   1   2  15   10.31    0.56
  -1   2 -15   10.82    0.54
   1   2  15   10.14    0.58
  -2  -2 -15    7.19    0.42
   2  -2  15    7.25    0.43
   2  -2  15    7.13    0.49
   2   2  15    7.31    0.41
   2   2  15    7.76    0.48
  -2   2 -15    6.93    0.39
   3  -2  15   11.61    0.57
   3  -2  15   11.39    0.60
   3  -2  15   11.30    0.57
   3  -2  15   10.53    0.67
  -3  -2 -15   10.43    0.58
   3   2  15   10.89    0.56
   3   2  15   11.06    0.67
  -3   2 -15    9.60    0.53
   4  -2  15    4.80    0.52
  -4  -2 -15    4.44    0.33
   4  -2  15    4.53    0.37
   4   2  15    4.90    0.48
   4   2  15    4.76    0.31
   5  -2  15    1.16    0.30
   5  -2  15    1.66    0.28
  -5  -2 -15    1.41    0.21
   5   2  15    1.60    0.21
   5   2  15    1.30    0.28
   6  -2  15    0.80    0.29
   6  -2  15    0.93    0.32
  -6  -2 -15    0.48    0.19
   6   2  15    0.78    0.25
   6   2  15    0.33    0.19
  -7  -2 -15    0.98    0.26
   7  -2  15    1.08    0.36
   7  -2  15    0.79    0.31
   7   2  15    0.90    0.33
   7   2  15    0.85    0.27
   8  -2  15    0.53    0.40
   8  -2  15    1.56    0.40
   8   2  15    1.62    0.42
   9  -2  15    1.82    0.55
   9  -2  15    2.25    0.52
   9   2  15    2.20    0.50
  10  -3 -15    1.99    0.46
  10   3 -15    2.15    0.56
   9  -3 -15    0.10    0.32
   9   3 -15   -0.41    0.40
   8  -3 -15    0.29    0.27
   8   3 -15    0.52    0.36
   7  -3 -15    2.04    0.32
   7   3 -15    1.74    0.34
   7   3 -15    2.04    0.37
   6  -3 -15    2.85    0.38
   6   3 -15    2.67    0.41
   6   3 -15    3.01    0.38
   5  -3 -15   27.59    1.41
   5   3 -15   27.81    1.45
   5   3 -15   27.63    1.46
   4  -3 -15    0.19    0.15
  -4  -3  15    0.23    0.20
   4   3 -15    0.05    0.17
   4   3 -15   -0.19    0.17
  -3  -3  15    5.29    0.39
   3  -3 -15    4.89    0.37
   3   3 -15    5.75    0.42
   2  -3 -15    2.79    0.27
  -2  -3  15    2.98    0.27
   2   3 -15    2.68    0.31
  -1  -3  15    0.83    0.11
   1  -3 -15    0.49    0.15
  -1  -3  15    0.60    0.15
  -1   3  15    0.81    0.16
   1   3 -15    0.61    0.15
   0  -3  15    3.40    0.27
   0  -3 -15    3.58    0.27
   0  -3  15    3.58    0.28
   0   3  15    4.35    0.31
   0   3  15    3.39    0.27
   0   3 -15    3.33    0.27
  -1  -3 -15    2.82    0.25
   1  -3  15    3.15    0.28
   1  -3  15    3.22    0.26
  -1   3 -15    3.25    0.23
   1   3  15    2.77    0.24
   1   3  15    3.21    0.28
   2  -3  15    3.93    0.30
   2  -3  15    3.31    0.34
  -2  -3 -15    3.23    0.27
  -2   3 -15    3.41    0.22
  -2   3 -15    3.27    0.25
   2   3  15    3.52    0.32
   2   3  15    3.47    0.25
   3  -3  15    1.40    0.24
  -3  -3 -15    0.75    0.15
   3  -3  15    0.91    0.23
  -3   3 -15    0.95    0.14
   3   3  15    1.25    0.22
   3   3  15    1.00    0.16
  -3   3 -15    0.91    0.12
   4  -3  15    1.98    0.27
   4  -3  15    2.02    0.34
  -4  -3 -15    2.52    0.27
   4   3  15    1.83    0.21
   4   3  15    1.97    0.34
  -5  -3 -15   14.36    0.83
   5  -3  15   14.49    0.98
   5  -3  15   16.55    0.92
   5   3  15   16.56    0.95
   5   3  15   16.86    0.80
   6  -3  15    0.47    0.29
  -6  -3 -15    0.24    0.21
   6  -3  15    0.04    0.28
   6   3  15    0.13    0.17
   6   3  15    0.03    0.23
   7  -3  15    2.19    0.44
  -7  -3 -15    2.80    0.33
   7  -3  15    3.24    0.52
   7   3  15    2.78    0.41
   8  -3  15   -0.11    0.39
   8  -3  15    0.10    0.36
   8   3  15    0.21    0.38
   9  -3  15    1.10    0.53
   9  -3  15    0.98    0.52
   9   3  15    1.25    0.48
   9  -4 -15    1.58    0.34
   9   4 -15    0.96    0.47
   9   4 -15    1.93    0.49
   8  -4 -15   -0.03    0.25
   8   4 -15   -0.38    0.35
   8   4 -15   -0.14    0.34
   7  -4 -15    3.21    0.43
   7   4 -15    3.42    0.51
   7   4 -15    4.00    0.55
   6  -4 -15   -0.07    0.19
   6   4 -15   -0.36    0.25
   6   4 -15    0.00    0.24
   5  -4 -15   13.09    0.74
   5   4 -15   12.16    0.80
   5   4 -15   13.03    0.80
   4  -4 -15    5.12    0.37
  -4  -4  15    4.50    0.41
   4   4 -15    5.24    0.44
   4   4 -15    4.49    0.42
   3  -4 -15    4.86    0.35
  -3  -4  15    4.18    0.36
   3   4 -15    4.47    0.41
   3   4 -15    4.14    0.41
  -2  -4  15    6.65    0.43
   2  -4 -15    6.54    0.41
   2   4 -15    7.13    0.48
   2   4 -15    6.39    0.46
  -1  -4  15    4.05    0.31
   1  -4 -15    3.98    0.31
  -1  -4  15    4.02    0.26
   1   4 -15    4.05    0.32
   0  -4  15    6.13    0.39
   0  -4  15    5.95    0.38
   0  -4 -15    6.40    0.40
   0   4  15    6.66    0.42
   0   4 -15    6.16    0.39
   1  -4  15    0.19    0.13
  -1  -4 -15   -0.04    0.11
   1  -4  15    0.02    0.13
  -1   4 -15   -0.05    0.10
   1   4  15    0.21    0.13
   1   4  15    0.14    0.11
   2  -4  15    0.31    0.15
  -2  -4 -15    0.60    0.15
   2  -4  15    0.51    0.18
   2   4  15    0.34    0.16
   2   4  15    0.53    0.12
  -2   4 -15    0.42    0.09
  -2   4 -15    0.41    0.12
  -3  -4 -15    1.26    0.19
   3  -4  15    1.08    0.24
   3  -4  15    1.44    0.22
   3   4  15    1.48    0.18
   3   4  15    1.34    0.24
   4  -4  15   16.60    0.87
  -4  -4 -15   15.08    0.82
   4  -4  15   13.42    0.95
   4   4  15   15.98    0.76
   4   4  15   15.07    0.88
  -5  -4 -15   18.26    1.03
   5  -4  15   17.63    1.16
   5  -4  15   21.34    1.11
   5   4  15   20.59    1.13
   5   4  15   20.79    0.96
   6  -4  15    2.80    0.47
   6  -4  15    3.54    0.55
  -6  -4 -15    2.42    0.32
   6   4  15    2.77    0.48
   7  -4  15    4.86    0.68
   7  -4  15    4.52    0.57
  -7  -4 -15    5.28    0.51
   7   4  15    5.34    0.59
   8  -4  15    2.20    0.53
   8  -4  15    2.69    0.47
   9  -4  15    1.94    0.57
   9  -4  15    1.58    0.57
   9   4  15    1.76    0.49
   9  -5 -15    0.45    0.34
   9   5 -15    0.41    0.45
   9   5 -15    0.77    0.48
   8  -5 -15    1.25    0.28
   8   5 -15    1.01    0.39
   8   5 -15    1.10    0.36
   7  -5 -15    0.27    0.22
   7   5 -15   -0.18    0.31
   7   5 -15    0.35    0.30
   6  -5 -15    0.25    0.21
   6   5 -15    0.34    0.28
   6   5 -15    1.04    0.28
   5  -5 -15    4.74    0.40
   5   5 -15    4.68    0.50
   5   5 -15    4.97    0.49
  -4  -5  15   18.12    1.03
   4  -5 -15   19.57    1.02
   4   5 -15   19.35    1.08
   4   5 -15   20.57    1.08
  -3  -5  15    9.03    0.58
   3  -5 -15    9.01    0.55
   3   5 -15    9.69    0.61
   3   5 -15    9.94    0.63
  -2  -5  15    0.86    0.18
   2  -5 -15    0.93    0.17
   2   5 -15    0.78    0.22
   2   5 -15    1.13    0.22
  -1  -5  15    5.36    0.32
   1  -5 -15    5.75    0.37
  -1  -5  15    5.49    0.37
   1   5 -15    5.71    0.40
   1   5 -15    5.81    0.40
   0  -5  15    3.13    0.27
   0  -5  15    2.86    0.28
   0  -5 -15    2.80    0.27
   0   5  15    3.51    0.32
   0   5 -15    3.30    0.27
   1  -5  15    0.07    0.15
   1  -5  15    0.06    0.14
  -1  -5 -15    0.14    0.15
   1   5  15    0.19    0.14
  -1   5 -15    0.13    0.11
   2  -5  15    3.95    0.40
  -2  -5 -15    4.71    0.37
   2  -5  15    4.89    0.35
  -2   5 -15    4.29    0.29
   2   5  15    4.51    0.39
   2   5  15    4.40    0.29
  -2   5 -15    4.72    0.27
   3  -5  15    0.54    0.24
   3  -5  15    0.89    0.22
  -3  -5 -15    0.71    0.20
   3   5  15    0.92    0.13
   3   5  15    0.92    0.21
   5  -5  15   11.39    0.72
  -5  -5 -15   10.20    0.67
   5  -5  15    8.65    0.76
   5   5  15   10.48    0.68
   6  -5  15    0.13    0.29
  -6  -5 -15   -0.12    0.23
   6  -5  15   -0.08    0.30
   6   5  15    0.35    0.23
   7  -5  15    0.37    0.37
   7  -5  15   -0.12    0.33
  -7  -5 -15    0.13    0.25
   7   5  15    0.27    0.29
   8  -5  15    0.10    0.44
   8  -5  15    0.22    0.41
  -8  -5 -15    0.17    0.37
   8   5  15    0.49    0.35
   9  -5  15    0.87    0.61
   9  -5  15    1.89    0.56
   9   5  15    1.46    0.49
   9  -6 -15    0.88    0.32
   9   6 -15    0.49    0.51
   9   6 -15    0.72    0.51
   8  -6 -15    0.18    0.25
   8   6 -15    0.49    0.42
   8   6 -15    0.41    0.42
   7  -6 -15   -0.06    0.22
   7   6 -15    0.16    0.33
   7   6 -15   -0.01    0.32
   6  -6 -15    9.03    0.61
   6   6 -15    9.50    0.76
   6   6 -15   10.17    0.74
  -5  -6  15   15.14    0.89
   5  -6 -15   16.54    0.87
   5   6 -15   16.12    0.97
   5   6 -15   14.98    0.95
   4  -6 -15    2.02    0.27
  -4  -6  15    2.03    0.31
   4   6 -15    1.24    0.28
   4   6 -15    1.55    0.30
  -3  -6  15   14.05    0.79
   3  -6 -15   13.69    0.77
   3   6 -15   14.49    0.83
   3   6 -15   14.75    0.85
  -2  -6  15   33.96    1.70
   2  -6 -15   33.44    1.69
   2   6 -15   35.27    1.74
   2   6 -15   36.61    1.74
  -1  -6  15    1.38    0.23
  -1  -6  15    1.04    0.16
   1  -6 -15    0.99    0.16
   1   6 -15    1.19    0.21
   1   6 -15    1.05    0.20
   0  -6  15    0.31    0.13
   0  -6  15    0.40    0.16
   0  -6 -15    0.36    0.14
   0   6  15    0.36    0.17
   0   6 -15    0.02    0.14
   0   6 -15    0.37    0.15
   1  -6  15    5.99    0.44
   1  -6  15    6.69    0.42
  -1  -6 -15    5.85    0.42
   1   6  15    5.83    0.44
  -1   6 -15    5.25    0.37
   2  -6  15    0.13    0.19
   2  -6  15    0.59    0.21
  -2  -6 -15    0.64    0.19
  -2   6 -15    0.01    0.11
  -2   6 -15    0.16    0.10
   2   6  15    0.58    0.18
   3  -6  15   22.11    1.13
  -3  -6 -15   21.31    1.10
   3  -6  15   19.56    1.17
   3   6  15   21.67    1.13
  -4  -6 -15    2.99    0.38
   4  -6  15    2.02    0.39
   4   6  15    2.13    0.36
   5  -6  15    0.56    0.26
   5  -6  15   -0.10    0.29
  -5  -6 -15   -0.22    0.21
   5   6  15    0.14    0.20
   6  -6  15    0.37    0.36
   6  -6  15   -0.02    0.30
  -6  -6 -15   -0.01    0.26
   6   6  15    0.57    0.24
  -7  -6 -15    0.00    0.28
   7  -6  15   -0.64    0.34
   7  -6  15    0.08    0.41
  -8  -6 -15    0.41    0.32
   8  -6  15   -0.67    0.48
   8  -6  15    0.01    0.44
   8   6  15    0.10    0.36
   9  -6  15    1.48    0.63
   9  -6  15    1.68    0.62
   9   6  15    1.96    0.51
   9  -7 -15    1.35    0.36
   9   7 -15    1.42    0.57
   9   7 -15    0.05    0.49
   8  -7 -15    2.82    0.37
   8   7 -15    2.37    0.52
   8   7 -15    3.06    0.56
   7  -7 -15    1.70    0.28
   7   7 -15    1.39    0.44
   7   7 -15    1.01    0.40
   6  -7 -15    2.60    0.37
  -6  -7  15    2.85    0.43
   6   7 -15    1.33    0.39
   6   7 -15    2.04    0.39
   5  -7 -15    1.20    0.23
  -5  -7  15    0.93    0.24
  -5  -7  15    0.94    0.24
  -4  -7  15    2.15    0.31
   4  -7 -15    1.63    0.25
  -4  -7  15    2.23    0.33
   3  -7 -15    5.71    0.41
  -3  -7  15    5.21    0.42
  -3  -7  15    5.57    0.44
  -2  -7  15    1.12    0.25
   2  -7 -15    2.03    0.24
  -2  -7  15    1.42    0.23
   1  -7 -15    1.58    0.22
  -1  -7  15    1.78    0.26
  -1  -7  15    1.33    0.18
   1   7 -15    1.55    0.24
   1   7 -15    1.65    0.24
   0  -7  15    1.67    0.26
   0  -7 -15    1.49    0.21
   0  -7  15    1.97    0.26
   0   7 -15    1.81    0.27
   0   7  15    2.28    0.32
   0   7 -15    1.68    0.22
  -1  -7 -15    0.40    0.15
   1  -7  15    0.20    0.18
   1  -7  15    0.44    0.20
   1   7  15    0.56    0.20
  -1   7 -15    0.27    0.14
   2  -7  15    5.26    0.41
   2  -7  15    4.12    0.45
  -2  -7 -15    4.43    0.38
  -2   7 -15    3.47    0.27
   2   7  15    5.16    0.41
  -2   7 -15    3.88    0.27
   3  -7  15   11.28    0.66
   3  -7  15    8.47    0.70
  -3  -7 -15   10.27    0.63
   3   7  15   10.28    0.64
  -4  -7 -15   33.43    1.62
   4  -7  15   28.24    1.72
   4  -7  15   34.95    1.67
   4   7  15   32.35    1.64
   5  -7  15   -0.48    0.28
   5  -7  15    0.06    0.28
  -5  -7 -15   -0.44    0.23
   5   7  15    0.07    0.20
  -6  -7 -15   -0.14    0.26
   6  -7  15    0.18    0.35
   6  -7  15   -0.20    0.32
   6   7  15   -0.36    0.24
   7  -7  15    3.54    0.60
   7  -7  15    3.05    0.54
  -7  -7 -15    3.37    0.41
   7   7  15    3.14    0.44
  -8  -7 -15    0.51    0.37
   8  -7  15    0.68    0.51
   8  -7  15    0.94    0.49
   8   7  15    0.58    0.37
   9  -8 -15    0.86    0.35
   9  -8 -15   -0.28    0.73
   9   8 -15   -0.05    0.52
   9   8 -15   -0.97    0.53
   8  -8 -15    0.53    0.29
   8   8 -15   -0.24    0.51
   8   8 -15    0.31    0.50
   7  -8 -15   -0.35    0.22
  -7  -8  15   -0.22    0.28
   7   8 -15   -0.08    0.36
   6  -8 -15    6.33    0.50
  -6  -8  15    7.12    0.57
  -5  -8  15    9.41    0.65
   5  -8 -15    9.31    0.60
  -5  -8  15    9.37    0.62
  -4  -8  15    6.22    0.47
   4  -8 -15    5.81    0.43
  -4  -8  15    5.33    0.47
  -3  -8  15   14.20    0.81
   3  -8 -15   14.49    0.80
  -3  -8  15   14.90    0.82
  -2  -8  15   53.13    2.53
  -2  -8  15   54.04    2.53
   2  -8 -15   51.32    2.52
  -1  -8  15    5.96    0.43
  -1  -8  15    6.78    0.44
   1  -8 -15    6.83    0.44
  -1  -8  15    5.74    0.36
   0  -8  15    0.62    0.21
   0  -8 -15    0.40    0.16
   0  -8  15    0.32    0.17
   0   8 -15    0.71    0.20
   0   8 -15    0.31    0.18
   1  -8  15    5.70    0.42
  -1  -8 -15    5.82    0.41
   1  -8  15    4.64    0.45
  -1   8 -15    4.96    0.38
  -1   8 -15    5.12    0.38
   1   8  15    5.36    0.45
  -2  -8 -15    1.21    0.21
   2  -8  15    0.64    0.24
   2   8  15    0.84    0.22
  -2   8 -15    0.59    0.15
  -2   8 -15    0.24    0.17
  -3  -8 -15    0.19    0.20
   3  -8  15    0.14    0.21
   3   8  15   -0.11    0.18
  -4  -8 -15   15.29    0.88
   4  -8  15   15.45    0.92
   4   8  15   15.06    0.89
   5  -8  15    5.53    0.54
  -5  -8 -15    4.56    0.49
   5   8  15    4.25    0.47
  -6  -8 -15    0.74    0.30
   6  -8  15    1.17    0.37
   6   8  15    0.84    0.28
   7  -8  15    0.06    0.44
   7  -8  15   -0.05    0.43
  -7  -8 -15    0.49    0.35
   7   8  15    0.57    0.32
   8  -8  15    1.44    0.54
   8  -8  15   -0.82    0.48
  -8  -8 -15   -0.25    0.39
   8   8  15   -0.28    0.34
   9  -9 -15    6.57    1.09
   9  -9 -15    6.99    0.69
   9   9 -15    7.69    0.93
   9   9 -15    5.49    0.88
  -8  -9  15    0.32    0.36
   8  -9 -15    0.38    0.31
   8  -9 -15    0.89    0.63
   8   9 -15    0.34    0.52
   8   9 -15    0.51    0.53
   7  -9 -15    1.35    0.30
  -7  -9  15    1.19    0.34
  -6  -9  15    1.91    0.34
   6  -9 -15    1.79    0.28
   5  -9 -15    0.99    0.23
  -5  -9  15    1.13    0.26
  -5  -9  15    0.99    0.29
   4  -9 -15    0.08    0.19
  -4  -9  15   -0.32    0.19
  -4  -9  15    0.02    0.21
   3  -9 -15   26.86    1.40
  -3  -9  15   27.71    1.42
  -3  -9  15   29.05    1.42
  -2  -9  15    9.45    0.65
   2  -9 -15   11.79    0.64
  -2  -9  15   11.01    0.64
   1  -9 -15   31.86    1.55
  -1  -9  15   31.63    1.55
  -1  -9  15   32.94    1.55
  -1  -9  15   28.91    1.48
   0  -9 -15    7.69    0.51
   0  -9  15    8.14    0.51
   0  -9  15    8.31    0.48
   0  -9  15    7.52    0.51
   1  -9  15    1.00    0.21
   1  -9  15    0.22    0.21
  -1   9 -15    0.46    0.19
  -1   9 -15    0.31    0.18
   1   9  15    0.64    0.21
  -2  -9 -15    1.13    0.24
   2  -9  15    0.79    0.24
   2   9  15    0.68    0.21
  -2   9 -15    0.48    0.15
  -3  -9 -15   11.21    0.71
   3  -9  15   11.58    0.71
   3   9  15   10.85    0.70
  -4  -9 -15    0.37    0.25
   4  -9  15    0.42    0.26
   4   9  15    0.27    0.22
   5  -9  15    5.77    0.60
  -5  -9 -15    4.67    0.52
   5   9  15    4.98    0.51
  -6  -9 -15    8.89    0.72
   6  -9  15    9.81    0.82
   6   9  15    8.84    0.71
   7  -9  15   -0.07    0.44
  -7  -9 -15    1.71    0.42
   7   9  15    1.01    0.33
  -8  -9 -15    0.75    0.45
   8  -9  15   -0.11    0.54
   8  -9  15    0.70    0.56
   8   9  15   -0.14    0.36
  -8 -10  15    0.59    0.39
   8 -10 -15   -0.33    0.61
   8 -10 -15    0.08    0.31
   7 -10 -15    0.43    0.26
  -7 -10  15   -0.30    0.33
   7 -10 -15    0.07    0.57
   6 -10 -15    3.60    0.41
  -6 -10  15    3.63    0.45
  -6 -10  15    4.66    0.50
   6 -10 -15    4.36    0.66
  -5 -10  15    0.24    0.23
   5 -10 -15    0.55    0.24
  -5 -10  15    0.52    0.26
  -4 -10  15   12.19    0.73
   4 -10 -15   11.04    0.71
  -4 -10  15   12.71    0.76
  -3 -10  15    9.97    0.66
  -3 -10  15   12.12    0.70
   3 -10 -15   10.56    0.65
  -2 -10  15   12.84    0.75
  -2 -10  15   12.39    0.74
   2 -10 -15   12.71    0.73
   1 -10 -15    2.83    0.33
  -1 -10  15    3.46    0.41
  -1 -10  15    3.89    0.36
  -1 -10  15    2.72    0.27
   0 -10  15    0.26    0.20
   0 -10  15    0.11    0.17
   0 -10 -15    0.21    0.26
   0 -10  15    0.27    0.19
   0 -10 -15   -0.13    0.17
  -1 -10 -15   19.23    1.09
   1 -10  15   23.10    1.14
  -1 -10 -15   22.93    1.16
  -2 -10 -15   11.80    0.71
   2 -10  15   12.00    0.71
  -2  10 -15   10.44    0.62
   2  10  15   11.40    0.72
  -2  10 -15   11.29    0.62
   3 -10  15    3.32    0.40
  -3 -10 -15    2.63    0.41
   3  10  15    2.65    0.41
   4 -10  15    0.35    0.27
  -4 -10 -15    0.16    0.26
   4  10  15    0.13    0.21
  -5 -10 -15    2.66    0.39
   5  10  15    2.60    0.43
   6 -10  15    0.41    0.41
  -6 -10 -15    0.66    0.36
   6  10  15    0.26    0.27
  -7 -10 -15    2.30    0.46
   7 -10  15    1.66    0.53
   7  10  15    2.14    0.39
  -8 -10 -15    1.42    0.49
   8 -10  15    1.31    0.62
   8  10  15    0.79    0.38
   8 -11 -15    0.34    0.69
   8 -11 -15    0.38    0.33
  -8 -11  15    0.24    0.39
  -7 -11  15    0.70    0.37
   7 -11 -15    0.22    0.28
   7 -11 -15    0.41    0.55
  -6 -11  15    1.74    0.37
  -6 -11  15    1.54    0.34
   6 -11 -15    2.01    0.30
   6 -11 -15    1.04    0.57
   5 -11 -15    0.82    0.24
  -5 -11  15    0.37    0.27
   5 -11 -15   -0.08    0.48
  -5 -11  15    0.15    0.25
   4 -11 -15    0.62    0.44
  -4 -11  15    0.00    0.21
   4 -11 -15    0.22    0.21
  -4 -11  15    0.18    0.24
  -3 -11  15   22.73    1.22
   3 -11 -15   22.74    1.21
  -3 -11  15   24.05    1.24
   3 -11 -15   23.58    1.45
  -2 -11  15    2.94    0.33
  -2 -11  15    2.55    0.36
   2 -11 -15    2.27    0.33
  -1 -11  15    0.49    0.15
   1 -11 -15    0.32    0.31
  -1 -11  15    0.38    0.20
  -1 -11  15    0.21    0.21
   1 -11 -15    0.24    0.19
   0 -11 -15   14.14    0.89
   0 -11  15   16.11    0.85
   0 -11  15   14.27    0.85
   0 -11 -15   15.92    0.88
   0 -11  15   17.12    0.88
   1 -11  15    0.63    0.22
   1 -11  15    0.88    0.19
  -1 -11 -15    0.28    0.22
  -2 -11 -15   25.26    1.33
   2 -11  15   28.30    1.33
  -2  11 -15   23.51    1.23
   2  11  15   23.54    1.31
  -2  11 -15   23.79    1.23
  -3 -11 -15    3.89    0.46
   3 -11  15    3.97    0.47
   3  11  15    2.78    0.45
   4 -11  15    5.01    0.54
   4  11  15    4.37    0.50
   5 -11  15    1.88    0.42
  -5 -11 -15    1.52    0.36
   5  11  15    1.11    0.31
   6 -11  15    5.00    0.75
  -6 -11 -15    4.59    0.64
   6  11  15    3.67    0.53
   7 -11  15    0.24    0.51
  -7 -11 -15    0.59    0.44
   7  11  15   -0.02    0.33
   7 -12 -15   -0.92    0.59
  -7 -12  15    0.18    0.40
   7 -12 -15   -0.54    0.28
   6 -12 -15    0.53    0.25
   6 -12 -15   -0.35    0.59
  -6 -12  15    0.08    0.32
  -6 -12  15    0.23    0.33
  -5 -12  15    0.12    0.29
   5 -12 -15    0.36    0.24
   5 -12 -15   -0.30    0.45
  -5 -12  15    0.17    0.26
  -4 -12  15    0.68    0.26
   4 -12 -15    0.83    0.24
   4 -12 -15    0.33    0.47
  -4 -12  15    0.52    0.28
  -3 -12  15    0.11    0.24
   3 -12 -15    0.20    0.52
  -3 -12  15    0.73    0.23
   3 -12 -15    0.78    0.24
   2 -12 -15   11.20    0.70
  -2 -12  15   11.95    0.72
   2 -12 -15    9.59    0.84
  -2 -12  15   12.37    0.70
  -1 -12  15   -0.01    0.20
  -1 -12  15   -0.34    0.20
   1 -12 -15    0.30    0.31
   1 -12 -15   -0.14    0.21
   0 -12 -15   11.44    0.76
   0 -12  15   13.71    0.75
   0 -12  15   12.37    0.76
   0 -12 -15   13.04    0.77
   1 -12  15   -0.07    0.19
  -1 -12 -15    0.26    0.25
   1 -12  15    0.23    0.22
  -2 -12 -15    0.89    0.29
   2 -12  15    1.22    0.28
  -3 -12 -15    6.88    0.62
   3 -12  15    6.11    0.55
   3  12  15    5.70    0.58
   4 -12  15    0.40    0.33
  -4 -12 -15    0.53    0.33
   4  12  15    0.27    0.27
  -5 -12 -15    1.91    0.42
   5 -12  15    1.96    0.47
   5  12  15    1.61    0.35
  -6 -12 -15    1.04    0.39
   6 -12  15    1.84    0.48
   6  12  15    0.89    0.33
   7 -12  15   -0.44    0.54
  -7 -12 -15    0.58    0.51
   7  12  15   -0.12    0.34
  -7 -13  15    2.94    0.51
   7 -13 -15    3.34    0.80
   7 -13 -15    2.11    0.39
   6 -13 -15    0.52    0.61
  -6 -13  15    0.29    0.36
   6 -13 -15   -0.32    0.27
  -6 -13  15    0.32    0.34
   5 -13 -15    4.19    0.69
   5 -13 -15    4.48    0.45
  -5 -13  15    4.11    0.54
  -5 -13  15    4.21    0.53
  -4 -13  15    4.36    0.47
   4 -13 -15    3.62    0.43
   4 -13 -15    4.05    0.65
  -4 -13  15    3.60    0.43
   3 -13 -15   12.61    1.10
  -3 -13  15   15.11    0.90
   3 -13 -15   15.54    0.90
  -3 -13  15   16.02    0.88
   2 -13 -15   19.83    1.26
   2 -13 -15   20.60    1.14
  -2 -13  15   21.91    1.15
  -2 -13  15   21.79    1.14
   1 -13 -15    1.10    0.35
  -1 -13  15    1.09    0.26
  -1 -13  15    1.04    0.27
   1 -13 -15    0.26    0.26
   0 -13  15    1.57    0.29
   0 -13  15    2.11    0.31
   0 -13 -15    2.35    0.33
   0 -13 -15    2.09    0.39
   1 -13  15    0.30    0.26
   1 -13  15    0.31    0.22
  -1 -13 -15    0.67    0.27
  -2 -13 -15    0.21    0.30
   2 -13  15    0.91    0.30
  -3 -13 -15   16.26    0.98
   3 -13  15   16.13    0.96
   3  13  15   13.69    0.95
   4 -13  15    0.55    0.38
  -4 -13 -15    0.95    0.39
   4  13  15    0.13    0.29
   5 -13  15    0.57    0.42
  -5 -13 -15    0.31    0.39
   5  13  15    0.17    0.31
   6 -13  15    9.96    0.98
  -6 -13 -15    8.10    0.90
   6  13  15    7.59    0.74
   6 -14 -15    0.26    0.32
  -6 -14  15    0.83    0.43
   6 -14 -15    0.69    0.67
  -6 -14  15    0.88    0.40
   5 -14 -15    1.05    0.33
  -5 -14  15    0.75    0.35
   5 -14 -15    0.15    0.59
  -5 -14  15    0.70    0.34
  -4 -14  15   -0.01    0.30
  -4 -14  15    0.48    0.29
   4 -14 -15    0.00    0.26
   4 -14 -15    0.47    0.52
  -3 -14  15   10.43    0.69
   3 -14 -15    7.47    0.92
  -3 -14  15   10.34    0.72
   3 -14 -15   10.76    0.71
  -2 -14  15    0.11    0.23
   2 -14 -15    0.27    0.26
   2 -14 -15   -0.35    0.41
  -2 -14  15    0.32    0.27
  -1 -14  15    0.60    0.25
  -1 -14  15    0.25    0.26
   1 -14 -15    0.40    0.28
   1 -14 -15    0.23    0.34
   0 -14  15    0.49    0.27
   0 -14 -15    0.10    0.28
   0 -14  15   -0.04    0.24
   1 -14  15    0.53    0.26
  -1 -14 -15    0.11    0.29
   1 -14  15    0.22    0.30
  -2 -14 -15    0.02    0.31
   2 -14  15    0.37    0.31
  -3 -14 -15    4.64    0.61
   3 -14  15    5.72    0.64
  -4 -14 -15    0.52    0.39
   4 -14  15    0.84    0.39
   4  14  15    0.34    0.32
   5 -14  15    7.20    0.86
  -5 -14 -15    5.70    0.68
   5  14  15    5.33    0.66
  -6 -14 -15    0.21    0.51
   6 -14  15    0.67    0.57
   6  14  15   -0.14    0.35
  -6 -15  15    1.83    0.48
  -6 -15  15    1.05    0.45
   6 -15 -15    1.02    0.38
   6 -15 -15    0.49    0.73
   5 -15 -15   -0.08    0.63
   5 -15 -15    1.04    0.35
  -5 -15  15   -0.37    0.39
  -5 -15  15    0.47    0.37
  -4 -15  15    1.35    0.39
   4 -15 -15    1.80    0.62
   4 -15 -15    0.27    0.33
  -4 -15  15    1.10    0.34
  -3 -15  15    1.60    0.36
   3 -15 -15    1.08    0.54
   3 -15 -15    1.36    0.33
  -3 -15  15    1.60    0.32
  -2 -15  15   -0.06    0.26
   2 -15 -15   -0.29    0.29
   2 -15 -15   -0.16    0.47
  -2 -15  15    0.30    0.30
   1 -15 -15    3.94    0.50
  -1 -15  15    3.04    0.48
  -1 -15  15    4.32    0.49
   0 -15 -15    1.90    0.38
   0 -15  15    2.02    0.35
   0 -15  15    1.57    0.35
  -1 -15 -15    1.70    0.39
   1 -15  15    1.81    0.35
  -2 -15 -15    1.06    0.39
   2 -15  15    0.45    0.33
  -3 -15 -15    4.39    0.67
   3 -15  15    5.43    0.61
   4 -15  15    1.03    0.47
  -4 -15 -15    0.93    0.48
   5 -15  15    6.03    0.73
  -5 -15 -15    6.07    0.85
   5  15  15    4.64    0.66
  -5 -16  15    2.83    0.50
   5 -16 -15    1.40    0.41
   5 -16 -15    2.33    0.80
  -5 -16  15    1.73    0.47
   4 -16 -15    0.33    0.35
   4 -16 -15   -0.12    0.59
  -4 -16  15    0.21    0.37
  -4 -16  15    0.96    0.38
   3 -16 -15    1.05    0.39
  -3 -16  15    0.82    0.37
   3 -16 -15   -0.08    0.58
  -3 -16  15    0.91    0.34
   2 -16 -15    2.82    0.46
   2 -16 -15    3.50    0.62
  -2 -16  15    3.32    0.46
  -2 -16  15    3.06    0.50
   1 -16 -15    0.36    0.35
  -1 -16  15    0.22    0.30
  -1 -16  15   -0.21    0.34
   0 -16  15    7.97    0.62
   0 -16 -15    6.26    0.70
   0 -16  15    6.52    0.67
   1 -16  15    0.29    0.32
  -1 -16 -15    0.14    0.38
  -2 -16 -15    0.64    0.40
   2 -16  15    0.54    0.36
   3 -16  15    0.31    0.39
  -3 -16 -15    0.92    0.46
  -4 -16 -15    7.77    0.92
   4 -16  15    7.77    0.84
  -4 -17  15    2.34    0.45
   4 -17 -15    1.58    0.41
   4 -17 -15   -0.16    0.70
  -4 -17  15    1.75    0.48
   3 -17 -15    0.20    0.38
   3 -17 -15    0.73    0.60
  -3 -17  15    0.22    0.41
  -3 -17  15    0.53    0.38
  -2 -17  15    2.59    0.40
   2 -17 -15    2.85    0.46
  -2 -17  15    1.61    0.44
  -1 -17  15    0.29    0.31
  -1 -17  15    0.54    0.39
   1 -17 -15    0.65    0.40
   0 -17 -15    6.99    0.78
   0 -17  15    6.95    0.65
  -1 -17 -15    6.16    0.77
   1 -17  15    7.63    0.70
   2 -17  15    0.33    0.37
  -2 -17 -15    0.08    0.43
  -3 -17 -15    0.69    0.49
   3 -17  15   -0.36    0.42
   4 -17  15    0.91    0.54
  -4 -17 -15    0.06    0.54
   3 -18 -15    1.64    0.48
  -3 -18  15    2.13    0.57
  -3 -18  15    2.66    0.49
   2 -18 -15    2.39    0.46
  -2 -18  15    2.40    0.51
  -2 -18  15    2.19    0.44
  -1 -18  15    2.03    0.45
   1 -18 -15    1.79    0.47
  -1 -18  15    1.90    0.51
   0 -18  15    0.22    0.37
   0 -18 -15    0.37    0.43
  -1 -18 -15   -0.11    0.45
   1 -18  15    0.45    0.39
  -2 -18 -15    1.15    0.54
   2 -18  15    0.83    0.44
  10   0 -16    0.57    0.44
   9   0 -16    0.49    0.35
   8   0 -16    1.21    0.35
   7   0 -16    0.23    0.25
   6   0 -16    3.22    0.40
   5   0 -16    0.36    0.19
   4   0 -16   32.46    1.62
   3   0 -16    0.35    0.15
  -2   0  16    1.87    0.25
   2   0 -16    2.06    0.26
   0   0 -16    7.92    0.47
   0   0  16    8.38    0.48
   0   0  16    8.66    0.49
  -1   0 -16    0.11    0.10
   1   0  16    0.51    0.14
   1   0  16    0.27    0.13
   2   0  16    5.07    0.34
  -2   0 -16    4.92    0.32
   2   0  16    5.34    0.40
   3   0  16    0.79    0.21
  -3   0 -16    0.61    0.13
   3   0  16    0.78    0.16
   4   0  16   12.90    0.80
  -4   0 -16   11.28    0.64
   4   0  16   13.57    0.68
  -5   0 -16   -0.13    0.14
   5   0  16    0.41    0.23
   5   0  16    0.08    0.18
   6   0  16   43.12    2.06
   6   0  16   41.80    2.20
   7   0  16   -0.24    0.31
   7   0  16   -0.16    0.31
   8   0  16    0.53    0.38
   8   0  16    0.06    0.37
   9   0  16    0.99    0.51
  10  -1 -16    0.65    0.43
  10   1 -16    1.68    0.52
   9  -1 -16    2.28    0.43
   9   1 -16    2.56    0.46
   8  -1 -16    0.20    0.27
   8   1 -16    0.07    0.30
   7  -1 -16   -0.19    0.24
   7   1 -16   -0.10    0.26
   6  -1 -16   28.41    1.49
   6   1 -16   29.10    1.50
   5  -1 -16    0.49    0.19
   5   1 -16    0.54    0.21
   4   1 -16    2.86    0.33
   3  -1 -16   -0.07    0.13
  -3  -1  16    0.04    0.16
   3   1 -16    0.17    0.15
  -2  -1  16   -0.09    0.14
   2  -1 -16    0.44    0.15
  -2   1  16   -0.10    0.14
   2   1 -16    0.24    0.16
  -1  -1  16   32.22    1.49
  -1  -1  16   30.67    1.52
   1  -1 -16   31.37    1.52
  -1   1  16   30.28    1.52
  -1   1  16   31.71    1.51
   1   1 -16   31.36    1.52
   0  -1 -16    1.31    0.17
   0  -1  16    1.60    0.21
   0  -1  16    1.68    0.20
   0   1  16    1.70    0.21
   0   1  16    1.33    0.19
   0   1 -16    1.79    0.20
   1  -1  16   25.60    1.27
  -1  -1 -16   25.55    1.23
   1  -1  16   24.87    1.24
   1   1  16   25.26    1.24
   1   1  16   24.96    1.26
  -1   1 -16   26.34    1.23
  -2  -1 -16   22.62    1.09
   2  -1  16   22.66    1.10
   2  -1  16   21.91    1.15
   2   1  16   22.26    1.15
   2   1  16   22.36    1.09
  -2   1 -16   21.82    1.07
   3  -1  16   21.63    1.01
   3  -1  16   19.76    1.09
  -3  -1 -16   18.93    0.98
   3   1  16   21.21    0.99
   3   1  16   19.68    1.08
  -3   1 -16   18.79    0.96
  -4  -1 -16    3.03    0.28
   4  -1  16    3.72    0.33
   4  -1  16    3.77    0.45
   4   1  16    3.54    0.30
  -4   1 -16    3.69    0.26
   4   1  16    2.94    0.41
  -5  -1 -16    1.91    0.26
   5  -1  16    1.33    0.28
   5   1  16    1.34    0.27
  -6  -1 -16    3.95    0.36
   6  -1  16    4.64    0.50
   6  -1  16    5.11    0.56
   6   1  16    5.28    0.41
   6   1  16    4.17    0.53
   7  -1  16    3.57    0.41
   7  -1  16    2.98    0.46
   7   1  16    2.62    0.44
   7   1  16    4.36    0.45
   8  -1  16   -0.13    0.35
   8  -1  16    0.00    0.40
   8   1  16   -0.03    0.38
   9  -1  16    2.59    0.62
   9   1  16    2.73    0.57
   9  -2 -16    0.14    0.34
   9   2 -16   -0.06    0.37
   8  -2 -16    0.40    0.28
   8   2 -16    1.00    0.36
   7  -2 -16    1.29    0.29
   7   2 -16    1.44    0.31
   6  -2 -16    5.30    0.48
   6   2 -16    5.60    0.51
   5  -2 -16    1.48    0.25
   5   2 -16    1.50    0.27
   4  -2 -16    5.30    0.40
   4   2 -16    5.12    0.43
  -3  -2  16    0.84    0.21
   3  -2 -16    0.96    0.18
   3   2 -16    0.94    0.20
   2  -2 -16    1.85    0.23
  -2  -2  16    1.52    0.25
   2   2 -16    1.94    0.28
  -1  -2  16   11.80    0.64
  -1  -2  16   12.22    0.60
   1  -2 -16   10.99    0.64
   1   2 -16   11.22    0.64
  -1   2  16   12.11    0.64
  -1   2  16   11.31    0.64
   0  -2  16    0.96    0.17
   0  -2 -16    1.31    0.20
   0  -2  16    1.14    0.19
   0   2  16    1.30    0.22
   0   2  16    0.81    0.17
   0   2 -16    0.94    0.15
  -1  -2 -16   23.94    1.18
   1  -2  16   24.27    1.18
   1  -2  16   23.39    1.20
   1   2  16   23.90    1.20
   1   2  16   24.54    1.18
  -1   2 -16   24.20    1.16
   2  -2  16   34.45    1.62
  -2  -2 -16   33.07    1.61
   2  -2  16   32.59    1.67
   2   2  16   34.49    1.61
   2   2  16   33.98    1.67
  -2   2 -16   33.25    1.58
   3  -2  16    4.02    0.32
   3  -2  16    4.13    0.42
  -3  -2 -16    3.28    0.29
   3   2  16    3.92    0.40
  -3   2 -16    3.39    0.23
   3   2  16    3.60    0.27
   4  -2  16   11.64    0.80
  -4  -2 -16   11.93    0.66
   4  -2  16   12.48    0.69
   4   2  16   12.72    0.65
   4   2  16   12.63    0.78
   5  -2  16    8.12    0.67
   5  -2  16    9.24    0.60
  -5  -2 -16    8.14    0.51
   5   2  16    8.79    0.50
   5   2  16    8.04    0.63
  -6  -2 -16    0.68    0.20
   6  -2  16    0.55    0.31
   6  -2  16    0.66    0.29
   6   2  16    0.32    0.20
   6   2  16    0.38    0.26
   7  -2  16    0.58    0.30
   7  -2  16    0.54    0.34
   7   2  16    0.61    0.31
   8  -2  16    0.53    0.41
   8  -2  16   -0.09    0.36
   8   2  16    0.59    0.37
   9  -2  16   -0.11    0.50
   9  -2  16    0.53    0.47
   9   2  16    0.14    0.49
   9  -3 -16    1.96    0.39
   9   3 -16    2.04    0.50
   8  -3 -16    0.93    0.30
   8   3 -16    0.78    0.39
   7  -3 -16    2.11    0.35
   7   3 -16    3.68    0.49
   6  -3 -16    6.44    0.51
   6   3 -16    5.89    0.55
   6   3 -16    8.15    0.59
   5  -3 -16   21.34    1.14
   5   3 -16   21.97    1.18
   5   3 -16   20.91    1.17
   4  -3 -16    1.69    0.26
  -4  -3  16    1.69    0.27
   4   3 -16    1.27    0.24
   3  -3 -16    8.12    0.50
  -3  -3  16    7.96    0.53
   3   3 -16    8.63    0.55
  -2  -3  16    0.41    0.16
   2  -3 -16    0.38    0.14
   2   3 -16    0.67    0.20
  -1  -3  16   12.37    0.67
  -1  -3  16   12.24    0.62
   1  -3 -16   11.05    0.66
   1   3 -16   12.34    0.67
  -1   3  16   12.84    0.67
   0  -3  16   50.74    2.37
   0  -3  16   51.14    2.36
   0  -3 -16   49.87    2.37
   0   3 -16   50.04    2.36
   0   3  16   47.64    2.37
   0   3  16   51.17    2.38
  -1  -3 -16   17.50    0.86
   1  -3  16   16.49    0.88
   1  -3  16   17.17    0.86
   1   3  16   15.63    0.84
   1   3  16   17.20    0.88
  -1   3 -16   16.95    0.83
  -2  -3 -16    8.09    0.49
   2  -3  16    8.41    0.56
  -2   3 -16    7.79    0.44
   2   3  16    8.70    0.47
   2   3  16    9.21    0.55
   3  -3  16    9.17    0.61
   3  -3  16    9.95    0.54
  -3  -3 -16    8.67    0.51
   3   3  16    9.14    0.48
   3   3  16    8.58    0.59
  -3   3 -16    8.13    0.45
  -3   3 -16    8.27    0.44
  -4  -3 -16   25.79    1.28
   4  -3  16   26.23    1.31
   4  -3  16   24.43    1.42
   4   3  16   26.23    1.37
   4   3  16   26.75    1.25
  -5  -3 -16   35.43    1.81
   5  -3  16   38.12    1.87
   5  -3  16   35.61    1.95
   5   3  16   40.35    1.78
   5   3  16   37.83    1.93
  -6  -3 -16    0.02    0.22
   6  -3  16    0.12    0.29
   6  -3  16   -0.04    0.26
   6   3  16    0.00    0.25
  -7  -3 -16   13.58    0.84
   7  -3  16   12.75    0.83
   7  -3  16   11.72    0.96
   7   3  16   13.82    0.92
   8  -3  16   -0.08    0.38
   8  -3  16    0.10    0.40
   8   3  16    0.44    0.38
   9  -3  16    0.70    0.55
   9  -3  16    1.59    0.53
   9   3  16    0.37    0.51
   9  -4 -16    6.98    0.67
   9   4 -16    8.12    0.86
   8  -4 -16    1.34    0.30
   8   4 -16    1.42    0.38
   8   4 -16    1.77    0.39
   7  -4 -16    0.14    0.22
   7   4 -16   -0.11    0.30
   7   4 -16    0.62    0.30
   6  -4 -16    2.78    0.36
   6   4 -16    2.18    0.35
   6   4 -16    1.85    0.32
   5  -4 -16    0.46    0.19
   5   4 -16    0.09    0.22
   5   4 -16    0.29    0.22
  -4  -4  16    0.86    0.21
   4  -4 -16    0.42    0.17
   4   4 -16    0.65    0.22
   4   4 -16    0.36    0.23
   3  -4 -16    5.12    0.36
  -3  -4  16    4.60    0.40
   3   4 -16    4.88    0.42
   3   4 -16    5.31    0.44
   2  -4 -16    0.17    0.12
  -2  -4  16    0.05    0.14
   2   4 -16    0.13    0.19
   1  -4 -16    0.23    0.13
  -1  -4  16    0.15    0.09
  -1  -4  16    0.06    0.14
   1   4 -16    0.06    0.15
   0  -4  16   18.43    0.93
   0  -4 -16   18.44    0.94
   0  -4  16   18.79    0.94
   0   4 -16   18.25    0.93
   0   4  16   18.27    0.95
  -1  -4 -16   -0.01    0.13
   1  -4  16   -0.04    0.14
   1  -4  16    0.01    0.14
  -1   4 -16    0.25    0.11
   1   4  16   -0.06    0.12
   1   4  16    0.01    0.13
   2  -4  16    6.77    0.50
   2  -4  16    7.87    0.46
  -2  -4 -16    6.47    0.45
   2   4  16    6.95    0.40
   2   4  16    7.25    0.48
  -2   4 -16    6.73    0.38
  -3  -4 -16    2.68    0.32
   3  -4  16    2.81    0.42
   3  -4  16    3.62    0.36
   3   4  16    3.47    0.37
   3   4  16    3.50    0.26
  -4  -4 -16   22.86    1.15
   4  -4  16   24.61    1.19
   4  -4  16   20.29    1.26
   4   4  16   21.69    1.08
   4   4  16   22.83    1.21
  -5  -4 -16   15.27    0.88
   5  -4  16   16.81    0.94
   5  -4  16   14.71    1.02
   5   4  16   15.49    0.95
   5   4  16   17.77    0.85
   6  -4  16    0.54    0.27
  -6  -4 -16   -0.19    0.26
   6  -4  16    0.21    0.30
   6   4  16   -0.11    0.24
   7  -4  16    0.89    0.39
   7  -4  16    0.49    0.32
  -7  -4 -16    0.77    0.29
   7   4  16    0.70    0.34
   8  -4  16    3.78    0.62
   8  -4  16    4.51    0.65
   8   4  16    6.11    0.76
   9  -4  16    2.23    0.64
   9  -4  16    2.31    0.59
   9   4  16    3.08    0.59
   9  -5 -16    3.15    0.46
   9   5 -16    3.82    0.62
   9   5 -16    3.17    0.58
   8  -5 -16    0.68    0.29
   8   5 -16    0.23    0.42
   8   5 -16    1.24    0.43
   7  -5 -16    6.75    0.54
   7   5 -16    6.62    0.66
   7   5 -16    7.81    0.70
   6  -5 -16    6.01    0.47
   6   5 -16    4.21    0.54
   6   5 -16    6.28    0.58
   5  -5 -16    5.34    0.44
   5   5 -16    5.31    0.50
   5   5 -16    4.34    0.49
   4  -5 -16   40.36    1.97
  -4  -5  16   38.61    1.98
   4   5 -16   41.06    2.02
   4   5 -16   41.11    2.02
   3  -5 -16    0.10    0.14
  -3  -5  16   -0.08    0.18
   3   5 -16    0.23    0.20
   3   5 -16   -0.28    0.20
  -2  -5  16    0.37    0.16
   2  -5 -16    0.32    0.14
   2   5 -16    0.22    0.22
   2   5 -16    0.20    0.21
   1  -5 -16   12.01    0.68
  -1  -5  16   12.69    0.63
  -1  -5  16   12.71    0.70
   1   5 -16   13.05    0.71
   0  -5  16    1.68    0.24
   0  -5  16    1.60    0.23
   0  -5 -16    1.63    0.24
   0   5 -16    1.64    0.23
   0   5  16    2.04    0.29
  -1  -5 -16    8.45    0.52
   1  -5  16    8.77    0.52
   1  -5  16    7.89    0.53
   1   5  16    8.44    0.53
  -1   5 -16    8.45    0.47
   2  -5  16   17.38    0.86
   2  -5  16   15.83    0.89
  -2  -5 -16   14.35    0.85
  -2   5 -16   16.42    0.77
  -2   5 -16   15.07    0.78
   2   5  16   16.85    0.88
   2   5  16   15.12    0.79
  -3  -5 -16   12.34    0.75
   3  -5  16   12.17    0.82
   3  -5  16   14.73    0.76
   3   5  16   13.85    0.78
   3   5  16   12.89    0.67
   4  -5  16   17.95    0.91
   4  -5  16   14.08    0.98
  -4  -5 -16   15.23    0.87
   4   5  16   15.23    0.77
   4   5  16   14.62    0.89
  -5  -5 -16    4.84    0.47
   5  -5  16    5.95    0.52
   5  -5  16    4.52    0.56
   5   5  16    5.43    0.49
   6  -5  16    0.59    0.36
  -6  -5 -16    0.08    0.25
   6  -5  16    0.14    0.29
   6   5  16    0.39    0.25
  -7  -5 -16    0.11    0.29
   7  -5  16    0.25    0.39
   7  -5  16   -0.21    0.32
   7   5  16    0.29    0.32
   8  -5  16    1.49    0.54
   8  -5  16    1.96    0.46
   8   5  16    2.14    0.43
   9  -6 -16    2.93    0.42
   9   6 -16    2.33    0.57
   9   6 -16    1.76    0.53
   8  -6 -16    9.47    0.65
   8   6 -16    6.64    0.88
   8   6 -16    9.31    0.92
   7  -6 -16    0.34    0.24
   7   6 -16    0.12    0.34
   7   6 -16    0.07    0.35
   6  -6 -16    2.98    0.39
   6   6 -16    2.69    0.40
   6   6 -16    3.38    0.45
   5  -6 -16    2.77    0.33
  -5  -6  16    2.29    0.35
   5   6 -16    2.72    0.39
   5   6 -16    2.50    0.38
   4  -6 -16    3.93    0.36
  -4  -6  16    3.46    0.37
   4   6 -16    2.92    0.46
   4   6 -16    4.05    0.49
   3  -6 -16   19.47    1.03
  -3  -6  16   19.75    1.06
   3   6 -16   20.79    1.09
   3   6 -16   20.09    1.10
   2  -6 -16    8.47    0.50
  -2  -6  16    8.28    0.53
   2   6 -16    8.26    0.58
   2   6 -16    7.85    0.59
  -1  -6  16    2.15    0.20
  -1  -6  16    2.50    0.28
   1  -6 -16    2.06    0.25
   1   6 -16    2.34    0.29
   0  -6 -16   22.74    1.14
   0  -6  16   22.59    1.12
   0  -6  16   22.65    1.14
   0   6 -16   22.78    1.13
   0   6  16   22.27    1.16
  -1  -6 -16   16.81    0.87
   1  -6  16   15.23    0.88
   1  -6  16   16.94    0.88
  -1   6 -16   16.45    0.83
   1   6  16   16.46    0.89
  -2  -6 -16    4.40    0.38
   2  -6  16    5.06    0.39
   2  -6  16    4.16    0.43
  -2   6 -16    3.32    0.28
  -2   6 -16    4.12    0.26
   3  -6  16   18.21    1.14
  -3  -6 -16   20.96    1.07
   3  -6  16   21.66    1.09
   3   6  16   20.53    1.09
   4  -6  16   17.39    1.16
  -4  -6 -16   19.77    1.05
   4  -6  16   21.16    1.08
   4   6  16   19.73    1.08
   5  -6  16    3.70    0.58
   5  -6  16    4.41    0.49
  -5  -6 -16    4.19    0.45
   5   6  16    3.46    0.45
   6  -6  16    0.54    0.32
   6  -6  16    0.85    0.36
  -6  -6 -16    1.10    0.29
   6   6  16    0.75    0.29
  -7  -6 -16    0.06    0.30
   7  -6  16   -0.30    0.35
   7  -6  16    0.30    0.42
   7   6  16   -0.43    0.30
   8  -6  16    0.95    0.48
   8  -6  16    1.49    0.52
   8   6  16    1.34    0.41
   9  -7 -16    1.42    0.35
   9   7 -16    0.02    0.57
   9   7 -16    0.94    0.53
   8  -7 -16    0.66    0.28
   8   7 -16    1.34    0.52
   8   7 -16    0.61    0.45
   7  -7 -16    1.62    0.31
   7   7 -16    1.93    0.42
   7   7 -16    1.85    0.42
   6  -7 -16    0.46    0.23
   6   7 -16    0.07    0.31
   6   7 -16    0.09    0.32
  -5  -7  16    0.22    0.22
   5  -7 -16    0.33    0.19
   5   7 -16   -0.54    0.27
   5   7 -16   -0.08    0.27
   4  -7 -16    4.69    0.40
  -4  -7  16    5.57    0.45
   4   7 -16    5.01    0.54
   4   7 -16    4.18    0.50
   3  -7 -16   31.19    1.62
  -3  -7  16   33.09    1.64
   3   7 -16   34.17    1.69
   3   7 -16   33.49    1.69
   2  -7 -16    9.50    0.57
  -2  -7  16    9.62    0.58
   2   7 -16    9.11    0.64
   2   7 -16    9.69    0.66
  -1  -7  16    1.39    0.23
   1  -7 -16    1.69    0.25
  -1  -7  16    1.56    0.19
   1   7 -16    1.80    0.26
   1   7 -16    1.73    0.26
   0  -7  16   16.21    0.83
   0  -7 -16   15.63    0.84
   0  -7  16   14.88    0.85
   0   7 -16   15.50    0.84
   0   7  16   16.22    0.88
   0   7 -16   16.56    0.85
  -1  -7 -16    0.43    0.18
   1  -7  16    0.42    0.20
   1  -7  16    0.25    0.18
   1   7  16    0.64    0.21
  -1   7 -16    0.48    0.15
  -2  -7 -16   10.20    0.61
   2  -7  16   11.13    0.63
   2  -7  16    8.48    0.65
  -2   7 -16    9.68    0.57
  -2   7 -16    9.43    0.51
   2   7  16    9.63    0.63
  -3  -7 -16   17.92    0.97
   3  -7  16   15.79    1.05
   3  -7  16   19.13    0.98
   3   7  16   18.51    1.00
  -4  -7 -16    0.98    0.26
   4  -7  16    1.11    0.33
   4  -7  16    1.11    0.28
   4   7  16    0.94    0.24
  -5  -7 -16    2.97    0.36
   5  -7  16    2.91    0.45
   5  -7  16    2.21    0.40
   5   7  16    2.83    0.41
   6  -7  16    0.41    0.34
  -6  -7 -16    0.74    0.30
   6  -7  16    0.07    0.35
   6   7  16    0.56    0.28
   7  -7  16   -0.43    0.37
  -7  -7 -16    0.20    0.32
   7  -7  16    0.48    0.45
   7   7  16   -0.20    0.30
   8  -7  16    0.61    0.53
  -8  -7 -16    1.95    0.42
   8  -7  16    1.76    0.51
   8   7  16    1.83    0.43
   9  -8 -16    0.84    0.83
   9  -8 -16    0.94    0.37
   9   8 -16    1.05    0.62
   8  -8 -16    3.22    0.42
   8   8 -16    3.71    0.62
   8   8 -16    3.45    0.64
   7  -8 -16    3.14    0.40
   7   8 -16    2.88    0.51
   7   8 -16    2.39    0.49
  -6  -8  16    6.01    0.52
   6  -8 -16    4.41    0.46
   6   8 -16    4.95    0.66
   6   8 -16    5.27    0.68
  -5  -8  16    3.31    0.39
  -5  -8  16    3.25    0.42
   5  -8 -16    3.23    0.39
   4  -8 -16   13.67    0.80
  -4  -8  16   14.44    0.83
  -4  -8  16   14.82    0.82
   3  -8 -16   -0.03    0.17
  -3  -8  16    0.21    0.18
  -3  -8  16    0.27    0.21
   2  -8 -16    0.15    0.15
  -2  -8  16    0.23    0.18
  -2  -8  16   -0.09    0.20
   1  -8 -16    4.34    0.36
  -1  -8  16    5.30    0.38
  -1  -8  16    4.47    0.30
   1   8 -16    4.39    0.48
   1   8 -16    4.68    0.47
   0  -8 -16    0.00    0.15
   0  -8  16   -0.10    0.16
   0  -8  16    0.15    0.16
   0   8 -16   -0.03    0.18
   0   8 -16    0.29    0.18
   1  -8  16   25.86    1.25
   1  -8  16   22.25    1.26
  -1  -8 -16   24.57    1.24
  -1   8 -16   25.00    1.21
   1   8  16   24.33    1.27
   2  -8  16    0.39    0.20
   2  -8  16    0.11    0.23
  -2  -8 -16   -0.05    0.18
  -2   8 -16    0.07    0.13
   2   8  16    0.07    0.19
   3  -8  16    0.27    0.23
   3  -8  16   -0.03    0.29
  -3  -8 -16   -0.11    0.21
   3   8  16   -0.21    0.18
   4  -8  16    3.03    0.45
  -4  -8 -16    3.19    0.43
   4  -8  16    4.41    0.49
   4   8  16    4.03    0.44
  -5  -8 -16    3.17    0.39
   5  -8  16    2.79    0.44
   5  -8  16    3.39    0.50
   5   8  16    3.23    0.44
   6  -8  16    4.32    0.61
  -6  -8 -16    3.92    0.55
   6   8  16    3.26    0.53
   7  -8  16    0.52    0.45
   7  -8  16   -0.13    0.40
  -7  -8 -16    0.26    0.34
   7   8  16    0.17    0.31
   8  -8  16   -0.01    0.54
   8  -8  16    0.67    0.53
  -8  -8 -16    0.52    0.42
   8   8  16    0.95    0.38
   8  -9 -16    1.55    0.36
   8  -9 -16    2.19    0.71
   8   9 -16    1.91    0.60
   8   9 -16    1.44    0.55
  -7  -9  16    0.97    0.33
   7  -9 -16    0.20    0.25
   7   9 -16    0.25    0.45
   6  -9 -16    1.19    0.27
  -6  -9  16    1.70    0.32
   5  -9 -16    3.77    0.40
  -5  -9  16    3.02    0.43
  -5  -9  16    3.60    0.43
  -4  -9  16    0.30    0.23
   4  -9 -16    0.18    0.19
  -4  -9  16   -0.03    0.21
  -3  -9  16    4.27    0.42
   3  -9 -16    3.80    0.38
  -3  -9  16    3.58    0.36
  -2  -9  16    2.88    0.38
  -2  -9  16    4.04    0.37
   2  -9 -16    3.26    0.34
   1  -9 -16    8.85    0.55
  -1  -9  16    8.05    0.56
  -1  -9  16    8.07    0.46
  -1  -9  16    9.19    0.55
   0  -9  16   18.62    0.99
   0  -9  16   20.15    1.01
   0  -9 -16   19.07    1.01
   0   9 -16   18.03    1.01
   0   9 -16   18.83    1.02
   1  -9  16    2.08    0.31
  -1  -9 -16    1.97    0.26
   1  -9  16    1.29    0.26
  -1   9 -16    1.38    0.23
   1   9  16    1.54    0.26
  -1   9 -16    1.39    0.23
  -2  -9 -16    4.03    0.39
   2  -9  16    4.44    0.41
   2  -9  16    3.46    0.47
   2   9  16    3.36    0.41
  -2   9 -16    3.08    0.29
   3  -9  16    3.92    0.41
  -3  -9 -16    2.85    0.41
   3   9  16    3.27    0.39
  -4  -9 -16   10.15    0.72
   4  -9  16   12.04    0.77
   4   9  16   11.10    0.72
  -5  -9 -16    0.36    0.30
   5  -9  16    0.84    0.33
   5   9  16    1.07    0.27
  -6  -9 -16    4.99    0.59
   6   9  16    4.60    0.54
   7  -9  16    0.34    0.46
   7  -9  16    0.10    0.42
  -7  -9 -16    0.77    0.39
   7   9  16    0.26    0.33
   8  -9  16   -0.88    0.55
  -8  -9 -16    0.61    0.45
   8  -9  16    0.02    0.59
   8   9  16   -0.48    0.37
   8 -10 -16    0.58    0.66
  -8 -10  16    0.54    0.40
   8  10 -16   -0.30    0.57
   8  10 -16    0.48    0.53
   7 -10 -16    0.51    0.55
  -7 -10  16    0.14    0.34
   7 -10 -16   -0.03    0.27
   6 -10 -16    0.32    0.25
  -6 -10  16    0.35    0.29
  -6 -10  16    0.18    0.29
  -5 -10  16    0.61    0.28
  -5 -10  16    0.89    0.26
   5 -10 -16    0.82    0.23
  -4 -10  16    0.20    0.21
  -4 -10  16    0.27    0.23
   4 -10 -16    0.20    0.21
  -3 -10  16   12.79    0.77
   3 -10 -16   13.15    0.76
  -3 -10  16   13.14    0.78
  -2 -10  16    0.04    0.20
   2 -10 -16    0.51    0.19
  -2 -10  16    0.57    0.20
  -1 -10  16    1.92    0.28
  -1 -10  16    1.79    0.26
   1 -10 -16    1.42    0.24
  -1 -10  16    1.25    0.22
   0 -10  16    7.33    0.50
   0 -10 -16    6.68    0.50
   0 -10  16    7.31    0.51
   0 -10  16    7.64    0.48
   1 -10  16    2.57    0.42
   1 -10  16    3.97    0.39
  -1 -10 -16    3.15    0.37
  -1 -10 -16    3.29    0.38
  -1  10 -16    3.03    0.37
   1  10  16    2.70    0.38
  -1  10 -16    3.36    0.36
  -2 -10 -16    2.60    0.39
   2 -10  16    3.12    0.38
  -2  10 -16    2.01    0.27
   2  10  16    2.31    0.40
  -3 -10 -16    1.30    0.29
   3 -10  16    1.52    0.30
   3  10  16    1.27    0.28
  -4 -10 -16    0.20    0.29
   4 -10  16    0.17    0.29
   4  10  16   -0.39    0.22
  -5 -10 -16    9.95    0.74
   5 -10  16   10.13    0.80
   5  10  16    8.81    0.69
   6 -10  16    7.79    0.75
  -6 -10 -16    6.11    0.67
   6  10  16    6.09    0.61
  -7 -10 -16    0.44    0.44
   7 -10  16   -0.25    0.47
   7  10  16    0.05    0.34
   8 -11 -16    1.95    0.76
  -8 -11  16    2.07    0.50
   8 -11 -16    2.03    0.38
   7 -11 -16    2.99    0.71
  -7 -11  16    2.28    0.45
   7 -11 -16    2.13    0.37
  -6 -11  16    0.58    0.30
   6 -11 -16    0.56    0.25
   6 -11 -16    0.28    0.52
  -6 -11  16    0.10    0.30
  -5 -11  16    3.81    0.43
   5 -11 -16    3.13    0.43
   5 -11 -16    3.14    0.61
  -5 -11  16    3.73    0.43
  -4 -11  16   15.47    0.89
   4 -11 -16   14.17    1.11
  -4 -11  16   14.76    0.87
   4 -11 -16   14.87    0.86
   3 -11 -16    1.43    0.26
   3 -11 -16    1.66    0.59
  -3 -11  16    1.87    0.29
  -3 -11  16    1.68    0.30
   2 -11 -16   21.05    1.14
  -2 -11  16   22.40    1.15
   2 -11 -16   20.44    1.27
  -2 -11  16   22.31    1.14
  -1 -11  16    0.24    0.20
   1 -11 -16    0.11    0.33
   1 -11 -16    0.06    0.19
  -1 -11  16    0.27    0.22
   0 -11 -16    0.03    0.20
   0 -11 -16    0.53    0.29
   0 -11  16   -0.03    0.23
   0 -11  16   -0.17    0.20
   0 -11  16   -0.03    0.20
  -1 -11 -16    0.46    0.23
   1 -11  16    1.04    0.24
   2 -11  16    7.22    0.53
  -2 -11 -16    6.47    0.55
   2  11  16    6.55    0.54
  -2  11 -16    5.13    0.47
  -3 -11 -16    1.17    0.31
   3 -11  16    1.64    0.32
   3  11  16    0.99    0.28
  -4 -11 -16    0.64    0.31
   4 -11  16   -0.10    0.31
   4  11  16    0.08    0.25
   5 -11  16    2.76    0.46
  -5 -11 -16    2.28    0.42
   5  11  16    2.26    0.37
   6 -11  16    1.22    0.46
  -6 -11 -16    0.84    0.40
   6  11  16    1.07    0.34
   7 -11  16    2.27    0.56
  -7 -11 -16    2.14    0.52
   7  11  16    2.35    0.42
   7 -12 -16    0.92    0.65
   7 -12 -16    0.61    0.30
  -7 -12  16    1.02    0.40
  -6 -12  16    7.08    0.70
   6 -12 -16    6.11    0.89
  -6 -12  16    7.02    0.63
   6 -12 -16    7.06    0.57
   5 -12 -16    2.73    0.63
   5 -12 -16    3.02    0.42
  -5 -12  16    3.23    0.42
  -5 -12  16    3.49    0.50
  -4 -12  16    0.09    0.25
   4 -12 -16    0.28    0.24
  -4 -12  16    0.86    0.29
   4 -12 -16    0.59    0.48
  -3 -12  16    5.47    0.50
   3 -12 -16    5.75    0.48
  -3 -12  16    6.20    0.51
   3 -12 -16    5.10    0.83
   2 -12 -16    6.31    0.73
  -2 -12  16    6.74    0.55
  -2 -12  16    7.92    0.53
   2 -12 -16    6.94    0.53
  -1 -12  16    0.25    0.21
   1 -12 -16    0.05    0.33
   1 -12 -16   -0.21    0.21
  -1 -12  16   -0.06    0.20
   0 -12  16   -0.15    0.26
   0 -12 -16    0.15    0.22
   0 -12 -16   -0.24    0.27
   0 -12  16    0.08    0.22
   0 -12  16    0.08    0.21
  -1 -12 -16    2.67    0.35
   1 -12  16    2.33    0.37
   1 -12  16    2.30    0.27
   2 -12  16    3.86    0.48
  -2 -12 -16    2.96    0.45
   3 -12  16    1.57    0.34
  -3 -12 -16    1.55    0.34
   3  12  16    1.25    0.31
   4 -12  16    0.41    0.33
  -4 -12 -16    0.13    0.32
   4  12  16   -0.02    0.27
   5 -12  16    0.08    0.41
  -5 -12 -16    0.11    0.37
   5  12  16   -0.09    0.28
   6 -12  16    1.23    0.49
  -6 -12 -16    0.85    0.44
   6  12  16    0.70    0.34
  -7 -12 -16    0.04    0.52
   7 -12  16    0.60    0.58
   7  12  16   -0.40    0.36
  -7 -13  16   10.27    0.84
   7 -13 -16    8.42    1.21
   7 -13 -16    8.18    0.73
   6 -13 -16   -0.07    0.31
  -6 -13  16    0.18    0.36
  -6 -13  16    0.07    0.40
  -5 -13  16    4.17    0.55
  -5 -13  16    2.74    0.41
   5 -13 -16    3.56    0.71
   5 -13 -16    2.52    0.37
   4 -13 -16    0.40    0.52
  -4 -13  16    0.59    0.29
   4 -13 -16    0.63    0.27
  -4 -13  16    0.81    0.30
  -3 -13  16    8.00    0.61
   3 -13 -16    5.75    0.86
  -3 -13  16    8.10    0.58
   3 -13 -16    7.16    0.58
   2 -13 -16    3.02    0.43
   2 -13 -16    2.74    0.51
  -2 -13  16    3.13    0.38
  -2 -13  16    2.97    0.44
   1 -13 -16    5.91    0.65
  -1 -13  16    7.82    0.55
   1 -13 -16    8.19    0.58
  -1 -13  16    7.63    0.55
   0 -13  16    0.40    0.24
   0 -13  16   -0.06    0.24
   0 -13 -16   -0.01    0.23
   0 -13  16    0.19    0.35
   1 -13  16    1.06    0.29
  -1 -13 -16    1.63    0.32
   1 -13  16    1.02    0.25
  -2 -13 -16   -0.20    0.28
   2 -13  16   -0.09    0.27
  -3 -13 -16    9.80    0.72
   3 -13  16    9.03    0.70
   3  13  16    7.28    0.70
  -4 -13 -16    0.47    0.38
   4 -13  16    0.14    0.35
   4  13  16    0.75    0.33
   5 -13  16    1.98    0.49
  -5 -13 -16    1.44    0.45
   5  13  16    1.62    0.37
   6 -13  16    1.97    0.58
  -6 -13 -16    2.53    0.57
   6 -14 -16    0.87    0.70
   6 -14 -16   -0.17    0.32
  -6 -14  16    0.78    0.42
  -6 -14  16    0.66    0.41
  -5 -14  16    2.64    0.44
   5 -14 -16    2.41    0.69
  -5 -14  16    3.40    0.54
   5 -14 -16    2.11    0.40
  -4 -14  16    1.28    0.37
   4 -14 -16    1.75    0.61
  -4 -14  16    2.33    0.38
   4 -14 -16    1.72    0.34
  -3 -14  16   16.71    0.93
   3 -14 -16   12.49    1.14
  -3 -14  16   15.63    0.93
   3 -14 -16   14.68    0.91
   2 -14 -16   -0.25    0.26
  -2 -14  16    0.35    0.28
  -2 -14  16    0.10    0.25
   2 -14 -16   -0.28    0.45
  -1 -14  16    2.07    0.32
   1 -14 -16    2.11    0.37
  -1 -14  16    2.25    0.33
   1 -14 -16    1.65    0.39
   0 -14 -16    1.98    0.35
   0 -14  16    2.57    0.34
   0 -14  16    2.16    0.34
  -1 -14 -16    0.41    0.30
   1 -14  16    0.40    0.29
  -2 -14 -16    0.63    0.33
   2 -14  16   -0.07    0.30
   3 -14  16   15.61    0.99
  -3 -14 -16   14.76    0.99
  -4 -14 -16    3.37    0.54
   4  14  16    2.24    0.40
  -5 -14 -16    7.49    0.90
   5 -14  16    8.33    0.87
   5  14  16    7.43    0.71
  -6 -15  16    0.70    0.43
  -6 -15  16    0.23    0.44
   6 -15 -16   -0.52    0.75
   6 -15 -16   -0.01    0.35
   5 -15 -16   -0.31    0.67
  -5 -15  16    0.33    0.41
   5 -15 -16    0.45    0.32
  -5 -15  16    0.26    0.38
  -4 -15  16   -0.17    0.35
   4 -15 -16   -0.01    0.31
   4 -15 -16   -0.68    0.59
  -4 -15  16    0.08    0.33
  -3 -15  16    4.87    0.53
   3 -15 -16    3.85    0.58
  -3 -15  16    4.41    0.57
   3 -15 -16    3.56    0.65
  -2 -15  16    0.76    0.29
  -2 -15  16    1.03    0.33
   2 -15 -16    0.26    0.31
   2 -15 -16    1.42    0.51
  -1 -15  16    7.70    0.59
  -1 -15  16    6.25    0.63
   1 -15 -16    6.62    0.61
   0 -15  16    0.18    0.28
   0 -15  16    0.75    0.33
   0 -15 -16    0.35    0.30
   1 -15  16    4.22    0.52
  -1 -15 -16    3.89    0.56
  -2 -15 -16    0.76    0.37
   2 -15  16    0.92    0.36
  -3 -15 -16    1.19    0.44
   3 -15  16    1.33    0.41
   4 -15  16    0.55    0.41
  -4 -15 -16    0.39    0.48
   5 -15  16    0.31    0.51
  -5 -15 -16   -0.51    0.50
   5  15  16   -0.46    0.35
  -5 -16  16    0.73    0.44
   5 -16 -16    0.41    0.72
   5 -16 -16    0.34    0.37
  -5 -16  16    0.18    0.45
  -4 -16  16    0.90    0.41
   4 -16 -16    0.27    0.35
   4 -16 -16    0.54    0.65
  -4 -16  16    0.96    0.43
   3 -16 -16    2.32    0.43
   3 -16 -16    1.70    0.61
  -3 -16  16    2.25    0.45
  -3 -16  16    3.44    0.52
  -2 -16  16    1.91    0.37
  -2 -16  16    2.57    0.42
   2 -16 -16    2.24    0.43
   1 -16 -16    4.16    0.59
  -1 -16  16    3.85    0.54
  -1 -16  16    3.52    0.46
   0 -16 -16   -0.48    0.32
   0 -16  16    0.64    0.54
   0 -16  16    0.29    0.32
   1 -16  16    3.89    0.54
  -1 -16 -16    2.91    0.52
   2 -16  16    1.63    0.42
  -2 -16 -16    1.48    0.47
   3 -16  16    1.18    0.42
  -3 -16 -16    1.41    0.49
   4 -16  16    0.50    0.46
  -4 -16 -16    0.75    0.51
  -4 -17  16    1.13    0.49
   4 -17 -16    0.15    0.41
   4 -17 -16   -0.60    0.69
  -4 -17  16    0.72    0.45
   3 -17 -16   -0.24    0.59
   3 -17 -16    0.61    0.40
  -3 -17  16    0.38    0.38
  -3 -17  16    0.52    0.45
  -2 -17  16    2.35    0.49
  -2 -17  16    3.45    0.56
   2 -17 -16    1.79    0.43
  -1 -17  16    0.92    0.44
  -1 -17  16    1.33    0.38
   1 -17 -16    1.26    0.40
   0 -17  16   -0.05    0.33
   0 -17 -16    0.21    0.40
  -1 -17 -16    5.24    0.69
   1 -17  16    3.51    0.61
  -2 -17 -16    4.18    0.60
   2 -17  16    3.16    0.50
   3 -17  16   -0.60    0.44
  -3 -17 -16   -0.55    0.51
  -2 -18  16    3.36    0.57
   2 -18 -16    2.29    0.50
  -2 -18  16    3.26    0.51
   1 -18 -16   -0.31    0.44
  -1 -18  16    0.11    0.51
  -1 -18  16   -0.09    0.38
   0 -18 -16    1.96    0.50
   0 -18  16    2.12    0.44
   1 -18  16   -0.17    0.38
  -1 -18 -16   -1.07    0.45
  -2 -18 -16    0.90    0.55
   9   0 -17    0.63    0.37
   8   0 -17    0.33    0.29
   7   0 -17    2.41    0.36
   6   0 -17    0.52    0.24
   5   0 -17    0.10    0.19
   4   0 -17    0.12    0.17
   3   0 -17    6.31    0.44
   2   0 -17    0.05    0.16
  -2   0  17    0.15    0.16
   1   0 -17    5.67    0.41
  -1   0  17    6.31    0.42
  -1   0  17    6.84    0.40
   0   0  17    0.14    0.12
   0   0  17    0.39    0.15
   0   0 -17    0.20    0.12
  -1   0 -17   48.52    2.29
   1   0  17   48.46    2.33
   1   0  17   49.14    2.31
   3   0  17    2.97    0.28
   3   0  17    3.18    0.40
  -3   0 -17    2.73    0.24
   4   0  17    0.55    0.18
   4   0  17    0.72    0.22
   5   0  17   20.21    1.16
  -5   0 -17   18.87    0.98
   5   0  17   20.94    1.03
   6   0  17    0.11    0.24
   6   0  17   -0.04    0.27
   7   0  17    4.06    0.53
   7   0  17    4.46    0.63
   8   0  17   -0.60    0.36
   9   0  17   -0.02    0.50
   9  -1 -17    0.80    0.37
   9   1 -17    0.64    0.40
   8  -1 -17    1.68    0.35
   8   1 -17    1.49    0.36
   7  -1 -17    0.39    0.26
   7   1 -17    0.68    0.30
   6  -1 -17    7.73    0.58
   6   1 -17    8.23    0.62
   5  -1 -17    0.57    0.21
   5   1 -17    0.60    0.23
   4  -1 -17    2.60    0.31
   4   1 -17    2.00    0.28
  -3  -1  17    1.47    0.25
   3  -1 -17    1.87    0.26
   3   1 -17    1.73    0.23
   2  -1 -17    3.40    0.29
  -2  -1  17    2.97    0.31
  -2   1  17    2.39    0.30
   2   1 -17    3.63    0.33
  -1  -1  17   20.27    0.99
   1  -1 -17   20.30    1.02
  -1  -1  17   20.13    1.03
  -1   1  17   19.51    1.02
  -1   1  17   20.11    1.01
   1   1 -17   19.97    1.02
   0  -1  17   15.81    0.81
   0  -1 -17   15.39    0.81
   0  -1  17   16.39    0.83
   0   1 -17   15.37    0.81
   0   1  17   16.52    0.82
   0   1  17   15.52    0.83
   1  -1  17    7.65    0.48
   1  -1  17    7.64    0.46
  -1  -1 -17    7.75    0.45
   1   1  17    7.47    0.46
   1   1  17    7.35    0.48
  -1   1 -17    7.92    0.44
  -2  -1 -17    4.66    0.32
   2  -1  17    4.56    0.39
   2  -1  17    4.66    0.35
   2   1  17    4.85    0.40
  -2   1 -17    4.33    0.30
   2   1  17    4.89    0.34
   3  -1  17    0.66    0.17
  -3  -1 -17    0.38    0.13
   3  -1  17    0.51    0.23
   3   1  17    0.44    0.15
  -3   1 -17    0.45    0.12
   3   1  17    0.30    0.22
  -4  -1 -17    0.23    0.15
   4  -1  17   -0.17    0.22
   4  -1  17    0.05    0.17
   4   1  17    0.32    0.16
  -4   1 -17    0.05    0.12
   4   1  17    0.09    0.20
  -5  -1 -17    0.87    0.18
   5  -1  17    1.02    0.27
   5  -1  17    0.68    0.24
   5   1  17    0.93    0.26
  -5   1 -17    0.91    0.20
   5   1  17    1.00    0.20
   6  -1  17    0.41    0.29
   6  -1  17    0.43    0.28
   6   1  17    0.31    0.27
   6   1  17    0.28    0.21
   7  -1  17    0.92    0.32
   7  -1  17    0.88    0.35
   7   1  17    1.42    0.34
   7   1  17    1.18    0.36
   8  -1  17    0.35    0.42
   8  -1  17   -0.25    0.37
   8   1  17   -0.16    0.37
   9  -1  17   -0.11    0.54
   9   1  17   -0.05    0.47
   9  -2 -17    0.15    0.33
   9   2 -17    0.54    0.41
   8  -2 -17    3.50    0.49
   8   2 -17    4.20    0.61
   7  -2 -17    1.99    0.34
   7   2 -17    2.16    0.35
   6  -2 -17    4.31    0.43
   6   2 -17    3.50    0.45
   5  -2 -17    1.17    0.24
   5   2 -17    1.46    0.27
   4  -2 -17    4.06    0.35
   4   2 -17    3.86    0.38
   3  -2 -17   12.93    0.71
  -3  -2  17   12.01    0.74
   3   2 -17   13.27    0.74
   2  -2 -17   19.61    1.01
  -2  -2  17   19.38    1.03
   2   2 -17   20.21    1.04
   1  -2 -17    0.39    0.15
  -1  -2  17    0.71    0.16
  -1  -2  17    0.41    0.11
  -1   2  17    0.47    0.14
   1   2 -17    0.16    0.15
  -1   2  17    0.11    0.16
   0  -2  17    7.76    0.47
   0  -2  17    7.88    0.45
   0  -2 -17    7.72    0.46
   0   2 -17    7.65    0.45
   0   2  17    8.10    0.48
   0   2  17    7.42    0.47
  -1  -2 -17   11.26    0.63
   1  -2  17   11.93    0.64
   1  -2  17   11.53    0.66
   1   2  17   12.01    0.66
  -1   2 -17   11.69    0.61
   1   2  17   11.89    0.64
  -2  -2 -17   64.19    3.02
   2  -2  17   66.12    3.03
   2  -2  17   62.41    3.07
   2   2  17   65.52    3.01
   2   2  17   64.95    3.07
  -2   2 -17   63.16    2.99
   3  -2  17    0.21    0.21
   3  -2  17    0.42    0.18
  -3  -2 -17    0.25    0.14
  -3   2 -17    0.32    0.11
   3   2  17    0.36    0.20
   3   2  17    0.33    0.14
   4  -2  17   10.24    0.74
  -4  -2 -17   10.61    0.60
   4  -2  17   11.91    0.65
   4   2  17   11.09    0.59
   4   2  17   10.14    0.71
   5  -2  17   15.74    0.98
   5  -2  17   16.28    0.88
  -5  -2 -17   14.07    0.81
   5   2  17   15.14    0.95
   5   2  17   15.79    0.80
   6  -2  17    3.78    0.44
   6  -2  17    2.27    0.40
  -6  -2 -17    3.29    0.35
   6   2  17    3.32    0.34
   6   2  17    3.40    0.50
   7  -2  17    1.14    0.32
   7  -2  17    1.16    0.37
   7   2  17    1.65    0.37
   8  -2  17    2.00    0.43
   8  -2  17    1.62    0.47
   8   2  17    1.73    0.48
   9  -2  17    0.48    0.57
   9   2  17    0.70    0.53
   9  -3 -17    9.28    0.75
   9   3 -17    9.97    0.87
   8  -3 -17    0.77    0.31
   8   3 -17    0.52    0.36
   7  -3 -17    1.36    0.30
   7   3 -17    1.59    0.35
   6  -3 -17    0.41    0.22
   6   3 -17    0.02    0.26
   5  -3 -17   32.24    1.64
   5   3 -17   33.04    1.68
   4  -3 -17   13.28    0.73
  -4  -3  17   12.25    0.75
   4   3 -17   12.70    0.78
   3  -3 -17   18.29    0.92
  -3  -3  17   15.44    0.94
   3   3 -17   18.14    0.94
   2  -3 -17   51.93    2.44
  -2  -3  17   49.10    2.45
   2   3 -17   52.81    2.47
  -1  -3  17    5.60    0.33
   1  -3 -17    5.39    0.38
  -1  -3  17    5.22    0.38
   1   3 -17    5.38    0.38
  -1   3  17    5.31    0.39
   0  -3  17    0.48    0.16
   0  -3 -17    0.37    0.15
   0  -3  17    0.38    0.13
   0   3 -17    0.30    0.13
   0   3  17    0.36    0.14
   0   3  17    0.32    0.15
  -1  -3 -17    0.66    0.16
   1  -3  17    0.72    0.17
   1  -3  17    0.82    0.17
   1   3  17    0.53    0.15
  -1   3 -17    0.71    0.13
   1   3  17    0.56    0.16
  -2  -3 -17   47.94    2.35
   2  -3  17   51.23    2.36
   2  -3  17   48.30    2.41
   2   3  17   49.36    2.40
   2   3  17   51.27    2.34
  -2   3 -17   49.52    2.31
   3  -3  17   29.61    1.38
  -3  -3 -17   27.15    1.36
   3  -3  17   28.24    1.47
   3   3  17   28.36    1.44
  -3   3 -17   25.02    1.30
   3   3  17   29.10    1.34
  -3   3 -17   26.90    1.31
  -4  -3 -17    7.13    0.49
   4  -3  17    7.94    0.65
   4  -3  17    8.37    0.55
   4   3  17    8.16    0.58
   4   3  17    7.01    0.44
  -5  -3 -17    0.31    0.20
   5  -3  17    0.65    0.29
   5  -3  17    1.06    0.28
   5   3  17    0.08    0.16
   5   3  17    0.35    0.25
   6  -3  17    0.24    0.27
  -6  -3 -17    0.17    0.24
   6  -3  17   -0.29    0.29
   6   3  17    0.38    0.27
   7  -3  17    2.17    0.44
   7  -3  17    1.81    0.37
   7   3  17    1.65    0.39
   8  -3  17    0.22    0.44
   8  -3  17   -0.14    0.39
   8   3  17    0.54    0.41
   9  -4 -17    0.65    0.33
   9   4 -17    0.42    0.46
   8  -4 -17    1.27    0.32
   8   4 -17    0.98    0.43
   7  -4 -17   -0.13    0.24
   7   4 -17    0.53    0.33
   7   4 -17    0.18    0.31
   6  -4 -17   10.69    0.71
   6   4 -17   12.21    0.80
   6   4 -17   11.47    0.79
   5  -4 -17   38.37    1.91
   5   4 -17   38.45    1.96
   5   4 -17   38.57    1.95
   4  -4 -17   59.02    2.83
  -4  -4  17   56.28    2.84
   4   4 -17   61.06    2.87
   4   4 -17   60.16    2.87
  -3  -4  17    1.50    0.25
   3  -4 -17    1.82    0.25
   3   4 -17    1.73    0.27
  -2  -4  17   17.47    0.94
   2  -4 -17   17.64    0.92
   2   4 -17   17.68    0.96
  -1  -4  17    6.28    0.36
  -1  -4  17    5.71    0.43
   1  -4 -17    6.02    0.39
   1   4 -17    5.98    0.42
   0  -4  17    1.84    0.23
   0  -4  17    1.79    0.25
   0  -4 -17    1.77    0.26
   0   4  17    1.82    0.27
   0   4 -17    2.04    0.24
   1  -4  17   21.12    1.05
   1  -4  17   21.01    1.04
  -1  -4 -17   19.24    1.03
  -1   4 -17   20.99    1.00
   1   4  17   20.28    1.05
   1   4  17   19.57    1.01
  -2  -4 -17    0.64    0.18
   2  -4  17    0.76    0.20
   2  -4  17    0.28    0.19
  -2   4 -17    0.49    0.11
   2   4  17    0.65    0.20
   2   4  17    0.66    0.14
   3  -4  17    3.08    0.46
  -3  -4 -17    3.21    0.36
   3  -4  17    4.20    0.39
   3   4  17    3.57    0.38
   3   4  17    3.84    0.29
   4  -4  17   12.46    0.87
  -4  -4 -17   12.49    0.75
   4  -4  17   13.52    0.78
   4   4  17   12.59    0.67
   4   4  17   13.99    0.80
  -5  -4 -17    5.69    0.51
   5  -4  17    6.60    0.53
   5  -4  17    5.97    0.60
   5   4  17    6.25    0.57
  -6  -4 -17    0.00    0.28
   6  -4  17   -0.03    0.30
   6   4  17   -0.18    0.26
   7  -4  17    0.12    0.33
   7  -4  17    0.50    0.38
  -7  -4 -17    0.62    0.38
   7   4  17    0.25    0.32
   8  -4  17    1.54    0.52
   8  -4  17    1.06    0.46
   8   4  17    2.24    0.47
   9  -5 -17    0.76    0.36
   9   5 -17    0.44    0.48
   8  -5 -17    6.65    0.57
   8   5 -17    5.21    0.75
   8   5 -17    5.54    0.67
   7  -5 -17    0.12    0.25
   7   5 -17    0.76    0.36
   7   5 -17    0.29    0.32
   6  -5 -17    1.38    0.28
   6   5 -17    1.77    0.35
   6   5 -17    1.82    0.36
   5  -5 -17    1.09    0.22
   5   5 -17    0.63    0.27
   5   5 -17    0.76    0.27
  -4  -5  17   19.29    1.08
   4  -5 -17   20.49    1.06
   4   5 -17   20.47    1.12
   4   5 -17   19.40    1.11
   3  -5 -17    1.88    0.26
  -3  -5  17    1.63    0.25
   3   5 -17    1.41    0.28
   3   5 -17    1.71    0.27
  -2  -5  17    3.44    0.35
   2  -5 -17    3.46    0.32
   2   5 -17    3.50    0.39
   1  -5 -17    3.22    0.29
  -1  -5  17    3.25    0.33
  -1  -5  17    2.94    0.24
   1   5 -17    3.49    0.33
   0  -5  17   10.15    0.58
   0  -5 -17   10.35    0.59
   0  -5  17   10.79    0.61
   0   5 -17   10.20    0.59
   0   5  17   10.65    0.63
   1  -5  17    0.40    0.19
   1  -5  17    0.24    0.16
  -1  -5 -17    0.28    0.16
  -1   5 -17    0.36    0.13
   1   5  17    0.50    0.19
  -2  -5 -17   24.74    1.26
   2  -5  17   27.28    1.27
   2  -5  17   23.83    1.30
   2   5  17   26.38    1.29
  -2   5 -17   25.14    1.19
   2   5  17   22.56    1.21
   3  -5  17    9.02    0.70
   3  -5  17   11.48    0.65
  -3  -5 -17    9.38    0.61
   3   5  17    8.98    0.52
   3   5  17   10.36    0.64
   4  -5  17   16.64    0.87
  -4  -5 -17   14.82    0.85
   4  -5  17   13.45    0.95
   4   5  17   15.18    0.90
   5  -5  17    0.29    0.29
   5  -5  17    0.42    0.26
  -5  -5 -17    0.03    0.23
   5   5  17    0.52    0.25
   6  -5  17    0.32    0.32
   6  -5  17   -0.09    0.28
  -6  -5 -17    0.14    0.26
   6   5  17   -0.15    0.25
  -7  -5 -17    0.22    0.30
   7  -5  17   -0.33    0.33
   7  -5  17    0.42    0.40
   7   5  17    0.46    0.34
   8  -5  17   -0.39    0.47
   8  -5  17   -0.63    0.42
   8   5  17    0.31    0.38
   9  -6 -17    0.84    0.36
   9   6 -17    0.14    0.48
   9   6 -17   -0.56    0.51
   8  -6 -17    0.74    0.33
   8   6 -17    1.07    0.46
   8   6 -17    0.06    0.46
   7  -6 -17    0.29    0.26
   7   6 -17   -0.04    0.32
   7   6 -17    0.47    0.35
   6  -6 -17    2.20    0.32
   6   6 -17    2.69    0.40
   6   6 -17    3.36    0.44
   5  -6 -17    1.64    0.27
  -5  -6  17    1.54    0.28
   5   6 -17    1.93    0.31
   5   6 -17    1.66    0.32
  -4  -6  17   26.48    1.41
   4  -6 -17   26.46    1.38
   4   6 -17   28.26    1.46
   4   6 -17   28.02    1.45
  -3  -6  17   15.37    0.86
   3  -6 -17   15.13    0.84
   3   6 -17   15.05    0.90
   3   6 -17   16.59    0.91
   2  -6 -17   21.75    1.10
  -2  -6  17   20.84    1.11
   2   6 -17   21.61    1.15
   2   6 -17   22.28    1.16
  -1  -6  17    4.03    0.36
   1  -6 -17    4.52    0.34
  -1  -6  17    4.31    0.28
   1   6 -17    3.83    0.39
   0  -6 -17   -0.07    0.15
   0  -6  17    0.01    0.18
   0  -6  17   -0.15    0.13
   0   6 -17    0.05    0.15
   0   6  17    0.27    0.20
   1  -6  17    5.37    0.43
   1  -6  17    5.19    0.42
  -1  -6 -17    4.93    0.38
  -1   6 -17    4.98    0.35
   1   6  17    4.96    0.43
  -2  -6 -17   10.74    0.63
   2  -6  17   11.10    0.64
   2  -6  17    9.80    0.67
   2   6  17    9.92    0.63
  -2   6 -17    9.89    0.53
   3  -6  17    2.41    0.36
  -3  -6 -17    1.83    0.26
   3  -6  17    1.07    0.31
   3   6  17    1.40    0.25
   4  -6  17    2.27    0.39
   4  -6  17    3.52    0.42
  -4  -6 -17    2.73    0.38
   4   6  17    2.79    0.38
  -5  -6 -17   -0.17    0.24
   5  -6  17   -0.50    0.28
   5  -6  17    0.27    0.28
   5   6  17    0.25    0.22
   6  -6  17    2.06    0.38
   6  -6  17    1.56    0.41
  -6  -6 -17    1.38    0.31
   6   6  17    1.40    0.33
   7  -6  17    1.48    0.42
  -7  -6 -17    1.86    0.37
   7  -6  17    1.51    0.48
   7   6  17    1.88    0.40
   8  -6  17   -0.09    0.51
   8  -6  17   -0.20    0.45
   8   6  17   -0.33    0.36
   9  -7 -17    6.73    0.66
   9   7 -17    7.16    1.06
   9   7 -17    5.20    0.77
   8  -7 -17   11.16    0.79
   8   7 -17   12.57    1.04
   8   7 -17   13.02    1.03
   7  -7 -17   -0.01    0.24
   7   7 -17    0.46    0.38
   7   7 -17    0.15    0.39
   6  -7 -17   -0.17    0.22
   6   7 -17   -0.13    0.29
   6   7 -17   -0.03    0.32
  -5  -7  17    1.19    0.28
   5  -7 -17    1.55    0.27
   5   7 -17    1.72    0.36
   5   7 -17    1.35    0.35
   4  -7 -17   -0.18    0.18
  -4  -7  17    0.18    0.19
   4   7 -17    0.06    0.26
   4   7 -17    0.12    0.26
   3  -7 -17    7.97    0.51
  -3  -7  17    8.50    0.54
   3   7 -17    7.43    0.60
   3   7 -17    7.18    0.58
   2  -7 -17    0.67    0.17
  -2  -7  17    0.56    0.19
   2   7 -17    0.11    0.22
   2   7 -17   -0.11    0.22
   1  -7 -17    2.28    0.27
  -1  -7  17    2.80    0.29
  -1  -7  17    2.03    0.22
   1   7 -17    2.47    0.31
   1   7 -17    2.71    0.33
   0  -7  17    1.64    0.27
   0  -7  17    1.53    0.23
   0  -7 -17    2.39    0.29
   0   7  17    1.32    0.25
   0   7 -17    1.75    0.24
   1  -7  17    1.36    0.24
  -1  -7 -17    1.62    0.23
   1  -7  17    1.66    0.25
  -1   7 -17    1.52    0.20
   1   7  17    2.03    0.34
  -2  -7 -17   20.48    1.05
   2  -7  17   17.99    1.08
   2  -7  17   21.24    1.04
  -2   7 -17   19.68    0.95
   2   7  17   19.33    1.06
   3  -7  17    4.89    0.43
  -3  -7 -17    4.29    0.42
   3  -7  17    4.19    0.55
   3   7  17    4.15    0.41
   4  -7  17   13.68    0.79
  -4  -7 -17   12.80    0.77
   4  -7  17   11.60    0.88
   4   7  17   12.02    0.77
   5  -7  17    0.21    0.33
   5  -7  17    0.31    0.28
  -5  -7 -17    0.36    0.27
   5   7  17    0.23    0.22
   6  -7  17    1.44    0.36
   6  -7  17    1.12    0.41
  -6  -7 -17    1.29    0.34
   6   7  17    1.60    0.34
   7  -7  17   -0.24    0.41
   7  -7  17   -0.10    0.36
  -7  -7 -17   -0.18    0.33
   7   7  17    0.12    0.32
   8  -7  17    2.62    0.57
   8  -7  17    3.23    0.62
   8   7  17    2.19    0.46
   8  -8 -17    0.21    0.30
   8   8 -17    0.39    0.48
   8   8 -17   -0.19    0.48
   7  -8 -17    0.16    0.25
   7   8 -17    0.77    0.42
   7   8 -17    0.39    0.40
   6  -8 -17    5.35    0.48
   6   8 -17    4.74    0.67
   6   8 -17    4.50    0.68
   5  -8 -17    2.62    0.38
  -5  -8  17    2.41    0.40
   5   8 -17    2.77    0.42
   5   8 -17    2.58    0.40
   4  -8 -17    3.58    0.35
  -4  -8  17    3.12    0.37
   4   8 -17    2.85    0.39
   4   8 -17    4.09    0.47
   3  -8 -17    0.10    0.17
  -3  -8  17   -0.01    0.17
   3   8 -17    0.10    0.25
   3   8 -17    0.12    0.27
  -2  -8  17    1.58    0.26
   2  -8 -17    1.36    0.22
   2   8 -17    1.41    0.29
   2   8 -17    1.36    0.29
   1  -8 -17   27.66    1.38
  -1  -8  17   27.57    1.31
  -1  -8  17   28.16    1.39
   1   8 -17   26.77    1.42
   1   8 -17   27.04    1.43
   0  -8  17   12.61    0.72
   0  -8 -17   13.99    0.75
   0  -8  17   13.15    0.74
   0   8 -17   12.52    0.74
   0   8 -17   12.80    0.75
   1  -8  17    0.43    0.21
   1   8  17    0.82    0.23
  -2  -8 -17    0.58    0.22
   2  -8  17    0.39    0.24
   2  -8  17    0.57    0.22
  -2   8 -17    0.37    0.13
   2   8  17    0.45    0.21
  -3  -8 -17    4.85    0.46
   3  -8  17    3.44    0.60
   3  -8  17    5.61    0.45
   3   8  17    4.34    0.44
   4  -8  17   15.48    0.88
  -4  -8 -17   15.58    0.87
   4  -8  17   12.73    0.97
   4   8  17   14.30    0.87
   5  -8  17    0.29    0.35
   5  -8  17    0.49    0.32
  -5  -8 -17   -0.13    0.28
   5   8  17    0.38    0.24
   6  -8  17    0.53    0.36
  -6  -8 -17    0.31    0.32
   6  -8  17   -0.17    0.42
   6   8  17    0.42    0.29
   7  -8  17    0.85    0.43
   7  -8  17    0.79    0.49
  -7  -8 -17    1.14    0.40
   7   8  17    0.50    0.34
   8  -8  17    0.82    0.56
   8  -8  17    1.48    0.63
  -8  -8 -17    1.32    0.47
   8   8  17    0.30    0.40
   8   9 -17    1.54    0.55
   8   9 -17    1.88    0.53
   7  -9 -17    2.32    0.38
   7   9 -17    3.17    0.57
   7   9 -17    3.18    0.60
  -6  -9  17    1.26    0.33
   6  -9 -17    1.35    0.28
   6   9 -17    0.64    0.40
   6   9 -17    1.43    0.44
  -5  -9  17    4.74    0.51
   5  -9 -17    5.58    0.46
  -5  -9  17    6.78    0.54
  -4  -9  17    8.81    0.63
   4  -9 -17    9.58    0.63
  -4  -9  17   10.50    0.65
  -3  -9  17    0.32    0.20
   3  -9 -17    0.37    0.20
  -3  -9  17    0.39    0.19
   2  -9 -17    0.42    0.18
  -2  -9  17    0.72    0.20
  -2  -9  17    0.48    0.20
  -1  -9  17    1.20    0.21
  -1  -9  17    1.97    0.29
   1  -9 -17    1.50    0.23
   1   9 -17    1.56    0.34
   1   9 -17    1.56    0.34
   0  -9  17    6.79    0.49
   0  -9  17    7.55    0.50
   0  -9 -17    6.82    0.49
   0   9 -17    7.36    0.52
   0   9 -17    7.27    0.53
  -1  -9 -17    1.25    0.23
   1  -9  17    1.02    0.24
   1  -9  17    1.73    0.27
  -1   9 -17    1.41    0.23
   1   9  17    1.54    0.25
   2  -9  17    0.18    0.27
   2  -9  17    0.97    0.25
  -2  -9 -17    0.36    0.21
   2   9  17    0.64    0.23
  -2   9 -17    0.53    0.15
  -3  -9 -17   -0.03    0.22
   3  -9  17   -0.15    0.36
   3  -9  17   -0.09    0.24
   3   9  17   -0.27    0.19
  -4  -9 -17    0.94    0.30
   4  -9  17    0.86    0.28
   4  -9  17    0.81    0.36
   4   9  17    0.93    0.26
  -5  -9 -17    0.80    0.34
   5  -9  17    0.47    0.38
   5  -9  17    1.20    0.36
   5   9  17    1.43    0.30
  -6  -9 -17    0.70    0.37
   6  -9  17    0.54    0.37
   6  -9  17    0.69    0.45
   6   9  17    0.06    0.29
   7  -9  17    0.54    0.51
   7  -9  17   -0.80    0.46
  -7  -9 -17    0.16    0.42
   7   9  17   -0.49    0.31
   8 -10 -17    1.28    0.37
   8 -10 -17    1.53    0.74
   8  10 -17    0.72    0.59
   8  10 -17    1.29    0.58
  -7 -10  17    1.57    0.40
   7 -10 -17   -0.18    0.58
   7 -10 -17    0.41    0.28
   7  10 -17    0.91    0.49
   7  10 -17   -0.09    0.50
  -6 -10  17    2.35    0.37
  -6 -10  17    1.95    0.36
   6 -10 -17    2.19    0.31
  -5 -10  17    3.40    0.45
  -5 -10  17    2.90    0.44
   5 -10 -17    3.64    0.40
   4 -10 -17    0.57    0.23
  -4 -10  17   -0.06    0.23
  -4 -10  17   -0.12    0.23
   3 -10 -17    1.28    0.25
  -3 -10  17    1.35    0.27
  -3 -10  17    0.86    0.26
  -2 -10  17    3.01    0.37
   2 -10 -17    3.87    0.39
  -2 -10  17    3.61    0.38
   1 -10 -17    1.54    0.25
  -1 -10  17    1.53    0.24
  -1 -10  17    1.32    0.24
   0 -10  17    0.50    0.20
   0 -10  17    0.22    0.21
   0 -10 -17    0.45    0.21
   0  10 -17    0.30    0.25
   0  10 -17    0.53    0.26
  -1 -10 -17   11.93    0.73
   1 -10  17   13.23    0.74
   1 -10  17   10.84    0.76
  -1 -10 -17   11.98    0.75
  -1  10 -17   11.90    0.70
  -1  10 -17   13.18    0.72
  -2 -10 -17    0.52    0.25
   2 -10  17    0.39    0.27
   2 -10  17    0.44    0.24
   2  10  17    0.17    0.22
  -3 -10 -17    2.70    0.36
   3 -10  17    1.60    0.40
   3 -10  17    2.42    0.36
   3  10  17    2.07    0.33
   4 -10  17    0.13    0.35
   4 -10  17    0.39    0.28
  -4 -10 -17    0.12    0.29
   4  10  17   -0.05    0.24
   5 -10  17    0.39    0.35
   5 -10  17    0.29    0.40
  -5 -10 -17   -0.31    0.33
   5  10  17    0.08    0.27
   6 -10  17    0.28    0.42
   6 -10  17    0.91    0.50
  -6 -10 -17    0.34    0.40
   6  10  17    0.35    0.29
   7 -10  17    0.89    0.59
  -7 -10 -17    1.26    0.47
   7 -10  17    1.17    0.50
   7  10  17    0.65    0.37
  -7 -11  17    0.47    0.37
   7 -11 -17   -0.08    0.28
   7 -11 -17    0.29    0.64
  -6 -11  17    7.96    0.69
  -6 -11  17    7.18    0.67
   6 -11 -17    7.06    0.60
   6 -11 -17    8.34    1.00
  -5 -11  17    0.86    0.31
  -5 -11  17    1.06    0.31
   5 -11 -17    0.78    0.56
   5 -11 -17    0.92    0.27
   4 -11 -17    0.05    0.21
  -4 -11  17   -0.06    0.26
  -4 -11  17    0.03    0.23
   3 -11 -17    0.36    0.22
  -3 -11  17    0.57    0.24
  -3 -11  17    0.16    0.21
  -2 -11  17    6.96    0.52
  -2 -11  17    6.66    0.53
   2 -11 -17    7.40    0.53
   1 -11 -17   11.83    0.74
   1 -11 -17   10.46    0.83
  -1 -11  17   12.79    0.71
  -1 -11  17   12.75    0.73
   0 -11  17    5.82    0.47
   0 -11 -17    6.28    0.49
   0 -11  17    5.93    0.48
   0 -11 -17    4.98    0.54
   1 -11  17    0.03    0.25
   1 -11  17    0.15    0.23
  -1  11 -17    0.59    0.23
  -1  11 -17   -0.16    0.22
   2 -11  17    9.60    0.78
   2 -11  17   11.79    0.71
  -2 -11 -17   11.34    0.72
   2  11  17    9.93    0.71
  -3 -11 -17    3.39    0.42
   3 -11  17    3.62    0.48
   3  11  17    3.00    0.48
   4 -11  17   13.59    0.86
  -4 -11 -17   12.58    0.82
   4  11  17    9.96    0.79
  -5 -11 -17    4.33    0.53
   5 -11  17    4.75    0.65
   5  11  17    3.36    0.53
  -6 -11 -17    1.51    0.44
   6 -11  17    1.53    0.49
   6  11  17    1.06    0.36
   7 -11  17    0.07    0.57
   7 -11  17    0.04    0.51
  -7 -11 -17    0.51    0.51
   7  11  17   -0.32    0.36
   7 -12 -17    0.47    0.71
   7 -12 -17    0.60    0.31
  -7 -12  17   -0.56    0.38
   6 -12 -17    0.30    0.29
  -6 -12  17    0.52    0.33
  -6 -12  17    0.97    0.38
   6 -12 -17    0.18    0.63
   5 -12 -17    0.87    0.54
  -5 -12  17    0.41    0.30
  -5 -12  17    0.81    0.32
   5 -12 -17    0.14    0.25
   4 -12 -17    0.13    0.49
  -4 -12  17   -0.27    0.28
   4 -12 -17    0.03    0.23
  -4 -12  17   -0.06    0.25
  -3 -12  17    3.58    0.41
  -3 -12  17    3.62    0.47
   3 -12 -17    3.05    0.61
   3 -12 -17    3.63    0.44
   2 -12 -17    2.53    0.38
  -2 -12  17    2.40    0.36
   2 -12 -17    1.51    0.46
  -2 -12  17    2.07    0.31
  -1 -12  17    0.16    0.22
   1 -12 -17    0.44    0.35
  -1 -12  17   -0.35    0.21
   1 -12 -17    0.26    0.22
   0 -12  17    2.33    0.37
   0 -12 -17    2.92    0.40
   0 -12  17    3.35    0.42
   0 -12  17    2.76    0.42
   0 -12 -17    3.09    0.49
   1 -12  17   -0.35    0.26
  -1 -12 -17   -0.57    0.24
   1 -12  17   -0.04    0.24
  -1  12 -17   -0.22    0.27
  -1  12 -17    0.15    0.28
   2 -12  17    7.61    0.59
  -2 -12 -17    6.63    0.61
  -3 -12 -17    4.03    0.52
   3 -12  17    4.16    0.51
   3  12  17    3.06    0.50
   4 -12  17    7.12    0.66
  -4 -12 -17    6.98    0.67
   4  12  17    6.29    0.66
  -5 -12 -17    1.09    0.41
   5 -12  17    0.83    0.42
  -6 -12 -17    4.39    0.62
   6 -12  17    5.39    0.67
   6  12  17    3.64    0.60
  -6 -13  17    2.45    0.45
   6 -13 -17    1.71    0.38
  -6 -13  17    2.22    0.45
   6 -13 -17    2.06    0.74
   5 -13 -17    7.08    1.02
  -5 -13  17    7.99    0.70
  -5 -13  17    7.63    0.71
   5 -13 -17    7.58    0.64
   4 -13 -17   -0.13    0.52
   4 -13 -17    0.12    0.26
  -4 -13  17   -0.06    0.26
  -4 -13  17   -0.01    0.30
  -3 -13  17    8.95    0.65
   3 -13 -17    9.24    0.65
   3 -13 -17    6.90    0.89
  -3 -13  17    8.22    0.62
   2 -13 -17    1.15    0.47
  -2 -13  17    0.30    0.28
  -2 -13  17    0.92    0.27
   2 -13 -17    0.88    0.26
  -1 -13  17    1.69    0.29
   1 -13 -17    2.31    0.34
   1 -13 -17    1.76    0.41
  -1 -13  17    2.08    0.32
   0 -13  17    0.06    0.26
   0 -13  17   -0.29    0.23
   0 -13 -17    0.20    0.26
   1 -13  17    1.91    0.35
   1 -13  17    2.39    0.35
  -1 -13 -17    2.54    0.36
  -2 -13 -17    1.85    0.36
   2 -13  17    1.94    0.37
  -3 -13 -17    8.34    0.72
   3 -13  17   10.34    0.75
   3  13  17    7.94    0.73
   4 -13  17    3.36    0.49
  -4 -13 -17    3.35    0.48
   5 -13  17    1.64    0.47
  -5 -13 -17    0.96    0.48
   5  13  17    0.76    0.37
  -6 -13 -17    0.08    0.54
   6 -13  17   -0.46    0.53
   6  13  17   -0.14    0.36
  -6 -14  17    2.61    0.49
  -6 -14  17    1.55    0.46
   6 -14 -17    1.09    0.75
   6 -14 -17    1.49    0.39
   5 -14 -17    1.19    0.37
   5 -14 -17    0.59    0.66
  -5 -14  17    1.03    0.41
  -5 -14  17    1.42    0.40
   4 -14 -17    0.24    0.56
  -4 -14  17    1.05    0.35
  -4 -14  17    0.99    0.36
   4 -14 -17    0.06    0.30
   3 -14 -17    3.77    0.65
  -3 -14  17    5.15    0.54
  -3 -14  17    5.59    0.57
   3 -14 -17    5.11    0.55
   2 -14 -17    4.13    0.52
   2 -14 -17    4.12    0.64
  -2 -14  17    4.92    0.51
  -2 -14  17    4.63    0.50
  -1 -14  17    0.33    0.27
   1 -14 -17    0.47    0.30
  -1 -14  17    0.39    0.29
   0 -14  17   -0.39    0.27
   0 -14  17    0.13    0.26
   0 -14 -17   -0.35    0.29
  -1 -14 -17    4.16    0.51
   1 -14  17    3.29    0.43
   2 -14  17    1.35    0.38
  -2 -14 -17    1.52    0.39
   3 -14  17   14.83    0.99
  -3 -14 -17   14.66    1.03
   4 -14  17    2.48    0.48
  -4 -14 -17    1.20    0.51
   4  14  17    1.81    0.41
   5 -14  17    0.23    0.47
  -5 -14 -17   -0.21    0.48
   5  14  17   -0.21    0.34
  -5 -15  17    3.68    0.62
  -5 -15  17    2.51    0.48
   5 -15 -17    2.33    0.41
   5 -15 -17    2.04    0.77
   4 -15 -17    1.75    0.38
  -4 -15  17    1.87    0.39
   4 -15 -17    1.84    0.65
  -4 -15  17    2.26    0.42
  -3 -15  17    4.02    0.49
   3 -15 -17    2.69    0.64
   3 -15 -17    3.38    0.47
  -3 -15  17    3.66    0.47
   2 -15 -17    0.02    0.52
  -2 -15  17   -0.38    0.32
   2 -15 -17    0.12    0.32
  -2 -15  17    0.29    0.31
  -1 -15  17   -0.03    0.32
   1 -15 -17    0.28    0.32
  -1 -15  17    0.19    0.29
   0 -15 -17    6.56    0.62
   0 -15  17    5.51    0.72
   0 -15  17    5.27    0.58
  -1 -15 -17    0.16    0.36
   1 -15  17    0.92    0.33
   2 -15  17    5.48    0.59
  -2 -15 -17    4.52    0.66
   3 -15  17    9.09    0.78
  -3 -15 -17    9.14    0.90
   4 -15  17    1.84    0.51
  -4 -15 -17    2.74    0.56
  -4 -16  17    6.89    0.71
  -4 -16  17    5.26    0.64
   4 -16 -17    5.17    0.83
   4 -16 -17    5.53    0.64
   3 -16 -17    1.44    0.61
  -3 -16  17    1.89    0.44
   3 -16 -17    1.60    0.41
  -3 -16  17    2.47    0.42
  -2 -16  17    0.60    0.32
   2 -16 -17    0.80    0.38
  -2 -16  17    0.47    0.40
  -1 -16  17   -0.19    0.31
   1 -16 -17    0.03    0.36
  -1 -16  17    0.67    0.39
   0 -16 -17    5.04    0.68
   0 -16  17    3.66    0.55
  -1 -16 -17    1.27    0.45
   1 -16  17    1.10    0.37
   2 -16  17    0.21    0.39
  -2 -16 -17    0.51    0.43
   3 -16  17   -0.05    0.39
  -3 -16 -17   -0.45    0.47
   4 -16  17    0.23    0.49
  -4 -16 -17   -0.39    0.52
  -3 -17  17    0.37    0.38
   3 -17 -17    0.77    0.41
  -3 -17  17    0.08    0.46
   2 -17 -17    0.28    0.39
  -2 -17  17    0.48    0.38
  -2 -17  17   -0.01    0.45
   1 -17 -17    0.63    0.39
  -1 -17  17    0.69    0.45
  -1 -17  17    0.93    0.37
   0 -17  17    0.27    0.37
   0 -17 -17   -0.46    0.40
   1 -17  17    0.81    0.39
  -1 -17 -17    1.16    0.45
   2 -17  17    0.22    0.39
  -2 -17 -17   -0.10    0.48
   1 -18 -17   -0.38    0.45
  -1 -18  17    0.12    0.40
   0 -18 -17    0.86    0.50
   0 -18  17    2.16    0.49
   9   0 -18    0.26    0.39
   8   0 -18    1.92    0.39
   7   0 -18   -0.20    0.25
   6   0 -18   46.02    2.29
   5   0 -18    0.40    0.22
   4   0 -18   19.68    1.06
   3   0 -18    0.17    0.17
   2   0 -18   49.88    2.32
  -2   0  18   46.70    2.33
   1   0 -18    0.20    0.16
  -1   0  18    0.03    0.16
  -1   0  18    0.24    0.13
   0   0  18   95.82    4.48
   0   0 -18   94.89    4.48
   0   0  18   98.37    4.50
   1   0  18    0.38    0.16
   1   0  18    0.29    0.15
   2   0  18   21.51    1.13
   2   0  18   20.98    1.07
  -2   0 -18   21.51    1.05
  -3   0 -18    5.40    0.36
   3   0  18    6.06    0.39
   3   0  18    6.05    0.54
  -4   0 -18    7.28    0.45
   4   0  18    8.03    0.62
   4   0  18    8.21    0.49
   5   0  18    0.02    0.23
   5   0  18   -0.19    0.19
  -5   0 -18    0.32    0.15
   6   0  18   24.92    1.26
   6   0  18   23.29    1.39
   7   0  18   -0.05    0.31
   7   0  18   -0.28    0.31
   8   0  18    0.52    0.43
   9  -1 -18    4.07    0.52
   9   1 -18    4.17    0.55
   8  -1 -18    1.26    0.34
   8   1 -18    0.34    0.36
   7  -1 -18   -0.08    0.25
   7   1 -18   -0.19    0.27
   6  -1 -18    0.29    0.23
   6   1 -18    0.50    0.28
   5  -1 -18   24.59    1.29
   5   1 -18   24.18    1.29
   4  -1 -18    0.25    0.19
   4   1 -18    0.00    0.19
   3  -1 -18    3.69    0.34
  -3  -1  18    3.53    0.40
   3   1 -18    3.31    0.34
  -2  -1  18    3.03    0.33
   2  -1 -18    3.35    0.32
  -2   1  18    2.56    0.33
   2   1 -18    2.91    0.33
   1  -1 -18   13.58    0.74
  -1  -1  18   13.61    0.71
  -1  -1  18   13.27    0.74
   1   1 -18   14.06    0.74
  -1   1  18   12.59    0.74
  -1   1  18   13.79    0.73
   0  -1  18   21.45    1.07
   0  -1 -18   21.70    1.08
   0  -1  18   22.22    1.10
   0   1  18   21.08    1.09
   0   1 -18   20.74    1.07
   0   1  18   22.11    1.09
   1  -1  18    6.70    0.44
   1  -1  18    6.23    0.42
  -1  -1 -18    6.17    0.41
  -1   1 -18    6.78    0.40
   1   1  18    6.30    0.44
   1   1  18    6.29    0.42
  -2  -1 -18    4.82    0.34
   2  -1  18    3.90    0.40
   2  -1  18    4.86    0.35
   2   1  18    4.57    0.34
   2   1  18    4.85    0.42
  -2   1 -18    4.01    0.31
   3  -1  18   11.43    0.80
  -3  -1 -18   12.53    0.67
   3  -1  18   14.15    0.70
   3   1  18   12.91    0.79
   3   1  18   12.77    0.68
  -3   1 -18   11.98    0.65
   4  -1  18    0.58    0.21
  -4  -1 -18    0.34    0.16
   4  -1  18    0.59    0.24
  -4   1 -18    0.51    0.14
   4   1  18    0.31    0.17
   4   1  18    0.58    0.22
   5  -1  18    1.59    0.28
   5  -1  18    1.47    0.31
  -5  -1 -18    1.68    0.21
   5   1  18    1.32    0.30
   5   1  18    1.31    0.22
   6  -1  18    0.19    0.28
   6  -1  18    0.66    0.30
   6   1  18    0.59    0.23
   6   1  18    1.12    0.33
   7  -1  18    0.91    0.32
   7  -1  18    0.74    0.37
   7   1  18    0.84    0.35
   8  -1  18    0.67    0.43
   8  -1  18    0.31    0.45
   8   1  18    0.79    0.42
   9  -2 -18    0.22    0.37
   9   2 -18    0.75    0.43
   8  -2 -18    1.37    0.36
   8   2 -18    1.07    0.38
   7  -2 -18    3.76    0.47
   7   2 -18    4.56    0.52
   6  -2 -18   -0.16    0.22
   6   2 -18    0.03    0.26
   5  -2 -18   13.47    0.81
   5   2 -18   14.19    0.85
   4  -2 -18    3.00    0.33
   4   2 -18    2.54    0.36
  -3  -2  18    1.52    0.27
   3  -2 -18    1.91    0.28
   3   2 -18    1.59    0.24
  -2  -2  18   21.58    1.17
   2  -2 -18   22.57    1.15
   2   2 -18   23.43    1.17
   1  -2 -18   16.53    0.88
  -1  -2  18   17.78    0.86
  -1  -2  18   17.42    0.91
  -1   2  18   17.36    0.89
   1   2 -18   16.77    0.90
  -1   2  18   16.11    0.90
   0  -2 -18    0.15    0.14
   0  -2  18    0.10    0.16
   0  -2  18    0.03    0.12
   0   2  18    0.01    0.15
   0   2  18    0.17    0.14
   0   2 -18    0.23    0.13
  -1  -2 -18   27.96    1.34
   1  -2  18   27.30    1.36
   1  -2  18   26.63    1.35
   1   2  18   26.87    1.34
   1   2  18   27.44    1.36
  -1   2 -18   27.80    1.32
   2  -2  18    5.28    0.45
  -2  -2 -18    5.16    0.38
   2  -2  18    5.19    0.40
   2   2  18    5.64    0.45
   2   2  18    5.40    0.37
  -2   2 -18    5.26    0.33
   3  -2  18    5.92    0.42
  -3  -2 -18    5.49    0.38
   3  -2  18    5.93    0.54
   3   2  18    5.34    0.47
   3   2  18    5.65    0.38
  -3   2 -18    4.98    0.33
   4  -2  18   11.91    0.83
  -4  -2 -18   11.58    0.68
   4  -2  18   13.28    0.73
   4   2  18   12.70    0.67
   4   2  18   12.82    0.79
  -4   2 -18   11.87    0.62
   5  -2  18    0.74    0.29
  -5  -2 -18    0.70    0.21
   5  -2  18    1.42    0.31
   5   2  18    0.86    0.27
   5   2  18    0.97    0.20
   6  -2  18   20.52    1.09
   6  -2  18   18.50    1.22
   6   2  18   21.59    1.12
   6   2  18   20.17    1.20
   7  -2  18    0.25    0.31
   7  -2  18    0.72    0.38
   7   2  18    0.67    0.36
   8  -2  18    0.16    0.42
   8  -2  18   -0.09    0.39
   8   2  18    0.20    0.41
   9  -3 -18    0.09    0.33
   9   3 -18    0.54    0.46
   8  -3 -18    5.75    0.59
   8   3 -18    6.57    0.71
   7  -3 -18    4.91    0.53
   7   3 -18    5.48    0.62
   6  -3 -18    0.15    0.22
   6   3 -18   -0.03    0.27
   5  -3 -18    4.81    0.43
   5   3 -18    4.60    0.49
  -4  -3  18    9.89    0.67
   4  -3 -18   11.07    0.66
   4   3 -18   11.35    0.70
   3  -3 -18    5.93    0.42
  -3  -3  18    5.65    0.46
   3   3 -18    6.30    0.47
  -2  -3  18   44.61    2.22
   2  -3 -18   46.40    2.20
   2   3 -18   46.03    2.21
  -1  -3  18   13.56    0.76
   1  -3 -18   13.29    0.74
  -1  -3  18   14.24    0.70
  -1   3  18   13.81    0.75
   1   3 -18   13.40    0.76
   0  -3 -18    9.54    0.57
   0  -3  18    9.67    0.55
   0  -3  18    9.91    0.57
   0   3  18    9.48    0.56
   0   3  18    9.78    0.58
   0   3 -18    9.77    0.55
   1  -3  18   17.58    0.92
  -1  -3 -18   17.94    0.90
   1  -3  18   17.08    0.91
   1   3  18   16.67    0.89
   1   3  18   17.57    0.92
  -1   3 -18   17.48    0.87
   2  -3  18    7.95    0.58
   2  -3  18    9.44    0.54
  -2  -3 -18    7.84    0.53
   2   3  18    8.54    0.50
  -2   3 -18    8.39    0.47
   2   3  18    8.98    0.57
  -3  -3 -18    0.32    0.18
   3  -3  18    0.27    0.22
   3  -3  18    0.18    0.26
   3   3  18    0.46    0.20
   3   3  18    0.52    0.16
  -3   3 -18    0.27    0.11
   4  -3  18    9.35    0.70
   4  -3  18    9.02    0.61
  -4  -3 -18    8.66    0.57
   4   3  18    9.46    0.65
   4   3  18    9.03    0.52
   5  -3  18    6.14    0.62
  -5  -3 -18    5.50    0.48
   5  -3  18    6.13    0.50
   5   3  18    6.67    0.55
   5   3  18    6.65    0.41
  -6  -3 -18    0.26    0.26
   6  -3  18    0.51    0.26
   6  -3  18    0.96    0.33
   6   3  18    0.66    0.30
   7  -3  18    1.47    0.40
   7  -3  18    2.05    0.38
   7   3  18    3.50    0.58
   8  -3  18    4.34    0.71
   8  -3  18    4.14    0.63
   8   3  18    4.78    0.77
   9  -4 -18    4.22    0.63
   9   4 -18    5.12    0.79
   8  -4 -18    3.10    0.43
   8   4 -18    3.57    0.54
   7  -4 -18    3.50    0.44
   7   4 -18    3.21    0.45
   6  -4 -18    0.50    0.25
   6   4 -18   -0.21    0.27
   5  -4 -18    1.15    0.24
   5   4 -18    1.09    0.27
   4  -4 -18    0.80    0.20
  -4  -4  18    1.02    0.22
   4   4 -18    0.61    0.24
   3  -4 -18   10.21    0.61
  -3  -4  18    9.87    0.63
   3   4 -18   10.53    0.66
  -2  -4  18    7.42    0.52
   2  -4 -18    7.22    0.48
   2   4 -18    7.16    0.52
  -1  -4  18    8.71    0.55
  -1  -4  18    8.70    0.47
   1  -4 -18    8.60    0.51
   1   4 -18    8.44    0.54
   0  -4 -18   31.99    1.58
   0  -4  18   32.78    1.60
   0  -4  18   33.09    1.57
   0   4 -18   32.40    1.57
   0   4  18   32.02    1.60
   1  -4  18    2.47    0.31
  -1  -4 -18    2.87    0.31
   1  -4  18    2.48    0.32
   1   4  18    3.47    0.34
  -1   4 -18    2.75    0.25
   1   4  18    2.53    0.27
   2  -4  18    3.65    0.36
  -2  -4 -18    2.89    0.35
   2  -4  18    2.84    0.39
   2   4  18    2.45    0.27
   2   4  18    3.11    0.35
  -2   4 -18    2.32    0.23
   3  -4  18   46.89    2.32
   3  -4  18   48.93    2.25
  -3  -4 -18   41.65    2.23
   3   4  18   47.76    2.20
   3   4  18   47.12    2.28
  -4  -4 -18    2.12    0.31
   4  -4  18    2.89    0.39
   4  -4  18    2.18    0.35
   4   4  18    2.86    0.41
   4   4  18    2.18    0.26
   5  -4  18    1.20    0.34
   5  -4  18    1.71    0.29
  -5  -4 -18    1.61    0.29
   5   4  18    1.09    0.29
  -6  -4 -18    0.68    0.28
   6  -4  18    0.40    0.29
   6  -4  18    1.28    0.35
   6   4  18    0.89    0.30
   7  -4  18    0.20    0.38
   7  -4  18    0.09    0.33
   7   4  18    0.72    0.35
   8  -4  18    1.84    0.47
   8  -4  18    1.27    0.50
   8   4  18    1.24    0.48
   9  -5 -18    1.34    0.39
   9   5 -18    0.62    0.53
   8  -5 -18    4.99    0.59
   8   5 -18    3.89    0.60
   8   5 -18    4.73    0.61
   7  -5 -18    0.60    0.28
   7   5 -18    0.34    0.33
   7   5 -18    0.64    0.33
   6  -5 -18    0.07    0.23
   6   5 -18   -0.15    0.30
   6   5 -18    0.02    0.27
   5  -5 -18    0.56    0.20
   5   5 -18    0.82    0.27
   5   5 -18    0.77    0.27
  -4  -5  18    2.45    0.34
   4  -5 -18    2.08    0.31
   4   5 -18    1.88    0.31
   4   5 -18    1.59    0.30
   3  -5 -18    6.25    0.43
  -3  -5  18    5.87    0.47
   3   5 -18    5.48    0.47
  -2  -5  18    7.84    0.55
   2  -5 -18    8.92    0.54
   2   5 -18    9.08    0.58
   1  -5 -18   34.77    1.75
  -1  -5  18   37.17    1.78
  -1  -5  18   36.94    1.70
   1   5 -18   35.29    1.77
   0  -5  18    3.22    0.33
   0  -5  18    3.33    0.30
   0  -5 -18    3.31    0.32
   0   5  18    3.48    0.37
   0   5 -18    3.17    0.31
   1  -5  18   40.88    2.06
   1  -5  18   43.42    2.08
  -1  -5 -18   44.11    2.07
   1   5  18   42.24    2.09
  -1   5 -18   43.82    2.03
   2  -5  18    1.51    0.27
   2  -5  18    0.92    0.24
  -2   5 -18    1.10    0.14
   2   5  18    0.89    0.17
   2   5  18    1.02    0.20
  -3  -5 -18   21.18    1.09
   3  -5  18   20.20    1.19
   3  -5  18   23.23    1.11
   3   5  18   21.60    1.14
   3   5  18   18.98    1.03
   4  -5  18    0.79    0.25
   4  -5  18    0.25    0.28
  -4  -5 -18    0.73    0.25
   4   5  18    0.61    0.23
   5  -5  18    7.45    0.69
   5  -5  18    8.91    0.61
  -5  -5 -18    7.44    0.58
   5   5  18    8.00    0.62
   6  -5  18    0.04    0.27
  -6  -5 -18   -0.03    0.26
   6  -5  18    0.11    0.34
   6   5  18   -0.43    0.25
   7  -5  18    0.08    0.41
   7   5  18   -0.11    0.31
   8  -5  18   -0.92    0.44
   8  -5  18    0.35    0.49
   8   5  18   -0.04    0.41
   9  -6 -18    7.19    0.72
   9   6 -18    8.58    1.05
   9   6 -18    7.52    0.96
   8  -6 -18   -0.21    0.30
   8   6 -18   -0.09    0.43
   8   6 -18    0.33    0.46
   7  -6 -18   -0.48    0.23
   7   6 -18   -0.20    0.34
   7   6 -18   -0.23    0.37
   6  -6 -18   -0.12    0.23
   6   6 -18    0.59    0.30
   6   6 -18   -0.45    0.28
   5  -6 -18    0.68    0.22
  -5  -6  18    0.64    0.24
   5   6 -18    0.10    0.28
   5   6 -18    0.15    0.28
   4  -6 -18   10.83    0.66
  -4  -6  18   10.00    0.67
   4   6 -18   11.45    0.74
   4   6 -18   11.14    0.73
   3  -6 -18    9.45    0.58
  -3  -6  18    9.37    0.61
   3   6 -18    9.39    0.65
   3   6 -18    9.26    0.65
  -2  -6  18    0.61    0.19
   2  -6 -18    0.24    0.16
   2   6 -18   -0.07    0.22
   2   6 -18    0.05    0.22
  -1  -6  18    0.14    0.18
  -1  -6  18    0.23    0.11
   1  -6 -18    0.22    0.15
   1   6 -18   -0.31    0.21
   0  -6 -18   16.06    0.86
   0  -6  18   16.35    0.87
   0  -6  18   16.19    0.83
   0   6  18   15.54    0.89
   0   6 -18   15.86    0.85
   1  -6  18    0.04    0.18
   1  -6  18    0.08    0.18
  -1  -6 -18   -0.07    0.15
   1   6  18    0.18    0.18
  -1   6 -18    0.03    0.14
   2  -6  18    0.82    0.22
   2  -6  18    0.39    0.23
  -2  -6 -18    0.81    0.22
   2   6  18    0.43    0.20
  -2   6 -18    0.48    0.13
   3  -6  18    0.78    0.25
  -3  -6 -18    0.54    0.21
   3  -6  18    0.59    0.31
   3   6  18    0.56    0.21
  -4  -6 -18    0.26    0.23
   4  -6  18    0.21    0.24
   4  -6  18   -0.19    0.27
   4   6  18    0.29    0.21
  -5  -6 -18    3.55    0.49
   5  -6  18    4.39    0.49
   5  -6  18    4.22    0.62
   5   6  18    4.13    0.47
   6  -6  18    3.41    0.52
  -6  -6 -18    3.77    0.51
   6   6  18    2.95    0.42
   7  -6  18    0.46    0.43
  -7  -6 -18    0.85    0.35
   7  -6  18    0.02    0.36
   7   6  18   -0.10    0.35
   8  -6  18   -0.31    0.47
   8  -6  18   -0.26    0.50
   8   6  18   -0.16    0.39
   8  -7 -18    1.56    0.37
   8   7 -18    1.91    0.49
   8   7 -18    1.83    0.52
   7  -7 -18    1.47    0.31
   7   7 -18    1.48    0.43
   7   7 -18    1.89    0.45
   6  -7 -18    0.28    0.24
   6   7 -18    0.53    0.34
   6   7 -18    0.17    0.32
   5  -7 -18    0.41    0.23
  -5  -7  18    0.48    0.24
   5   7 -18    0.46    0.28
   5   7 -18    0.26    0.29
   4  -7 -18    1.28    0.24
  -4  -7  18    1.27    0.26
   4   7 -18    1.53    0.29
   4   7 -18    1.82    0.30
   3  -7 -18   16.34    0.90
  -3  -7  18   16.85    0.93
   3   7 -18   16.30    0.97
   3   7 -18   17.57    0.98
   2  -7 -18    2.05    0.30
  -2  -7  18    1.53    0.25
   2   7 -18    1.27    0.27
   2   7 -18    1.85    0.29
  -1  -7  18   11.35    0.57
  -1  -7  18   11.44    0.67
   1  -7 -18   11.08    0.64
   1   7 -18   10.33    0.72
   1   7 -18   10.27    0.70
   0  -7  18    0.44    0.18
   0  -7  18    0.42    0.17
   0  -7 -18    0.30    0.17
   0   7 -18    0.69    0.20
   0   7  18    0.36    0.20
   1  -7  18    2.50    0.36
   1  -7  18    2.68    0.32
  -1  -7 -18    2.79    0.32
   1   7  18    2.36    0.35
  -1   7 -18    1.91    0.28
   2  -7  18    8.79    0.66
   2  -7  18   10.04    0.61
  -2  -7 -18    9.54    0.61
  -2   7 -18    9.38    0.50
   2   7  18   10.23    0.63
   3  -7  18    0.16    0.32
  -3  -7 -18    0.69    0.25
   3  -7  18    0.99    0.26
   3   7  18    1.04    0.23
   4  -7  18    1.53    0.35
  -4  -7 -18    2.37    0.33
   4   7  18    1.49    0.28
   5  -7  18    0.82    0.30
  -5  -7 -18    0.48    0.31
   5  -7  18    0.29    0.35
   5   7  18    0.88    0.27
  -6  -7 -18    5.72    0.60
   6  -7  18    4.81    0.77
   6  -7  18    6.64    0.64
   6   7  18    5.35    0.60
   7  -7  18    0.08    0.41
   7  -7  18    0.07    0.45
  -7  -7 -18   -0.38    0.35
   7   7  18    0.38    0.34
   8  -7  18    0.12    0.53
   8  -7  18    2.14    0.65
   8   7  18    1.13    0.43
   8  -8 -18    0.24    0.32
   8   8 -18    0.43    0.52
   8   8 -18    0.52    0.46
   7  -8 -18   -0.52    0.27
   7   8 -18   -0.62    0.44
   7   8 -18   -0.04    0.41
   6  -8 -18    4.14    0.47
   6   8 -18    3.36    0.49
   6   8 -18    4.09    0.63
  -5  -8  18    3.47    0.45
   5  -8 -18    4.20    0.40
   5   8 -18    4.80    0.62
   5   8 -18    3.98    0.56
   4  -8 -18   18.48    1.02
  -4  -8  18   19.53    1.06
   4   8 -18   18.34    1.10
   4   8 -18   18.73    1.12
   3  -8 -18   13.65    0.77
  -3  -8  18   12.83    0.77
   3   8 -18   12.55    0.85
   3   8 -18   13.60    0.85
  -2  -8  18    3.19    0.35
   2  -8 -18    3.16    0.34
   2   8 -18    3.78    0.44
   2   8 -18    3.17    0.44
  -1  -8  18    6.70    0.46
   1  -8 -18    5.78    0.44
  -1  -8  18    5.71    0.36
   1   8 -18    6.68    0.57
   1   8 -18    5.31    0.57
   0  -8  18   22.04    1.13
   0  -8  18   21.31    1.09
   0  -8 -18   21.33    1.12
   0   8 -18   21.49    1.12
   1  -8  18   17.85    1.00
   1  -8  18   19.40    0.99
  -1  -8 -18   17.65    0.99
  -1   8 -18   18.62    0.94
   1   8  18   18.17    1.02
  -2  -8 -18   10.11    0.65
   2  -8  18   11.75    0.66
   2  -8  18    9.15    0.71
  -2   8 -18    9.67    0.53
   2   8  18    9.46    0.66
   3  -8  18   -0.25    0.33
   3  -8  18    0.31    0.24
  -3  -8 -18    0.01    0.22
   3   8  18   -0.17    0.20
   4  -8  18    0.13    0.27
  -4  -8 -18    0.65    0.28
   4  -8  18    0.44    0.32
   4   8  18    0.16    0.23
   5  -8  18    1.70    0.42
  -5  -8 -18    2.35    0.40
   5  -8  18    2.21    0.38
   5   8  18    1.88    0.33
   6  -8  18    1.36    0.48
   6  -8  18    2.24    0.43
  -6  -8 -18    1.47    0.39
   6   8  18    1.66    0.36
   7  -8  18   -0.77    0.40
   7  -8  18    0.70    0.49
  -7  -8 -18    0.22    0.42
   7   8  18    0.49    0.36
   8  -9 -18    0.87    0.35
   8   9 -18    1.88    0.59
   8   9 -18    1.10    0.59
   7  -9 -18    2.83    0.40
   7   9 -18    3.56    0.56
   7   9 -18    3.43    0.58
   6  -9 -18    1.77    0.29
   6   9 -18    1.73    0.45
   6   9 -18    1.85    0.42
  -5  -9  18    4.48    0.48
   5  -9 -18    4.43    0.45
   5   9 -18    5.29    0.61
   5   9 -18    6.52    0.67
  -4  -9  18    1.95    0.31
   4  -9 -18    2.24    0.34
   4   9 -18    2.26    0.40
   4   9 -18    2.20    0.39
   3  -9 -18    0.06    0.20
  -3  -9  18    0.47    0.21
   3   9 -18    0.77    0.30
   3   9 -18    0.67    0.28
  -2  -9  18    8.65    0.58
   2  -9 -18    7.92    0.55
   2   9 -18    8.47    0.64
   2   9 -18    9.40    0.68
   1  -9 -18    8.93    0.58
  -1  -9  18    9.08    0.50
  -1  -9  18    9.65    0.59
   1   9 -18    8.66    0.65
   1   9 -18    9.09    0.67
   0  -9  18    2.64    0.34
   0  -9 -18    2.34    0.34
   0  -9  18    2.55    0.34
   0   9 -18    2.73    0.39
   0   9 -18    3.30    0.41
  -1  -9 -18    1.98    0.27
   1  -9  18    1.17    0.25
  -1   9 -18    1.81    0.24
   1   9  18    1.24    0.26
   2  -9  18    1.87    0.29
  -2  -9 -18    1.53    0.27
   2  -9  18    1.41    0.30
   2   9  18    1.73    0.29
  -3  -9 -18    0.59    0.27
   3  -9  18    0.73    0.27
   3  -9  18    0.94    0.37
   3   9  18    0.82    0.25
  -4  -9 -18    0.46    0.31
   4  -9  18    0.63    0.29
   4  -9  18    0.07    0.35
   4   9  18    0.30    0.24
   5  -9  18    0.45    0.41
  -5  -9 -18    0.14    0.33
   5  -9  18    0.62    0.34
   5   9  18    0.44    0.27
  -6  -9 -18    2.51    0.47
   6  -9  18    2.88    0.48
   6  -9  18    2.16    0.58
   6   9  18    2.25    0.39
   7  -9  18   -0.02    0.53
  -7  -9 -18    0.46    0.44
   7  -9  18    0.02    0.45
   7   9  18    0.05    0.35
   7 -10 -18   -0.34    0.30
   7  10 -18    0.61    0.50
   7  10 -18   -0.92    0.47
  -6 -10  18    3.85    0.54
   6 -10 -18    4.54    0.50
   6  10 -18    4.87    0.62
   6  10 -18    3.62    0.58
   5 -10 -18    0.29    0.24
  -5 -10  18   -0.18    0.27
  -5 -10  18    0.00    0.26
  -4 -10  18    0.58    0.27
   4 -10 -18    1.47    0.26
  -4 -10  18    0.88    0.27
   3 -10 -18   12.16    0.73
  -3 -10  18   12.17    0.73
  -3 -10  18   11.21    0.74
   2 -10 -18    5.86    0.49
  -2 -10  18    6.54    0.50
   2  10 -18    4.78    0.57
   2  10 -18    6.48    0.61
  -1 -10  18   -0.10    0.20
   1 -10 -18    0.05    0.18
   1  10 -18    0.10    0.29
   1  10 -18   -0.08    0.28
   0 -10  18    1.32    0.23
   0 -10 -18    1.52    0.25
   0 -10  18    1.25    0.26
   0  10 -18    1.15    0.31
   0  10 -18    1.21    0.31
   1 -10  18    0.03    0.21
   1 -10  18    0.01    0.23
  -1 -10 -18    0.06    0.22
  -1  10 -18    0.24    0.21
  -2 -10 -18    0.56    0.25
   2 -10  18    0.07    0.29
   2 -10  18    0.54    0.23
   2  10  18    0.25    0.23
   3 -10  18    2.30    0.35
   3 -10  18    1.76    0.42
  -3 -10 -18    1.95    0.36
   3  10  18    1.93    0.33
   4 -10  18    0.12    0.37
  -4 -10 -18    0.19    0.31
   4 -10  18    0.21    0.29
   4  10  18    0.06    0.26
  -5 -10 -18    2.03    0.42
   5 -10  18    2.44    0.44
   5 -10  18    1.96    0.50
   5  10  18    2.02    0.37
  -6 -10 -18    0.17    0.41
   6 -10  18    0.44    0.40
   6 -10  18   -0.21    0.47
   6  10  18   -0.23    0.31
   7 -10  18    3.36    0.70
   7 -10  18    2.84    0.61
  -7 -10 -18    2.70    0.54
   7  10  18    3.21    0.48
  -7 -11  18    0.28    0.38
   7 -11 -18    0.30    0.31
   7 -11 -18   -0.06    0.66
   7  11 -18   -0.02    0.56
   7  11 -18    0.17    0.55
  -6 -11  18    0.36    0.33
   6 -11 -18   -0.75    0.58
   6 -11 -18    0.27    0.28
  -6 -11  18   -0.03    0.34
  -5 -11  18    2.20    0.37
  -5 -11  18    2.14    0.36
   5 -11 -18    1.49    0.30
  -4 -11  18    1.88    0.33
  -4 -11  18    2.12    0.34
   4 -11 -18    2.61    0.38
   3 -11 -18    0.90    0.27
  -3 -11  18    0.99    0.26
  -3 -11  18    0.66    0.26
   2 -11 -18    5.88    0.50
  -2 -11  18    7.02    0.52
  -2 -11  18    6.58    0.51
  -1 -11  18    0.22    0.21
   1 -11 -18   -0.24    0.20
   1  11 -18    0.09    0.31
   0 -11  18    1.00    0.26
   0 -11 -18    0.69    0.24
   0 -11 -18    0.95    0.33
   0 -11  18    0.69    0.22
   0  11 -18    0.32    0.32
   0  11 -18    0.98    0.33
   1 -11  18    0.72    0.26
   1 -11  18    0.46    0.26
  -1 -11 -18    1.11    0.27
  -1  11 -18    0.63    0.25
  -1  11 -18    1.25    0.26
  -2 -11 -18    0.64    0.30
   2 -11  18    0.90    0.28
   2 -11  18    0.12    0.34
   2  11  18    0.86    0.27
  -3 -11 -18    0.95    0.32
   3 -11  18    1.56    0.34
   3 -11  18    0.65    0.39
   3  11  18    0.91    0.29
  -4 -11 -18    2.69    0.41
   4 -11  18    2.02    0.47
   4  11  18    1.40    0.33
   5 -11  18   -0.10    0.48
   5 -11  18    0.40    0.36
  -5 -11 -18    0.20    0.40
   5  11  18    0.36    0.31
   6 -11  18    2.99    0.67
  -6 -11 -18    3.21    0.55
   6 -11  18    4.65    0.60
   6  11  18    2.95    0.47
  -7 -12  18    0.44    0.43
   7 -12 -18   -0.60    0.68
   7 -12 -18   -0.10    0.32
  -6 -12  18    1.86    0.42
  -6 -12  18    2.00    0.42
   6 -12 -18    1.86    0.36
   6 -12 -18    1.21    0.65
   5 -12 -18    3.13    0.41
  -5 -12  18    3.15    0.48
  -5 -12  18    2.59    0.41
   5 -12 -18    2.60    0.69
   4 -12 -18    1.82    0.57
  -4 -12  18    0.92    0.33
   4 -12 -18    1.56    0.31
  -4 -12  18    1.34    0.31
  -3 -12  18    0.70    0.27
   3 -12 -18    0.90    0.28
   3 -12 -18    0.69    0.51
  -3 -12  18    0.57    0.26
   2 -12 -18   11.81    0.77
  -2 -12  18   12.55    0.77
  -2 -12  18   13.68    0.78
   2 -12 -18   11.02    0.98
   1 -12 -18   -0.17    0.35
  -1 -12  18    0.41    0.23
  -1 -12  18    0.25    0.22
   1 -12 -18   -0.02    0.21
   0 -12  18   -0.33    0.22
   0 -12 -18    0.31    0.25
   0  12 -18   -0.01    0.34
   0  12 -18   -0.05    0.34
   1 -12  18    1.37    0.30
  -1 -12 -18    2.00    0.33
   1 -12  18    1.29    0.30
  -1  12 -18    1.38    0.29
  -1  12 -18    1.78    0.30
   2 -12  18    8.13    0.63
  -2 -12 -18    7.02    0.62
   2 -12  18    5.52    0.72
   3 -12  18    0.97    0.43
  -3 -12 -18    0.21    0.33
   3 -12  18    0.26    0.31
   3  12  18    0.22    0.30
   4 -12  18    1.35    0.49
  -4 -12 -18    2.76    0.47
   4  12  18    1.70    0.38
  -5 -12 -18    0.78    0.44
   5 -12  18    0.46    0.41
   5 -12  18    0.63    0.53
   5  12  18   -0.10    0.34
  -6 -12 -18    0.66    0.53
   6 -12  18   -0.13    0.49
   6 -12  18    1.27    0.65
   6  12  18   -0.34    0.35
  -6 -13  18    6.10    0.74
  -6 -13  18    6.45    0.72
   6 -13 -18    6.30    0.63
   6 -13 -18    6.81    1.13
  -5 -13  18    1.17    0.36
  -5 -13  18   -0.08    0.36
   5 -13 -18    0.58    0.31
   5 -13 -18    0.50    0.64
  -4 -13  18    6.64    0.64
   4 -13 -18    5.69    0.58
   4 -13 -18    7.78    1.00
  -4 -13  18    7.14    0.61
  -3 -13  18    0.31    0.28
  -3 -13  18    0.43    0.30
   3 -13 -18   -0.17    0.51
   3 -13 -18    0.91    0.29
  -2 -13  18    9.49    0.63
   2 -13 -18    7.16    0.91
  -2 -13  18    7.73    0.63
   2 -13 -18    8.76    0.65
   1 -13 -18    0.61    0.38
  -1 -13  18    0.81    0.28
   1 -13 -18    0.82    0.27
  -1 -13  18    0.64    0.26
   0 -13 -18    0.29    0.28
   0 -13  18   -0.04    0.24
   0 -13  18    0.28    0.27
  -1 -13 -18    0.97    0.31
   1 -13  18    0.57    0.28
   1 -13  18    0.75    0.32
  -2 -13 -18    3.62    0.55
   2 -13  18    2.85    0.51
  -3 -13 -18    4.54    0.60
   3 -13  18    5.31    0.60
   3  13  18    3.85    0.56
  -4 -13 -18    1.68    0.46
   4 -13  18    1.56    0.42
   4  13  18    1.13    0.37
  -5 -13 -18    2.56    0.59
   5  13  18    1.89    0.42
  -6 -14  18   -0.02    0.41
   5 -14 -18    0.71    0.34
   5 -14 -18    0.84    0.70
  -5 -14  18    0.98    0.39
  -5 -14  18    1.10    0.41
   4 -14 -18   -0.12    0.60
   4 -14 -18    0.24    0.30
  -4 -14  18   -0.48    0.30
  -4 -14  18   -0.40    0.34
  -3 -14  18   20.18    1.12
  -3 -14  18   20.00    1.12
   3 -14 -18   15.85    1.34
   3 -14 -18   17.99    1.09
  -2 -14  18   -0.17    0.27
  -2 -14  18    0.35    0.30
   2 -14 -18   -0.03    0.50
   2 -14 -18    0.06    0.28
  -1 -14  18    5.52    0.58
  -1 -14  18    6.30    0.58
   1 -14 -18    6.51    0.59
   0 -14  18   -0.25    0.32
   0 -14  18   -0.03    0.27
   0 -14 -18    0.23    0.31
  -1 -14 -18    2.04    0.37
   1 -14  18    1.99    0.37
  -2 -14 -18   -0.11    0.35
   2 -14  18    0.36    0.34
  -3 -14 -18    4.02    0.56
   3 -14  18    3.65    0.59
   4 -14  18    0.99    0.40
  -4 -14 -18    1.19    0.53
   4  14  18    0.47    0.36
  -5 -14 -18   -0.24    0.52
   5 -14  18    0.27    0.49
   5  14  18    0.43    0.40
  -5 -15  18    1.37    0.43
   5 -15 -18    0.28    0.38
   5 -15 -18    0.47    0.74
  -5 -15  18    1.31    0.46
   4 -15 -18    1.00    0.65
  -4 -15  18    0.89    0.42
   4 -15 -18    1.13    0.36
  -4 -15  18    0.64    0.38
  -3 -15  18    0.91    0.39
  -3 -15  18    1.49    0.37
   3 -15 -18    1.47    0.59
   3 -15 -18    0.54    0.37
   2 -15 -18    0.28    0.35
  -2 -15  18    0.30    0.36
  -2 -15  18    0.16    0.30
  -1 -15  18   -0.03    0.30
   1 -15 -18    0.01    0.34
  -1 -15  18    0.33    0.35
   0 -15  18    1.34    0.35
   0 -15 -18    0.78    0.39
   1 -15  18    1.11    0.35
  -1 -15 -18    0.78    0.41
  -2 -15 -18    1.73    0.48
   2 -15  18    2.15    0.46
  -3 -15 -18    0.33    0.49
   3 -15  18    0.64    0.40
  -4 -15 -18    4.88    0.69
   4 -15  18    4.80    0.74
   4 -16 -18    2.07    0.73
  -4 -16  18    2.96    0.51
  -4 -16  18    1.73    0.52
   4 -16 -18    2.42    0.48
   3 -16 -18    0.04    0.37
  -3 -16  18   -0.30    0.42
  -3 -16  18    0.44    0.38
   3 -16 -18    0.20    0.64
  -2 -16  18    1.70    0.40
  -2 -16  18    2.40    0.47
   2 -16 -18    2.08    0.43
   1 -16 -18    7.16    0.75
  -1 -16  18    7.60    0.79
  -1 -16  18    8.34    0.68
   0 -16  18    0.51    0.34
   0 -16 -18    0.12    0.38
   1 -16  18    3.98    0.62
  -1 -16 -18    4.01    0.55
  -2 -16 -18    1.16    0.47
   2 -16  18    1.12    0.42
   3 -16  18    0.66    0.48
  -3 -16 -18    1.63    0.55
  -2 -17  18    0.63    0.48
   2 -17 -18    0.78    0.42
  -2 -17  18    1.02    0.39
   1 -17 -18   -0.46    0.39
  -1 -17  18   -0.02    0.38
   0 -17 -18    1.33    0.46
   0 -17  18    2.06    0.44
   1 -17  18    0.83    0.42
  -1 -17 -18    1.46    0.50
   2 -17  18   -0.33    0.43
  -2 -17 -18    0.27    0.51
   9   0 -19    7.35    0.78
   8   0 -19    0.39    0.34
   7   0 -19    2.03    0.35
   6   0 -19    0.17    0.24
   5   0 -19    7.06    0.55
   4   0 -19    0.19    0.20
   3   0 -19   52.68    2.54
  -2   0  19    0.53    0.22
  -1   0  19   15.93    0.81
   1   0 -19   14.83    0.82
  -1   0  19   15.07    0.83
   0   0  19    1.64    0.23
   0   0 -19    1.89    0.27
   0   0  19    1.16    0.22
   1   0  19   21.26    1.10
  -1   0 -19   21.37    1.06
   1   0  19   21.52    1.09
  -2   0 -19    0.23    0.14
   2   0  19    0.65    0.18
   3   0  19   31.84    1.65
   3   0  19   33.47    1.57
  -3   0 -19   31.40    1.54
  -4   0 -19    0.46    0.15
   4   0  19    0.78    0.20
   5   0  19   18.07    0.95
   5   0  19   17.86    1.09
   6   0  19    0.43    0.30
   6   0  19    0.25    0.27
   7   0  19    0.83    0.41
   7   0  19    1.53    0.40
   8   0  19   -0.23    0.39
   9  -1 -19    0.16    0.36
   9   1 -19    0.93    0.44
   8  -1 -19    0.53    0.36
   8   1 -19    0.49    0.37
   7  -1 -19    0.45    0.29
   7   1 -19    0.62    0.29
   6  -1 -19   -0.01    0.25
   6   1 -19    0.36    0.26
   5  -1 -19    1.16    0.25
   5   1 -19    1.44    0.29
   4  -1 -19    8.08    0.54
   4   1 -19    7.33    0.54
   3  -1 -19    1.83    0.28
  -3  -1  19    1.98    0.30
   3   1 -19    2.06    0.27
   2  -1 -19    2.92    0.30
  -2  -1  19    2.57    0.36
   2   1 -19    2.98    0.32
  -2   1  19    2.42    0.35
  -1  -1  19   31.52    1.51
   1  -1 -19   31.33    1.53
  -1  -1  19   30.11    1.55
  -1   1  19   32.80    1.53
  -1   1  19   29.90    1.55
   1   1 -19   31.31    1.54
   0  -1  19    6.12    0.40
   0  -1  19    6.02    0.43
   0  -1 -19    5.55    0.42
   0   1 -19    6.28    0.40
   0   1  19    5.54    0.42
   0   1  19    6.33    0.42
  -1  -1 -19   10.81    0.58
   1  -1  19   10.31    0.60
   1  -1  19    9.96    0.60
   1   1  19    9.90    0.61
  -1   1 -19   10.04    0.56
   1   1  19    9.75    0.59
   2  -1  19    6.84    0.52
  -2  -1 -19    5.73    0.42
   2  -1  19    6.44    0.44
   2   1  19    6.63    0.43
  -2   1 -19    5.61    0.39
   2   1  19    7.04    0.52
  -3  -1 -19    3.74    0.32
   3  -1  19    4.19    0.36
   3  -1  19    3.86    0.47
   3   1  19    3.97    0.33
  -3   1 -19    3.11    0.29
   3   1  19    4.58    0.44
  -4  -1 -19    6.57    0.46
   4  -1  19    8.35    0.53
   4  -1  19    8.14    0.63
   4   1  19    7.86    0.48
   4   1  19    7.10    0.58
  -4   1 -19    7.03    0.43
   5  -1  19    0.75    0.28
   5  -1  19    0.10    0.24
  -5  -1 -19    0.13    0.18
   5   1  19    0.23    0.19
   5   1  19    0.08    0.25
   6  -1  19    2.66    0.42
   6  -1  19    2.49    0.40
   6   1  19    3.51    0.57
   6   1  19    2.43    0.37
   7  -1  19    3.44    0.50
   7  -1  19    4.96    0.70
   7   1  19    3.17    0.48
   8  -1  19   -0.26    0.43
   8   1  19    0.18    0.43
   9  -2 -19    0.15    0.38
   9   2 -19    0.09    0.43
   8  -2 -19    1.59    0.39
   8   2 -19    0.90    0.41
   7  -2 -19    1.96    0.34
   7   2 -19    2.11    0.38
   6  -2 -19    3.28    0.42
   6   2 -19    4.20    0.46
   5  -2 -19   24.93    1.30
   5   2 -19   24.24    1.31
   4  -2 -19    1.43    0.23
   4   2 -19    1.37    0.26
  -3  -2  19    0.34    0.21
   3  -2 -19    0.67    0.20
   3   2 -19    0.38    0.20
   2  -2 -19    2.72    0.29
  -2  -2  19    2.65    0.36
   2   2 -19    2.12    0.28
  -1  -2  19    9.60    0.60
   1  -2 -19    9.27    0.55
  -1  -2  19    9.50    0.54
  -1   2  19    9.49    0.59
  -1   2  19   10.08    0.58
   1   2 -19    8.77    0.58
   0  -2  19    0.31    0.14
   0  -2 -19    0.31    0.17
   0  -2  19    0.47    0.20
   0   2 -19    0.41    0.16
   0   2  19    0.39    0.16
   0   2  19    0.43    0.17
   1  -2  19   24.06    1.22
   1  -2  19   23.30    1.21
  -1  -2 -19   24.55    1.20
   1   2  19   24.54    1.23
   1   2  19   23.45    1.20
  -1   2 -19   23.83    1.17
   2  -2  19    0.72    0.22
   2  -2  19    0.60    0.20
  -2  -2 -19    0.38    0.18
  -2   2 -19    0.52    0.14
   2   2  19    0.60    0.22
   2   2  19    0.51    0.17
   3  -2  19   19.58    0.96
   3  -2  19   17.80    1.05
  -3  -2 -19   17.44    0.93
   3   2  19   18.63    0.93
  -3   2 -19   16.80    0.89
   3   2  19   18.77    1.02
  -4  -2 -19    3.49    0.34
   4  -2  19    3.93    0.41
   4  -2  19    3.45    0.48
   4   2  19    3.25    0.32
   4   2  19    4.33    0.47
  -5  -2 -19    2.08    0.26
   5  -2  19    2.24    0.38
   5  -2  19    1.99    0.37
   5   2  19    1.78    0.29
   5   2  19    1.87    0.33
   6  -2  19    1.77    0.38
   6  -2  19    1.72    0.29
   6   2  19    3.18    0.50
   7  -2  19    1.90    0.36
   7  -2  19    1.96    0.42
   7   2  19    1.47    0.39
   8  -2  19    0.71    0.44
   8  -2  19    0.28    0.40
   8   2  19    0.82    0.45
   9  -3 -19    4.26    0.52
   9   3 -19    3.36    0.60
   8  -3 -19    1.68    0.37
   8   3 -19    1.49    0.43
   7  -3 -19    1.22    0.32
   7   3 -19    1.49    0.35
   6  -3 -19    1.63    0.31
   6   3 -19    2.28    0.35
   5  -3 -19    2.72    0.36
   5   3 -19    1.78    0.32
   4  -3 -19    5.99    0.46
  -4  -3  19    4.95    0.46
   4   3 -19    5.70    0.49
  -3  -3  19    0.36    0.20
   3  -3 -19    0.49    0.19
   3   3 -19    0.37    0.21
  -2  -3  19   38.17    1.89
   2  -3 -19   37.97    1.86
   2   3 -19   38.53    1.88
   1  -3 -19    0.30    0.15
  -1  -3  19    0.57    0.21
  -1  -3  19    0.39    0.13
  -1   3  19    0.39    0.17
   1   3 -19    0.09    0.21
   0  -3 -19    1.44    0.21
   0  -3  19    1.51    0.25
   0  -3  19    1.77    0.25
   0   3  19    1.55    0.23
   0   3 -19    1.73    0.25
   0   3  19    1.48    0.26
   1  -3  19   10.05    0.60
  -1  -3 -19    9.66    0.58
   1  -3  19    9.57    0.59
  -1   3 -19   10.13    0.54
   1   3  19    9.29    0.57
   1   3  19    9.89    0.60
   2  -3  19   40.42    2.01
  -2  -3 -19   37.36    1.96
   2  -3  19   40.26    1.97
   2   3  19   41.54    1.95
  -2   3 -19   41.92    1.92
   2   3  19   42.29    2.01
   3  -3  19   12.89    0.84
  -3  -3 -19   12.96    0.74
   3  -3  19   13.31    0.76
  -3   3 -19   12.18    0.65
   3   3  19   13.92    0.70
   3   3  19   13.40    0.79
   4  -3  19    0.23    0.24
   4  -3  19    0.37    0.23
  -4  -3 -19    0.23    0.22
   4   3  19    0.46    0.18
   4   3  19    0.64    0.24
   5  -3  19    3.21    0.52
   5  -3  19    2.49    0.38
  -5  -3 -19    2.38    0.32
   5   3  19    3.17    0.44
   6  -3  19    3.65    0.45
   6  -3  19    4.92    0.64
   6   3  19    3.52    0.53
   7  -3  19    0.41    0.36
   7  -3  19   -0.14    0.32
   7   3  19    0.25    0.34
   8  -3  19   -0.10    0.45
   8  -3  19    0.20    0.43
   8   3  19    0.77    0.44
   9  -4 -19    0.64    0.41
   9   4 -19    0.32    0.50
   8  -4 -19    0.91    0.33
   8   4 -19    0.91    0.45
   7  -4 -19    0.94    0.30
   7   4 -19    0.74    0.34
   6  -4 -19   -0.19    0.23
   6   4 -19    0.45    0.30
   5  -4 -19    2.43    0.36
   5   4 -19    2.58    0.36
  -4  -4  19    5.15    0.48
   4  -4 -19    5.72    0.45
   4   4 -19    5.89    0.50
   3  -4 -19   23.68    1.22
  -3  -4  19   22.72    1.24
   3   4 -19   24.48    1.24
  -2  -4  19   19.00    1.04
   2  -4 -19   19.55    1.02
   2   4 -19   19.93    1.05
   1  -4 -19    0.70    0.17
  -1  -4  19    0.86    0.22
  -1  -4  19    0.70    0.14
   1   4 -19    0.78    0.24
   0  -4  19    0.77    0.23
   0  -4  19    0.84    0.16
   0  -4 -19    1.03    0.19
   0   4  19    0.97    0.21
   0   4 -19    0.81    0.18
   1  -4  19    4.03    0.40
   1  -4  19    4.86    0.39
  -1  -4 -19    4.17    0.36
   1   4  19    4.42    0.43
  -1   4 -19    3.93    0.31
   1   4  19    3.80    0.34
  -2  -4 -19    5.23    0.41
   2  -4  19    4.85    0.42
   2  -4  19    5.10    0.47
   2   4  19    4.68    0.43
   2   4  19    4.23    0.36
  -2   4 -19    4.71    0.32
   3  -4  19   16.39    0.96
   3  -4  19   16.06    0.85
  -3  -4 -19   14.22    0.83
   3   4  19   14.72    0.78
   3   4  19   14.97    0.87
  -3   4 -19   13.44    0.72
  -4  -4 -19    0.00    0.23
   4  -4  19    0.28    0.24
   4  -4  19    0.35    0.25
   4   4  19    0.52    0.19
   4   4  19    0.35    0.21
  -5  -4 -19    1.74    0.31
   5  -4  19    1.82    0.30
   5  -4  19    1.42    0.33
   5   4  19    1.28    0.31
  -6  -4 -19   -0.01    0.28
   6  -4  19    0.16    0.32
   6  -4  19    0.14    0.27
   6   4  19   -0.03    0.29
   7  -4  19    0.24    0.32
   7  -4  19    0.40    0.37
   7   4  19    0.34    0.35
   8  -4  19   -0.20    0.45
   8  -4  19    0.18    0.48
   8   4  19    0.67    0.45
   8  -5 -19    1.49    0.36
   8   5 -19    1.69    0.48
   7  -5 -19    0.65    0.29
   7   5 -19    0.98    0.36
   6  -5 -19    0.24    0.25
   6   5 -19    0.57    0.30
   5  -5 -19    6.07    0.50
   5   5 -19    6.49    0.57
  -4  -5  19    2.17    0.32
   4  -5 -19    2.21    0.28
   4   5 -19    2.56    0.34
   3  -5 -19   28.05    1.42
  -3  -5  19   27.67    1.44
   3   5 -19   28.49    1.46
  -2  -5  19    0.67    0.20
   2  -5 -19    0.58    0.19
   2   5 -19    0.94    0.24
  -1  -5  19   46.72    2.23
  -1  -5  19   47.10    2.16
   1  -5 -19   46.04    2.21
   1   5 -19   44.19    2.23
   0  -5  19    0.50    0.19
   0  -5 -19    0.62    0.17
   0  -5  19    0.67    0.16
   0   5 -19    0.51    0.19
   0   5  19    0.44    0.21
   2  -5  19    4.18    0.43
  -2  -5 -19    3.43    0.37
   2   5  19    2.73    0.30
   2   5  19    3.88    0.38
  -2   5 -19    3.10    0.26
   3  -5  19   25.46    1.22
  -3  -5 -19   23.10    1.20
   3  -5  19   22.72    1.31
   3   5  19   21.39    1.14
   3   5  19   23.78    1.25
   4  -5  19    0.65    0.22
   4  -5  19    0.54    0.28
  -4  -5 -19    0.15    0.24
   4   5  19    0.05    0.20
   5  -5  19    0.88    0.26
   5  -5  19    1.18    0.32
  -5  -5 -19    0.86    0.29
   5   5  19    0.54    0.27
  -6  -5 -19    2.61    0.36
   6  -5  19    1.36    0.41
   6  -5  19    1.99    0.35
   6   5  19    1.57    0.36
   7  -5  19    0.72    0.42
   7  -5  19    0.63    0.36
   7   5  19    0.52    0.37
   8  -5  19    0.97    0.56
   8  -5  19    0.04    0.46
   8   5  19    0.60    0.44
   8  -6 -19    4.61    0.55
   8   6 -19    5.78    0.83
   8   6 -19    6.06    0.76
   7  -6 -19   -0.30    0.26
   7   6 -19   -0.30    0.37
   6  -6 -19   -0.13    0.23
   6   6 -19   -0.17    0.31
   6   6 -19   -0.27    0.33
  -5  -6  19    3.04    0.40
   5  -6 -19    3.46    0.38
   5   6 -19    4.24    0.55
   5   6 -19    3.46    0.49
  -4  -6  19    0.37    0.23
   4  -6 -19    0.62    0.20
   4   6 -19    0.92    0.28
   4   6 -19    0.77    0.26
   3  -6 -19    3.67    0.35
  -3  -6  19    3.83    0.38
   3   6 -19    2.93    0.44
   3   6 -19    3.07    0.45
  -2  -6  19    0.67    0.21
   2  -6 -19    0.65    0.20
   2   6 -19    0.78    0.24
  -1  -6  19    3.39    0.34
  -1  -6  19    3.22    0.26
   1  -6 -19    2.81    0.34
   1   6 -19    3.21    0.41
   0  -6  19    3.08    0.31
   0  -6 -19    3.14    0.32
   0  -6  19    3.25    0.34
   0   6  19    3.44    0.40
   0   6 -19    3.37    0.34
   1  -6  19    1.10    0.22
  -1  -6 -19    1.13    0.21
   1  -6  19    1.13    0.23
  -1   6 -19    1.07    0.18
   1   6  19    0.89    0.23
   2  -6  19   26.98    1.30
  -2  -6 -19   25.91    1.31
   2  -6  19   24.48    1.35
  -2   6 -19   25.15    1.22
   2   6  19   24.76    1.33
  -3  -6 -19    2.29    0.30
   3  -6  19    3.04    0.39
   3  -6  19    1.81    0.37
   3   6  19    2.58    0.37
  -4  -6 -19    2.36    0.32
   4  -6  19    1.55    0.34
   4   6  19    1.80    0.30
   5  -6  19    0.40    0.28
   5  -6  19   -0.19    0.32
  -5  -6 -19    0.46    0.31
   5   6  19    0.33    0.24
   6  -6  19    0.50    0.32
  -6  -6 -19    0.25    0.32
   6  -6  19    0.43    0.40
   6   6  19    0.62    0.32
   7  -6  19    0.23    0.46
   7  -6  19   -0.28    0.38
   7   6  19    0.03    0.36
   8  -7 -19    0.74    0.32
   8   7 -19    0.56    0.48
   8   7 -19    0.25    0.47
   7  -7 -19    0.62    0.29
   7   7 -19    0.37    0.40
   7   7 -19   -0.17    0.43
   6  -7 -19    2.54    0.34
   6   7 -19    2.10    0.41
   6   7 -19    1.97    0.42
  -5  -7  19    0.72    0.26
   5  -7 -19    1.28    0.26
   5   7 -19    1.53    0.36
   5   7 -19    0.79    0.32
  -4  -7  19    0.53    0.23
   4  -7 -19    0.74    0.22
   4   7 -19    0.00    0.28
   4   7 -19    0.68    0.29
   3  -7 -19    4.21    0.38
  -3  -7  19    3.96    0.40
   3   7 -19    3.62    0.48
   3   7 -19    3.28    0.47
   2  -7 -19   15.62    0.87
  -2  -7  19   15.11    0.89
   2   7 -19   17.52    0.95
   2   7 -19   16.32    0.93
  -1  -7  19    2.58    0.25
   1  -7 -19    3.07    0.34
  -1  -7  19    3.11    0.34
   1   7 -19    2.45    0.34
   0  -7 -19    3.73    0.36
   0  -7  19    3.78    0.36
   0  -7  19    3.80    0.35
   0   7 -19    3.90    0.38
   0   7  19    3.59    0.39
  -1  -7 -19   22.18    1.11
   1  -7  19   20.56    1.11
   1  -7  19   21.67    1.11
   1   7  19   20.07    1.12
  -1   7 -19   20.42    1.05
   2  -7  19   10.12    0.60
  -2  -7 -19    8.64    0.60
   2  -7  19    8.91    0.66
   2   7  19    9.00    0.61
  -2   7 -19    8.40    0.48
   3  -7  19    0.50    0.23
   3  -7  19   -0.06    0.31
  -3  -7 -19    0.52    0.23
   3   7  19    0.17    0.20
  -4  -7 -19   11.34    0.73
   4  -7  19   10.39    0.82
   4  -7  19   10.89    0.70
   4   7  19   10.07    0.70
   5  -7  19    1.39    0.39
   5  -7  19    1.69    0.33
  -5  -7 -19    1.38    0.36
   5   7  19    1.26    0.32
   6  -7  19   -0.18    0.40
   6  -7  19   -0.35    0.34
  -6  -7 -19    0.03    0.33
   6   7  19    0.66    0.32
  -7  -7 -19    0.00    0.39
   7  -7  19   -0.33    0.40
   7  -7  19    0.68    0.49
   7   7  19    0.20    0.35
   8  -8 -19    0.31    0.33
   8   8 -19    0.22    0.50
   8   8 -19   -0.63    0.52
   7  -8 -19    0.31    0.29
   7   8 -19    0.09    0.44
   7   8 -19    0.04    0.42
   6  -8 -19    1.56    0.30
   6   8 -19    1.84    0.40
   6   8 -19    1.63    0.41
   5  -8 -19    3.20    0.38
  -5  -8  19    2.40    0.37
   5   8 -19    3.50    0.45
   5   8 -19    2.09    0.39
  -4  -8  19    1.11    0.27
   4  -8 -19    0.62    0.23
   4   8 -19    1.14    0.33
   4   8 -19    1.01    0.31
   3  -8 -19    0.35    0.21
  -3  -8  19   -0.02    0.20
   3   8 -19    0.48    0.26
   3   8 -19    0.75    0.26
  -2  -8  19    2.25    0.32
   2  -8 -19    2.37    0.33
   2   8 -19    2.23    0.33
   2   8 -19    2.43    0.34
  -1  -8  19   23.01    1.20
  -1  -8  19   22.58    1.10
   1  -8 -19   22.56    1.19
   1   8 -19   22.72    1.22
   1   8 -19   22.97    1.23
   0  -8  19    2.77    0.35
   0  -8  19    2.75    0.32
   0  -8 -19    1.99    0.31
   0   8 -19    2.69    0.37
  -1  -8 -19   11.10    0.65
   1  -8  19   11.08    0.66
   1  -8  19    9.96    0.67
   1   8  19    9.46    0.66
  -1   8 -19    9.84    0.60
   2  -8  19    0.28    0.23
  -2  -8 -19    0.07    0.21
   2  -8  19   -0.11    0.24
   2   8  19    0.29    0.22
   3  -8  19    2.98    0.45
   3  -8  19    4.19    0.45
  -3  -8 -19    3.77    0.44
   3   8  19    3.89    0.46
   4  -8  19    0.23    0.35
  -4  -8 -19    0.60    0.30
   4  -8  19    0.71    0.28
   4   8  19    1.01    0.26
  -5  -8 -19    5.34    0.62
   5  -8  19    4.78    0.53
   5  -8  19    4.51    0.73
   5   8  19    5.11    0.55
   6  -8  19    1.62    0.39
   6  -8  19    0.56    0.49
  -6  -8 -19    0.29    0.38
   6   8  19    0.58    0.33
   7  -8  19    0.72    0.53
  -7  -8 -19    0.86    0.45
   7  -8  19    0.73    0.47
   7   8  19    0.67    0.37
   8  -9 -19    0.61    0.35
   8   9 -19    1.02    0.63
   8   9 -19   -0.25    0.53
   7  -9 -19    0.37    0.29
   7   9 -19   -0.02    0.43
   7   9 -19    0.78    0.50
   6  -9 -19    2.62    0.38
   6   9 -19    3.49    0.53
   6   9 -19    2.83    0.50
  -5  -9  19    4.31    0.52
   5  -9 -19    4.65    0.48
   5   9 -19    5.03    0.55
   5   9 -19    5.16    0.68
  -4  -9  19    3.27    0.41
   4  -9 -19    3.37    0.39
   4   9 -19    3.74    0.47
   4   9 -19    4.53    0.61
  -3  -9  19    2.21    0.35
   3  -9 -19    2.50    0.31
   3   9 -19    2.31    0.38
   3   9 -19    2.20    0.37
   2  -9 -19    4.25    0.40
  -2  -9  19    4.11    0.41
   2   9 -19    3.55    0.49
   2   9 -19    3.39    0.51
   1  -9 -19    6.31    0.47
  -1  -9  19    6.41    0.50
   1   9 -19    6.60    0.59
   1   9 -19    6.86    0.57
   0  -9  19    3.06    0.35
   0  -9  19    2.54    0.34
   0  -9 -19    2.76    0.37
   0   9 -19    2.81    0.43
   1  -9  19    0.33    0.23
   1  -9  19    0.92    0.24
  -1  -9 -19    0.53    0.23
  -1   9 -19    0.51    0.21
   1   9  19    0.55    0.23
  -2  -9 -19    3.11    0.42
   2  -9  19    3.19    0.39
   2  -9  19    2.44    0.38
   2   9  19    2.96    0.41
  -3  -9 -19    2.96    0.45
   3  -9  19    3.30    0.41
   3  -9  19    2.24    0.44
   3   9  19    2.50    0.35
   4  -9  19   -0.01    0.29
  -4  -9 -19    0.59    0.33
   4  -9  19    0.28    0.35
   4   9  19    0.04    0.26
  -5  -9 -19    2.66    0.44
   5  -9  19    2.39    0.41
   5  -9  19    2.30    0.49
   5   9  19    2.22    0.38
   6  -9  19    5.71    0.88
  -6  -9 -19    3.60    0.53
   6  -9  19    3.91    0.62
   6   9  19    5.33    0.62
   7  -9  19    0.25    0.57
  -7  -9 -19    0.89    0.47
   7  -9  19    0.30    0.49
   7   9  19    0.29    0.40
   7 -10 -19   -0.09    0.31
   7  10 -19   -0.06    0.52
   7  10 -19    0.13    0.51
  -6 -10  19    1.25    0.36
   6 -10 -19    1.00    0.31
   6  10 -19    1.08    0.54
   6  10 -19    0.26    0.50
  -5 -10  19    2.11    0.37
   5 -10 -19    2.95    0.41
   5  10 -19    2.95    0.49
   5  10 -19    2.73    0.49
   4 -10 -19    2.50    0.34
  -4 -10  19    1.98    0.34
   4  10 -19    2.13    0.45
   4  10 -19    1.75    0.43
   3 -10 -19    0.24    0.21
  -3 -10  19    0.27    0.22
   3  10 -19    0.71    0.35
   3  10 -19    0.36    0.33
  -2 -10  19   -0.19    0.21
   2 -10 -19    0.48    0.21
   2  10 -19   -0.11    0.31
   2  10 -19   -0.06    0.30
  -1 -10  19    3.76    0.40
   1 -10 -19    3.97    0.41
   1  10 -19    5.10    0.51
   1  10 -19    5.07    0.54
   0 -10  19   18.66    1.00
   0 -10  19   17.17    0.94
   0 -10 -19   17.88    0.99
   0  10 -19   17.65    1.02
   0  10 -19   17.61    1.01
   1 -10  19    6.61    0.59
   1 -10  19    7.67    0.55
  -1 -10 -19    7.42    0.56
  -1  10 -19    7.72    0.51
   2 -10  19    0.55    0.33
  -2 -10 -19   -0.05    0.23
   2 -10  19    0.09    0.25
   2  10  19    0.08    0.24
  -3 -10 -19    0.13    0.29
   3 -10  19    0.67    0.36
   3 -10  19    0.06    0.28
   3  10  19    0.13    0.27
   4 -10  19    0.08    0.33
   4 -10  19   -0.20    0.39
  -4 -10 -19    0.01    0.35
   4  10  19   -0.17    0.26
   5 -10  19    1.00    0.51
   5 -10  19    1.36    0.40
  -5 -10 -19    1.04    0.42
   5  10  19    0.79    0.34
  -6 -10 -19    0.39    0.46
   6 -10  19    0.58    0.42
   6 -10  19    0.54    0.57
   6  10  19    0.48    0.35
   7 -11 -19    0.64    0.33
   7 -11 -19    0.26    0.71
   7  11 -19    0.61    0.58
   7  11 -19   -0.49    0.55
  -6 -11  19    1.21    0.37
   6 -11 -19    1.10    0.33
   6  11 -19    1.05    0.56
   6  11 -19    1.67    0.57
  -5 -11  19    1.36    0.36
  -5 -11  19    1.90    0.35
   5 -11 -19    1.49    0.34
   5  11 -19    1.16    0.48
   5  11 -19    1.50    0.46
  -4 -11  19    8.10    0.62
   4 -11 -19    7.33    0.59
  -4 -11  19    6.75    0.62
   4  11 -19    8.61    0.84
  -3 -11  19    1.50    0.30
  -3 -11  19    1.73    0.29
   3 -11 -19    1.25    0.29
   3  11 -19    0.86    0.40
   3  11 -19    1.38    0.40
   2 -11 -19    1.12    0.26
  -2 -11  19    1.13    0.27
   2  11 -19    1.11    0.39
   2  11 -19    1.35    0.38
  -1 -11  19    1.92    0.30
   1 -11 -19    2.49    0.36
   1  11 -19    1.75    0.38
   1  11 -19    1.50    0.37
   0 -11  19   -0.07    0.24
   0 -11 -19   -0.06    0.23
   0 -11 -19    0.11    0.39
   0  11 -19    0.08    0.34
   0  11 -19   -0.15    0.33
  -1 -11 -19    2.94    0.44
   1 -11  19    1.86    0.31
   1 -11  19    2.09    0.34
  -1  11 -19    2.74    0.38
   2 -11  19    6.76    0.74
  -2 -11 -19    8.48    0.64
   2 -11  19    8.73    0.61
   2  11  19    6.65    0.60
   3 -11  19    4.07    0.50
   3 -11  19    3.72    0.52
  -3 -11 -19    3.97    0.47
   3  11  19    2.88    0.49
   4 -11  19   -0.48    0.44
   4 -11  19    0.33    0.36
  -4 -11 -19    0.30    0.37
   4  11  19   -0.20    0.30
   5 -11  19    1.10    0.54
   5 -11  19    1.24    0.41
  -5 -11 -19    1.20    0.45
   5  11  19    0.63    0.35
  -6 -11 -19    0.27    0.48
   6 -11  19    0.01    0.43
   6 -11  19    0.04    0.59
   6  11  19    0.02    0.36
   6 -12 -19    4.53    0.84
   6 -12 -19    4.25    0.56
  -6 -12  19    3.96    0.64
  -6 -12  19    4.36    0.62
   6  12 -19    4.75    0.68
  -5 -12  19    1.55    0.37
  -5 -12  19    1.39    0.36
   5 -12 -19    1.94    0.36
   5 -12 -19    1.78    0.65
  -4 -12  19    0.59    0.30
   4 -12 -19    0.28    0.57
  -4 -12  19    0.46    0.30
  -3 -12  19    1.02    0.30
   3 -12 -19    0.20    0.55
   3 -12 -19    0.98    0.28
  -3 -12  19    0.88    0.30
   2 -12 -19    7.99    0.61
  -2 -12  19    8.26    0.59
   2 -12 -19    7.02    0.90
  -2 -12  19    8.93    0.61
  -1 -12  19    2.06    0.33
   1 -12 -19    2.36    0.43
   1 -12 -19    2.02    0.32
   1  12 -19    2.19    0.40
   1  12 -19    2.08    0.40
   0 -12 -19    3.47    0.44
   0 -12  19    3.96    0.44
   0  12 -19    4.02    0.55
   0  12 -19    3.20    0.43
   1 -12  19    0.99    0.29
  -1 -12 -19    0.81    0.30
   1 -12  19    0.15    0.28
  -2 -12 -19    8.91    0.70
   2 -12  19    9.97    0.70
  -3 -12 -19    0.71    0.35
   3 -12  19    0.39    0.35
   3 -12  19    0.54    0.42
   3  12  19    0.75    0.33
   4 -12  19    9.26    0.74
   4 -12  19    7.29    0.99
   4  12  19    7.73    0.71
  -5 -12 -19    1.34    0.50
   5 -12  19    0.04    0.55
   5 -12  19    1.05    0.45
   5  12  19   -0.41    0.36
   6 -13 -19   -0.28    0.36
   6 -13 -19   -0.07    0.71
  -6 -13  19    1.11    0.44
  -6 -13  19    0.66    0.38
   5 -13 -19    0.33    0.30
  -5 -13  19    0.47    0.38
   5 -13 -19    0.29    0.67
  -5 -13  19    0.53    0.35
  -4 -13  19    1.42    0.34
   4 -13 -19    0.62    0.33
  -4 -13  19    1.18    0.36
   4 -13 -19    1.14    0.61
  -3 -13  19    0.57    0.29
  -3 -13  19    1.29    0.33
   3 -13 -19    0.63    0.31
   3 -13 -19    1.00    0.55
  -2 -13  19   12.57    0.78
   2 -13 -19    9.58    1.02
   2 -13 -19   11.79    0.77
  -2 -13  19   12.17    0.78
  -1 -13  19    0.30    0.28
  -1 -13  19    0.05    0.26
   1 -13 -19   -0.06    0.27
   0 -13  19    5.46    0.55
   0 -13 -19    5.55    0.57
   0  13 -19    4.58    0.54
   0  13 -19    6.17    0.71
   1 -13  19    0.07    0.30
  -1 -13 -19    0.17    0.29
   2 -13  19    1.69    0.39
  -2 -13 -19    1.65    0.39
   3 -13  19    2.63    0.53
  -3 -13 -19    3.93    0.50
   3  13  19    2.47    0.42
   4 -13  19    0.65    0.41
  -4 -13 -19    0.34    0.48
   4 -13  19    0.10    0.53
   4  13  19   -0.17    0.34
   5 -13  19    0.57    0.67
   5 -13  19    1.02    0.51
  -5 -13 -19    1.46    0.58
   5  13  19    0.49    0.39
   5 -14 -19    1.43    0.78
  -5 -14  19    0.46    0.41
   5 -14 -19    1.07    0.37
  -5 -14  19    0.75    0.43
  -4 -14  19    3.71    0.60
  -4 -14  19    4.13    0.50
   4 -14 -19    3.33    0.73
   4 -14 -19    4.08    0.54
  -3 -14  19    1.78    0.36
  -3 -14  19    2.02    0.39
   3 -14 -19    0.33    0.58
   3 -14 -19    1.36    0.36
   2 -14 -19    4.64    0.58
   2 -14 -19    4.58    0.69
  -2 -14  19    5.06    0.55
  -2 -14  19    3.68    0.45
  -1 -14  19    0.08    0.28
   1 -14 -19    0.63    0.33
  -1 -14  19   -0.43    0.31
   0 -14 -19    0.64    0.33
   0 -14  19   -0.46    0.29
   0  14 -19   -0.06    0.43
   0  14 -19   -0.08    0.42
   1 -14  19    2.21    0.39
  -1 -14 -19    2.99    0.45
  -2 -14 -19    0.48    0.39
   2 -14  19    0.41    0.36
  -3 -14 -19    1.39    0.48
   3 -14  19    1.42    0.52
   3 -14  19    1.36    0.42
   4 -14  19    3.43    0.71
   4 -14  19    5.42    0.73
   4  14  19    3.73    0.62
   4 -15 -19    0.61    0.66
  -4 -15  19   -0.34    0.42
  -4 -15  19    0.20    0.39
   4 -15 -19    0.11    0.34
  -3 -15  19    0.88    0.35
  -3 -15  19    0.76    0.40
   3 -15 -19    0.93    0.61
   3 -15 -19    1.50    0.38
   2 -15 -19   -0.12    0.34
  -2 -15  19   -0.06    0.32
  -2 -15  19    0.21    0.37
   1 -15 -19    0.58    0.37
  -1 -15  19   -0.28    0.30
  -1 -15  19    0.36    0.37
   0 -15 -19    0.50    0.38
   0 -15  19    0.44    0.32
  -1 -15 -19   -0.33    0.37
   1 -15  19    0.05    0.34
   2 -15  19   -0.37    0.37
  -2 -15 -19    0.42    0.43
  -3 -15 -19    6.66    0.80
   3 -15  19    6.55    0.77
   3 -15  19    5.95    1.01
  -3 -16  19    2.37    0.45
   3 -16 -19    1.83    0.46
  -3 -16  19    1.68    0.52
  -2 -16  19    0.75    0.45
   2 -16 -19    0.65    0.38
  -2 -16  19    0.65    0.37
  -1 -16  19    2.62    0.45
   1 -16 -19    2.19    0.45
   0 -16  19    0.32    0.36
   0 -16 -19    0.73    0.40
  -1 -16 -19    0.43    0.42
   1 -16  19   -0.30    0.38
   2 -16  19   -0.37    0.42
  -2 -16 -19    0.21    0.45
  -1 -17  19    0.37    0.40
   1 -17 -19    0.14    0.44
   0 -17 -19    0.72    0.45
   0 -17  19    0.46    0.41
   9   0 -20   -0.06    0.40
   8   0 -20    0.04    0.34
   7   0 -20    0.23    0.31
   6   0 -20    2.72    0.41
   5   0 -20   -0.15    0.23
   4   0 -20   23.63    1.25
   3   0 -20    3.03    0.37
   2   0 -20    9.17    0.56
  -2   0  20    8.41    0.61
  -1   0  20    0.63    0.17
   1   0 -20    0.14    0.17
  -1   0  20    0.56    0.22
   0   0  20    0.23    0.19
   0   0  20    0.30    0.15
   0   0 -20    0.33    0.19
  -1   0 -20    0.17    0.16
   1   0  20    0.12    0.17
   1   0  20    0.22    0.18
   2   0  20  104.01    5.16
   2   0  20  112.89    5.13
  -2   0 -20  113.49    5.11
  -3   0 -20    0.22    0.15
   3   0  20    0.57    0.24
   3   0  20    0.47    0.20
   4   0  20    4.56    0.51
  -4   0 -20    3.98    0.33
   4   0  20    4.53    0.39
   5   0  20    0.04    0.23
   5   0  20    0.15    0.27
   6   0  20    0.46    0.29
   6   0  20    0.76    0.33
   7   0  20    0.09    0.40
   8   0  20    1.83    0.54
   9  -1 -20    0.03    0.40
   9   1 -20   -0.60    0.42
   8  -1 -20   -0.21    0.34
   8   1 -20   -0.18    0.36
   7  -1 -20    4.01    0.50
   7   1 -20    3.56    0.52
   6  -1 -20    0.71    0.27
   6   1 -20    0.97    0.28
   5  -1 -20    1.67    0.30
   5   1 -20    1.80    0.29
   4  -1 -20    0.48    0.23
   4   1 -20    1.09    0.25
  -3  -1  20   25.62    1.42
   3  -1 -20   28.72    1.41
   3   1 -20   28.54    1.41
  -2  -1  20    9.59    0.63
   2  -1 -20   10.13    0.58
  -2   1  20    7.67    0.62
   2   1 -20    9.85    0.59
  -1  -1  20   25.95    1.33
   1  -1 -20   25.35    1.29
  -1  -1  20   25.54    1.28
  -1   1  20   26.41    1.29
  -1   1  20   25.43    1.32
   1   1 -20   26.60    1.30
   0  -1  20    9.73    0.55
   0  -1  20    9.41    0.58
   0  -1 -20    8.89    0.55
   0   1  20    8.95    0.58
   0   1  20    9.49    0.57
   0   1 -20    9.52    0.57
   1  -1  20   14.31    0.82
  -1  -1 -20   16.25    0.81
   1  -1  20   14.24    0.82
  -1   1 -20   15.62    0.79
   1   1  20   14.32    0.83
   1   1  20   15.15    0.82
   2  -1  20    9.95    0.59
   2  -1  20    9.34    0.65
  -2  -1 -20    8.69    0.56
  -2   1 -20    8.99    0.53
   2   1  20    9.83    0.65
   2   1  20    9.30    0.57
   3  -1  20    2.18    0.29
   3  -1  20    2.08    0.31
  -3  -1 -20    1.95    0.23
  -3   1 -20    1.70    0.25
   3   1  20    2.16    0.31
   3   1  20    2.23    0.30
   4  -1  20    9.70    0.60
   4  -1  20   10.23    0.70
  -4  -1 -20    8.51    0.54
   4   1  20    8.76    0.55
  -4   1 -20    8.41    0.50
   4   1  20    9.47    0.67
   5  -1  20    3.48    0.49
   5  -1  20    2.64    0.40
   5   1  20    2.09    0.34
   6  -1  20    0.28    0.32
   6  -1  20    0.42    0.26
   6   1  20    0.99    0.44
   6   1  20    0.66    0.32
   7  -1  20   -0.12    0.33
   7  -1  20    0.39    0.37
   7   1  20    0.32    0.38
   8  -1  20    0.37    0.50
   8   1  20    0.57    0.47
   9  -2 -20   -0.39    0.39
   9   2 -20    0.40    0.45
   8  -2 -20    0.46    0.37
   8   2 -20   -0.90    0.37
   7  -2 -20    2.51    0.37
   7   2 -20    2.82    0.42
   6  -2 -20    2.35    0.35
   6   2 -20    2.24    0.34
   5  -2 -20    2.17    0.31
   5   2 -20    1.55    0.30
   4  -2 -20    7.17    0.52
   4   2 -20    7.53    0.55
   3  -2 -20    4.20    0.39
  -3  -2  20    3.61    0.40
   3   2 -20    4.08    0.40
   2  -2 -20    3.63    0.32
  -2  -2  20    2.89    0.36
   2   2 -20    2.67    0.35
  -1  -2  20    0.46    0.15
  -1  -2  20    0.51    0.23
   1  -2 -20    0.24    0.15
  -1   2  20    0.63    0.18
  -1   2  20    0.44    0.20
   1   2 -20    0.40    0.18
   0  -2  20   17.75    0.89
   0  -2 -20   16.86    0.90
   0  -2  20   17.72    0.93
   0   2  20   16.57    0.92
   0   2  20   17.04    0.91
   0   2 -20   16.85    0.90
   1  -2  20   11.63    0.68
  -1  -2 -20   11.17    0.66
   1  -2  20   11.79    0.69
   1   2  20   11.79    0.70
   1   2  20   11.01    0.66
  -1   2 -20   11.84    0.63
  -2  -2 -20    2.82    0.36
   2  -2  20    3.19    0.36
   2  -2  20    2.81    0.42
   2   2  20    3.56    0.33
   2   2  20    3.63    0.40
  -2   2 -20    2.94    0.28
  -3  -2 -20    9.76    0.61
   3  -2  20   11.01    0.73
   3  -2  20   10.36    0.64
  -3   2 -20    9.75    0.55
   3   2  20   10.70    0.69
   3   2  20   10.17    0.60
   4  -2  20    2.36    0.36
   4  -2  20    1.35    0.29
  -4  -2 -20    1.34    0.24
   4   2  20    1.76    0.28
   4   2  20    1.53    0.29
   5  -2  20    0.61    0.30
   5  -2  20    0.36    0.23
  -5  -2 -20    0.08    0.21
   5   2  20    0.14    0.19
   5   2  20    0.44    0.26
   6  -2  20    0.41    0.34
   6  -2  20    0.68    0.27
   6   2  20    0.89    0.33
   7  -2  20    2.04    0.46
   7  -2  20    2.23    0.39
   7   2  20    2.56    0.46
   8  -2  20    1.11    0.53
   8   2  20    0.28    0.46
   8  -3 -20    2.04    0.41
   8   3 -20    2.47    0.47
   7  -3 -20    1.06    0.31
   7   3 -20    1.17    0.34
   6  -3 -20    0.40    0.25
   6   3 -20    0.47    0.30
   5  -3 -20    2.43    0.38
   5   3 -20    3.62    0.46
   4  -3 -20    1.08    0.24
  -4  -3  20    0.75    0.25
   4   3 -20    1.19    0.26
   3  -3 -20    3.50    0.36
  -3  -3  20    3.29    0.38
   3   3 -20    3.35    0.39
   2  -3 -20    6.63    0.46
  -2  -3  20    6.04    0.50
   2   3 -20    6.70    0.49
   1  -3 -20    1.19    0.20
  -1  -3  20    1.27    0.25
  -1  -3  20    1.28    0.18
   1   3 -20    0.85    0.23
  -1   3  20    1.18    0.22
   0  -3 -20    7.73    0.49
   0  -3  20    8.34    0.48
   0  -3  20    7.85    0.54
   0   3 -20    7.78    0.49
   0   3  20    7.63    0.53
   0   3  20    6.54    0.49
  -1  -3 -20    0.25    0.16
   1  -3  20    0.19    0.18
   1  -3  20   -0.13    0.21
   1   3  20    0.04    0.17
  -1   3 -20    0.08    0.14
   1   3  20    0.18    0.19
  -2  -3 -20   13.26    0.75
   2  -3  20   12.44    0.80
   2  -3  20   12.86    0.76
   2   3  20   12.97    0.72
  -2   3 -20   13.43    0.68
   2   3  20   13.62    0.78
   3  -3  20    0.94    0.25
   3  -3  20    0.57    0.27
  -3  -3 -20    0.37    0.24
   3   3  20    0.63    0.23
  -3   3 -20    0.55    0.13
   3   3  20    0.95    0.20
   4  -3  20    1.94    0.33
  -4  -3 -20    1.83    0.29
   4  -3  20    2.07    0.29
   4   3  20    2.31    0.34
   4   3  20    1.77    0.28
   5  -3  20   -0.29    0.27
   5  -3  20    0.58    0.24
  -5  -3 -20    0.35    0.25
   5   3  20    0.02    0.26
   6  -3  20    5.90    0.54
   6  -3  20    5.66    0.70
   6   3  20    6.44    0.64
   7  -3  20    2.25    0.46
   7  -3  20    1.74    0.38
   7   3  20    2.01    0.45
   8  -3  20    3.26    0.53
   8  -3  20    3.00    0.63
   8   3  20    2.52    0.58
   8  -4 -20    0.18    0.34
   8   4 -20    0.10    0.43
   7  -4 -20    3.21    0.43
   7   4 -20    3.78    0.57
   6  -4 -20   -0.27    0.24
   6   4 -20    0.29    0.30
   5  -4 -20    0.40    0.23
   5   4 -20    0.86    0.28
   4  -4 -20    5.05    0.44
  -4  -4  20    4.69    0.45
   4   4 -20    5.19    0.49
   3  -4 -20    1.28    0.24
  -3  -4  20    1.46    0.27
   3   4 -20    1.45    0.29
   2  -4 -20    0.49    0.20
  -2  -4  20    0.97    0.22
  -1  -4  20   38.11    1.89
  -1  -4  20   40.27    1.83
   1  -4 -20   36.90    1.87
   1   4 -20   38.34    1.88
   0  -4  20    0.81    0.17
   0  -4  20    0.88    0.23
   0  -4 -20    0.97    0.19
   0   4 -20    1.12    0.21
   0   4  20    0.68    0.23
   1  -4  20   46.32    2.21
  -1  -4 -20   46.82    2.20
   1  -4  20   46.53    2.21
   1   4  20   46.21    2.23
  -1   4 -20   46.48    2.17
   1   4  20   42.33    2.19
   2  -4  20   19.71    0.97
  -2  -4 -20   17.83    0.96
   2  -4  20   18.99    1.03
   2   4  20   16.97    0.92
   2   4  20   18.39    1.00
  -2   4 -20   15.95    0.88
   3  -4  20    2.90    0.48
  -3  -4 -20    2.95    0.39
   3  -4  20    3.46    0.38
   3   4  20    3.17    0.32
   3   4  20    2.43    0.38
   4  -4  20    0.22    0.28
  -4  -4 -20   -0.25    0.23
   4  -4  20   -0.06    0.22
   4   4  20   -0.10    0.23
  -5  -4 -20    0.32    0.28
   5  -4  20    0.05    0.24
   5  -4  20    0.15    0.28
   5   4  20   -0.23    0.26
   6  -4  20    3.86    0.49
   6  -4  20    4.92    0.64
   6   4  20    3.65    0.56
   7  -4  20    0.21    0.42
   7  -4  20   -0.30    0.33
   7   4  20    0.18    0.37
   8  -5 -20    1.66    0.38
   8   5 -20    2.69    0.51
   7  -5 -20   -0.14    0.29
   7   5 -20   -0.02    0.39
   6  -5 -20    0.42    0.26
   6   5 -20    0.82    0.32
   5  -5 -20    1.20    0.26
   5   5 -20    1.36    0.31
   4  -5 -20    5.47    0.45
  -4  -5  20    5.28    0.47
   4   5 -20    6.01    0.51
   3  -5 -20    8.52    0.55
  -3  -5  20    8.21    0.57
   3   5 -20    7.71    0.60
  -2  -5  20   15.56    0.89
   2  -5 -20   15.56    0.86
   2   5 -20   15.93    0.89
  -1  -5  20    3.99    0.30
   1  -5 -20    3.78    0.35
  -1  -5  20    4.64    0.39
   1   5 -20    3.45    0.42
   0  -5 -20   29.09    1.45
   0  -5  20   30.00    1.47
   0  -5  20   29.34    1.43
   0   5  20   28.54    1.48
   0   5 -20   29.20    1.45
  -1  -5 -20    2.10    0.30
   1  -5  20    1.72    0.28
   1  -5  20    1.91    0.33
   1   5  20    1.32    0.25
  -1   5 -20    1.76    0.21
   2  -5  20   25.86    1.31
   2  -5  20   25.61    1.36
  -2  -5 -20   26.18    1.31
  -2   5 -20   25.37    1.23
   2   5  20   25.14    1.33
   3  -5  20   28.59    1.57
   3  -5  20   31.58    1.51
  -3  -5 -20   28.37    1.49
   3   5  20   30.13    1.54
   3   5  20   29.72    1.49
   4  -5  20    2.59    0.38
   4  -5  20    1.31    0.33
  -4  -5 -20    1.77    0.30
   4   5  20    1.80    0.30
  -5  -5 -20    2.08    0.35
   5  -5  20    2.55    0.41
   5  -5  20    1.61    0.37
   5   5  20    1.56    0.33
   6  -5  20    1.34    0.40
  -6  -5 -20    1.56    0.34
   6  -5  20    1.49    0.34
   6   5  20    1.34    0.37
   7  -5  20    0.46    0.44
   7  -5  20    1.56    0.40
   7   5  20    1.88    0.42
   8  -6 -20    3.08    0.44
   8   6 -20    3.29    0.56
   7  -6 -20    0.75    0.32
   7   6 -20    1.09    0.44
   6  -6 -20    0.29    0.26
   6   6 -20    0.94    0.33
   6   6 -20    0.57    0.33
  -5  -6  20    3.30    0.46
   5  -6 -20    4.00    0.44
   5   6 -20    4.31    0.57
   5   6 -20    3.84    0.54
   4  -6 -20   10.03    0.65
  -4  -6  20    9.68    0.67
   4   6 -20   10.13    0.71
   3  -6 -20   13.08    0.76
  -3  -6  20   12.95    0.79
   3   6 -20   13.67    0.82
   2  -6 -20    5.79    0.44
  -2  -6  20    5.65    0.46
   2   6 -20    6.78    0.50
  -1  -6  20    5.40    0.44
   1  -6 -20    4.32    0.39
  -1  -6  20    5.39    0.34
   1   6 -20    5.41    0.49
   0  -6  20    0.43    0.20
   0  -6  20    0.50    0.17
   0  -6 -20    0.67    0.19
   0   6 -20    0.42    0.21
   0   6  20    0.50    0.22
  -1  -6 -20    1.76    0.25
   1  -6  20    2.08    0.34
   1  -6  20    1.71    0.26
   1   6  20    1.52    0.27
  -1   6 -20    1.85    0.27
  -2  -6 -20    1.02    0.24
   2  -6  20    0.99    0.28
   2  -6  20    1.09    0.24
  -2   6 -20    0.81    0.15
   2   6  20    0.46    0.22
   3  -6  20   12.57    0.89
  -3  -6 -20   13.69    0.81
   3  -6  20   13.86    0.79
   3   6  20   13.87    0.83
  -4  -6 -20   12.93    0.80
   4  -6  20   12.96    0.77
   4  -6  20   12.09    0.88
   4   6  20   12.97    0.83
  -5  -6 -20   10.79    0.77
   5  -6  20    9.85    0.88
   5  -6  20   12.16    0.75
   5   6  20   10.41    0.76
  -6  -6 -20    0.51    0.34
   6  -6  20    0.59    0.42
   6  -6  20    0.36    0.32
   6   6  20    0.31    0.31
   7  -6  20    3.28    0.49
   7  -6  20    3.16    0.58
   7   6  20    2.08    0.46
   8  -7 -20   -0.02    0.35
   8   7 -20    0.23    0.49
   8   7 -20    0.36    0.53
   7  -7 -20    0.06    0.30
   7   7 -20    0.11    0.40
   7   7 -20    0.41    0.44
   6  -7 -20    0.26    0.26
   6   7 -20    0.73    0.35
   6   7 -20    0.91    0.37
   5  -7 -20    1.29    0.29
  -5  -7  20    2.03    0.33
   5   7 -20    1.72    0.38
   5   7 -20    2.10    0.38
  -4  -7  20    4.48    0.44
   4  -7 -20    4.30    0.41
   4   7 -20    3.27    0.51
   4   7 -20    4.80    0.54
   3  -7 -20    0.75    0.21
  -3  -7  20    0.73    0.23
   3   7 -20    0.81    0.28
   3   7 -20    1.19    0.28
   2  -7 -20    0.14    0.18
  -2  -7  20    0.35    0.20
   2   7 -20    0.00    0.24
  -1  -7  20   18.75    0.93
   1  -7 -20   18.01    1.01
  -1  -7  20   19.82    1.03
   1   7 -20   19.14    1.03
   0  -7 -20   17.97    0.98
   0  -7  20   18.65    0.96
   0  -7  20   18.80    1.00
   0   7 -20   19.03    1.00
   0   7  20   18.33    1.03
   1  -7  20   20.39    1.10
   1  -7  20   21.89    1.10
  -1  -7 -20   21.25    1.10
   1   7  20   18.76    1.11
  -1   7 -20   21.04    1.04
   2  -7  20    3.83    0.50
  -2  -7 -20    3.67    0.41
   2  -7  20    4.51    0.41
  -2   7 -20    4.09    0.38
   2   7  20    3.86    0.45
   3  -7  20    9.63    0.63
  -3  -7 -20    9.02    0.64
   3  -7  20    8.64    0.74
   3   7  20    9.24    0.66
  -4  -7 -20    0.67    0.31
   4  -7  20   -0.08    0.33
   4  -7  20    0.30    0.28
   4   7  20    0.45    0.26
   5  -7  20    1.26    0.32
   5  -7  20    0.53    0.38
  -5  -7 -20    1.27    0.37
   5   7  20    0.79    0.31
   6  -7  20    4.65    0.60
   6  -7  20    4.25    0.61
  -6  -7 -20    3.99    0.62
   6   7  20    4.45    0.58
   7  -7  20    0.37    0.49
   7  -7  20    0.58    0.42
   8  -8 -20   -0.46    0.35
   8   8 -20   -0.42    0.53
   8   8 -20   -0.36    0.55
   7  -8 -20    0.82    0.32
   7   8 -20    1.50    0.51
   7   8 -20    0.74    0.45
   6  -8 -20    2.54    0.39
   6   8 -20    2.85    0.50
   6   8 -20    3.00    0.50
   5  -8 -20    0.98    0.26
  -5  -8  20    0.94    0.29
   5   8 -20    0.49    0.34
   5   8 -20    1.28    0.38
  -4  -8  20    1.06    0.27
   4  -8 -20    0.95    0.26
   4   8 -20    1.27    0.34
   4   8 -20    0.97    0.34
  -3  -8  20    1.10    0.27
   3  -8 -20    1.35    0.25
   3   8 -20    1.20    0.32
   3   8 -20    1.44    0.33
   2  -8 -20    2.32    0.33
  -2  -8  20    2.63    0.34
   2   8 -20    2.95    0.37
   2   8 -20    2.86    0.37
  -1  -8  20    0.54    0.21
   1  -8 -20    0.28    0.20
   1   8 -20    0.51    0.26
   0  -8  20    7.81    0.51
   0  -8 -20    7.67    0.55
   0  -8  20    8.16    0.57
   0   8 -20    8.47    0.59
   1  -8  20    4.68    0.47
  -1  -8 -20    5.74    0.43
   1  -8  20    5.17    0.44
  -1   8 -20    4.36    0.39
   1   8  20    4.35    0.47
  -2  -8 -20    3.79    0.43
   2  -8  20    4.14    0.54
   2  -8  20    4.82    0.45
   2   8  20    3.27    0.47
   3  -8  20    8.63    0.59
   3  -8  20    5.35    0.69
  -3  -8 -20    6.83    0.58
   3   8  20    6.78    0.57
  -4  -8 -20    0.49    0.32
   4  -8  20    0.39    0.35
   4  -8  20    0.34    0.28
   4   8  20    0.14    0.26
   5  -8  20    2.84    0.54
   5  -8  20    4.29    0.55
  -5  -8 -20    4.00    0.50
   5   8  20    4.25    0.54
  -6  -8 -20    2.36    0.46
   6  -8  20    2.59    0.53
   6  -8  20    2.45    0.45
   6   8  20    2.69    0.44
   7  -8  20   -0.27    0.42
   7  -8  20   -0.54    0.52
  -7  -8 -20   -0.33    0.50
   7   8  20   -0.07    0.39
   7  -9 -20    0.30    0.32
   7   9 -20    0.11    0.47
   7   9 -20    0.59    0.53
   6  -9 -20    0.93    0.32
   6   9 -20    0.40    0.48
   6   9 -20    1.11    0.47
   5  -9 -20    3.42    0.45
  -5  -9  20    2.77    0.47
   5   9 -20    4.13    0.51
   5   9 -20    4.18    0.51
   4  -9 -20    0.71    0.25
  -4  -9  20    0.31    0.26
   4   9 -20    0.84    0.36
   4   9 -20    0.37    0.33
  -3  -9  20    1.27    0.28
   3  -9 -20    1.19    0.26
   3   9 -20    1.86    0.36
   3   9 -20    1.05    0.32
  -2  -9  20    3.06    0.40
   2  -9 -20    2.91    0.36
   2   9 -20    2.55    0.39
   2   9 -20    3.53    0.51
   1  -9 -20   -0.07    0.20
  -1  -9  20    0.27    0.21
   1   9 -20   -0.14    0.27
   1   9 -20    0.23    0.27
   0  -9  20    9.67    0.64
   0  -9 -20   10.36    0.64
   0  -9  20    9.48    0.60
   0   9 -20   10.20    0.67
  -1  -9 -20    2.86    0.40
   1  -9  20    2.50    0.42
   1  -9  20    2.61    0.40
   1   9  20    1.91    0.31
  -1   9 -20    2.18    0.32
  -2  -9 -20    3.29    0.43
   2  -9  20    3.24    0.41
   2  -9  20    3.43    0.57
   3  -9  20    0.73    0.29
  -3  -9 -20    0.57    0.29
   3  -9  20    0.47    0.35
   3   9  20    0.01    0.25
   4  -9  20   10.44    0.73
  -4  -9 -20    9.71    0.75
   4   9  20    8.14    0.70
  -5  -9 -20    0.16    0.40
   5  -9  20   -0.21    0.43
   5  -9  20   -0.22    0.33
   5   9  20    0.10    0.28
   6  -9  20   10.18    0.83
   6  -9  20    9.61    1.07
  -6  -9 -20    8.79    0.85
   6   9  20    9.00    0.79
   7 -10 -20    3.46    0.52
   7  10 -20    4.29    0.68
   7  10 -20    3.72    0.64
   6 -10 -20    0.45    0.29
  -6 -10  20    0.37    0.33
   6  10 -20    1.27    0.52
   6  10 -20    0.64    0.51
   5 -10 -20    0.28    0.27
  -5 -10  20    0.50    0.31
   5  10 -20    0.55    0.42
   5  10 -20   -0.24    0.40
  -4 -10  20    0.17    0.26
   4 -10 -20    0.35    0.24
   4  10 -20   -0.09    0.34
   4  10 -20    0.68    0.39
   3 -10 -20    0.86    0.26
  -3 -10  20    0.43    0.25
   3  10 -20    0.43    0.35
   3  10 -20    0.10    0.35
   2 -10 -20   -0.10    0.20
  -2 -10  20    0.34    0.23
   2  10 -20    0.43    0.32
   2  10 -20    0.06    0.32
  -1 -10  20    3.19    0.38
   1 -10 -20    2.65    0.33
   1  10 -20    3.02    0.41
   1  10 -20    3.53    0.43
   0 -10 -20    0.85    0.25
   0 -10  20    0.51    0.24
   0 -10  20    0.69    0.32
   0  10 -20    0.53    0.33
   1 -10  20    0.99    0.27
   1 -10  20    0.91    0.27
  -1 -10 -20    0.68    0.27
  -1  10 -20    0.67    0.24
   2 -10  20    0.59    0.28
  -2 -10 -20    0.26    0.28
   2 -10  20    0.35    0.33
   2  10  20   -0.02    0.24
  -3 -10 -20    1.04    0.34
   3 -10  20    0.42    0.29
   3 -10  20    0.78    0.37
   3  10  20   -0.08    0.28
  -4 -10 -20    0.26    0.36
   4 -10  20   -0.77    0.41
   4 -10  20    0.36    0.34
   4  10  20    0.31    0.29
   5 -10  20    0.70    0.37
  -5 -10 -20    1.02    0.45
   5 -10  20    0.20    0.48
   5  10  20    0.24    0.34
  -6 -10 -20    2.07    0.51
   6 -10  20    2.18    0.62
   6 -10  20    2.50    0.50
   6  10  20    1.76    0.42
  -6 -11  20    2.82    0.46
   6 -11 -20    1.80    0.37
   6  11 -20    2.37    0.62
   6  11 -20    2.31    0.59
  -5 -11  20    0.31    0.30
   5 -11 -20    0.50    0.31
   5  11 -20    0.01    0.48
   5  11 -20    0.55    0.46
  -4 -11  20    0.98    0.33
   4 -11 -20    0.76    0.29
   4  11 -20    1.36    0.46
   4  11 -20    1.22    0.45
   3 -11 -20    1.04    0.27
  -3 -11  20    0.84    0.28
   3  11 -20    0.74    0.41
   3  11 -20    0.86    0.40
   2 -11 -20    3.44    0.44
  -2 -11  20    3.36    0.42
   2  11 -20    2.97    0.46
   2  11 -20    3.87    0.49
   1 -11 -20   -0.03    0.23
  -1 -11  20    0.71    0.26
   1  11 -20    0.30    0.32
   1  11 -20    0.57    0.34
   0 -11 -20    1.04    0.28
   0 -11  20    1.18    0.30
   0  11 -20    1.18    0.35
   0  11 -20    1.30    0.35
   1 -11  20    1.40    0.31
  -1 -11 -20    1.72    0.32
   1 -11  20    1.98    0.34
   2 -11  20    2.53    0.46
   2 -11  20    3.16    0.47
  -2 -11 -20    3.99    0.48
   2  11  20    3.39    0.51
   3 -11  20    0.17    0.39
  -3 -11 -20    0.91    0.36
   3 -11  20    0.47    0.32
   3  11  20   -0.24    0.29
   4 -11  20    6.21    0.93
   4 -11  20    7.79    0.68
  -4 -11 -20    6.30    0.73
   4  11  20    5.92    0.68
   5 -11  20    3.68    0.53
   5 -11  20    3.89    0.66
  -5 -11 -20    3.87    0.58
   5  11  20    3.18    0.49
   6 -11  20    4.02    0.76
   6 -11  20    4.33    0.59
  -6 -11 -20    3.33    0.64
   6  11  20    2.84    0.53
   6 -12 -20    0.54    0.73
   6 -12 -20    0.09    0.32
  -6 -12  20   -0.18    0.38
   6  12 -20    0.37    0.59
   6  12 -20   -0.13    0.59
  -5 -12  20    0.18    0.34
   5 -12 -20   -0.37    0.63
   5 -12 -20    0.55    0.31
   5  12 -20   -0.79    0.55
   5  12 -20   -0.77    0.57
  -4 -12  20    5.38    0.57
   4 -12 -20    4.56    0.55
   4 -12 -20    3.42    0.74
   4  12 -20    5.31    0.68
   4  12 -20    4.62    0.66
   3 -12 -20    0.34    0.55
   3 -12 -20    0.47    0.27
  -3 -12  20    0.21    0.30
   3  12 -20    0.02    0.43
   3  12 -20    0.44    0.43
   2 -12 -20    3.63    0.43
   2 -12 -20    3.00    0.62
  -2 -12  20    3.33    0.44
   2  12 -20    3.42    0.53
   2  12 -20    2.89    0.49
   1 -12 -20    0.49    0.26
   1 -12 -20    0.91    0.42
  -1 -12  20    0.65    0.27
   1  12 -20    0.86    0.38
   1  12 -20    0.35    0.37
   0 -12  20    0.49    0.28
   0 -12 -20    0.59    0.28
   0  12 -20    0.59    0.35
   0  12 -20   -0.09    0.36
   1 -12  20    6.01    0.56
  -1 -12 -20    6.13    0.57
  -2 -12 -20    0.40    0.34
   2 -12  20   -0.19    0.41
   2 -12  20    0.16    0.32
   3 -12  20    0.46    0.34
  -3 -12 -20    0.47    0.38
   3 -12  20    0.54    0.44
   3  12  20    0.22    0.31
   4 -12  20    4.97    0.65
   4 -12  20    2.57    0.61
  -4 -12 -20    5.00    0.74
   4  12  20    3.42    0.49
   5 -12  20    0.47    0.63
   5 -12  20    2.07    0.50
  -5 -12 -20    1.75    0.60
   5  12  20    1.95    0.45
  -5 -13  20    4.78    0.56
   5 -13 -20    4.66    0.85
   5 -13 -20    6.08    0.60
  -5 -13  20    5.15    0.64
   5  13 -20    3.60    0.75
   4 -13 -20    4.12    0.75
  -4 -13  20    4.28    0.60
   4 -13 -20    3.69    0.47
  -4 -13  20    4.50    0.58
  -3 -13  20    4.00    0.54
   3 -13 -20    3.57    0.69
   3 -13 -20    5.14    0.54
  -3 -13  20    4.82    0.49
  -2 -13  20    2.64    0.44
   2 -13 -20    1.66    0.60
   2 -13 -20    1.94    0.36
   2  13 -20    2.00    0.53
   2  13 -20    0.48    0.48
  -1 -13  20    1.58    0.34
   1 -13 -20    1.34    0.33
   1  13 -20    1.83    0.44
   1  13 -20    1.37    0.45
   0 -13  20   -0.22    0.27
   0 -13 -20    0.62    0.29
   0  13 -20   -0.24    0.38
   0  13 -20    0.20    0.41
  -1 -13 -20    1.53    0.37
   1 -13  20    2.00    0.39
   2 -13  20    1.81    0.39
   2 -13  20    1.02    0.43
  -2 -13 -20    1.10    0.40
  -3 -13 -20    0.56    0.44
   3 -13  20    0.76    0.40
   3 -13  20    0.90    0.50
   3  13  20    0.16    0.34
  -4 -13 -20    0.40    0.51
   4 -13  20   -0.89    0.54
   4 -13  20   -0.11    0.38
   4  13  20    0.18    0.37
  -5 -14  20    0.26    0.42
   5 -14 -20    0.57    0.73
   5 -14 -20    0.15    0.38
  -5 -14  20    0.19    0.40
   4 -14 -20   -0.23    0.68
  -4 -14  20    0.46    0.42
  -4 -14  20    0.36    0.38
   4 -14 -20    0.68    0.33
  -3 -14  20    0.26    0.32
  -3 -14  20    0.02    0.35
   3 -14 -20    0.15    0.32
   3 -14 -20    0.29    0.61
   2 -14 -20    4.38    0.60
  -2 -14  20    3.98    0.57
  -2 -14  20    3.92    0.55
  -1 -14  20    3.33    0.50
   1 -14 -20    3.93    0.56
   1  14 -20    4.81    0.60
   1  14 -20    3.28    0.55
   0 -14 -20    2.95    0.45
   0 -14  20    2.78    0.42
  -1 -14 -20    1.31    0.40
   1 -14  20    0.93    0.36
   2 -14  20    1.54    0.41
  -2 -14 -20    0.93    0.44
   3 -14  20    6.18    0.68
  -3 -14 -20    6.15    0.80
   3 -14  20    3.78    0.68
  -4 -14 -20    3.86    0.64
   4 -14  20    1.72    0.68
   4  14  20    1.68    0.48
  -4 -15  20    0.61    0.39
   4 -15 -20   -0.26    0.37
  -4 -15  20    0.30    0.47
   4 -15 -20   -0.06    0.70
  -3 -15  20    6.31    0.73
   3 -15 -20    5.05    0.64
   3 -15 -20    5.16    0.95
  -3 -15  20    6.73    0.68
  -2 -15  20    0.09    0.34
  -2 -15  20    0.11    0.39
   2 -15 -20   -0.49    0.36
   1 -15 -20    3.80    0.56
  -1 -15  20    3.04    0.45
   0 -15  20    0.47    0.36
   0 -15 -20    0.09    0.36
  -1 -15 -20   -0.02    0.39
   1 -15  20    0.71    0.38
  -2 -15 -20    0.01    0.43
   2 -15  20   -0.69    0.38
  -3 -15 -20    1.74    0.53
   3 -15  20    1.06    0.48
  -2 -16  20    0.30    0.39
   2 -16 -20    0.00    0.42
  -2 -16  20    0.58    0.46
   1 -16 -20    0.00    0.42
  -1 -16  20    0.39    0.37
   0 -16 -20   -0.02    0.43
   0 -16  20    0.08    0.37
  -1 -16 -20    0.29    0.46
   1 -16  20   -0.49    0.39
   8   0 -21    0.23    0.35
   7   0 -21   -0.11    0.32
   6   0 -21    0.28    0.28
   5   0 -21    2.09    0.31
   4   0 -21   -0.12    0.21
   3   0 -21    3.93    0.38
  -1   0  21   51.86    2.61
  -1   0  21   55.85    2.56
   1   0 -21   53.90    2.57
   0   0 -21   -0.12    0.16
   0   0  21    0.01    0.22
   0   0  21   -0.04    0.16
   1   0  21   19.47    1.09
   1   0  21   20.56    1.09
  -1   0 -21   22.11    1.06
  -3   0 -21   15.84    0.85
   3   0  21   17.12    0.90
   3   0  21   16.43    0.95
  -4   0 -21   -0.09    0.17
   4   0  21   -0.01    0.24
   4   0  21    0.44    0.25
   5   0  21   -0.23    0.25
   5   0  21    0.09    0.28
   6   0  21   -0.55    0.27
   6   0  21    0.31    0.34
   7   0  21    2.34    0.48
   8  -1 -21    0.41    0.37
   8   1 -21    0.51    0.38
   7  -1 -21    3.97    0.56
   7   1 -21    3.49    0.48
   6  -1 -21   24.89    1.33
   6   1 -21   23.47    1.33
   5  -1 -21    0.88    0.26
   5   1 -21    0.72    0.27
   4  -1 -21   13.76    0.81
   4   1 -21   13.47    0.81
   3  -1 -21    0.80    0.22
  -3  -1  21    0.58    0.24
   3   1 -21    1.15    0.24
  -2  -1  21   24.25    1.27
   2  -1 -21   24.97    1.24
   2   1 -21   24.50    1.24
  -2   1  21   22.77    1.26
  -1  -1  21   19.13    1.06
   1  -1 -21   18.33    1.01
  -1  -1  21   20.04    1.00
  -1   1  21   19.72    1.06
  -1   1  21   20.04    1.01
   1   1 -21   19.43    1.02
   0  -1  21    5.24    0.49
   0  -1 -21    5.96    0.42
   0  -1  21    6.24    0.42
   0   1 -21    5.96    0.45
   0   1  21    6.30    0.44
   0   1  21    5.69    0.47
  -1  -1 -21   20.45    1.04
   1  -1  21   20.53    1.07
   1  -1  21   20.96    1.06
   1   1  21   18.58    1.06
   1   1  21   18.84    1.05
  -1   1 -21   20.61    1.02
   2  -1  21   50.78    2.51
   2  -1  21   52.07    2.47
  -2  -1 -21   51.55    2.45
  -2   1 -21   51.10    2.43
   2   1  21   51.76    2.47
   2   1  21   51.56    2.50
   3  -1  21    6.61    0.58
   3  -1  21    7.76    0.55
  -3  -1 -21    7.17    0.49
  -3   1 -21    7.52    0.45
   3   1  21    7.18    0.50
   3   1  21    7.78    0.59
   4  -1  21    3.27    0.41
   4  -1  21    4.12    0.47
  -4  -1 -21    3.20    0.34
   4   1  21    3.42    0.37
   4   1  21    3.03    0.48
   5  -1  21    0.34    0.24
   5  -1  21    0.58    0.31
   5   1  21    0.51    0.29
   5   1  21    0.95    0.24
   6  -1  21    1.66    0.32
   6  -1  21    1.96    0.43
   6   1  21    2.00    0.40
   7  -1  21    6.89    0.77
   7   1  21    7.55    0.79
   8  -2 -21    1.29    0.40
   8   2 -21    2.25    0.46
   7  -2 -21    0.21    0.29
   7   2 -21    0.75    0.36
   6  -2 -21    0.33    0.28
   6   2 -21    0.28    0.29
   5  -2 -21    0.50    0.24
   5   2 -21    0.21    0.25
   4  -2 -21   16.50    0.94
   4   2 -21   17.41    0.96
   3  -2 -21    0.98    0.23
  -3  -2  21    0.83    0.26
   3   2 -21    1.23    0.25
   2  -2 -21    0.48    0.19
  -2  -2  21    0.12    0.20
   2   2 -21    0.38    0.20
   1  -2 -21    0.23    0.17
  -1  -2  21    0.25    0.21
  -1  -2  21    0.32    0.16
  -1   2  21    0.48    0.23
   1   2 -21    0.28    0.18
  -1   2  21    0.54    0.19
   0  -2  21    4.76    0.45
   0  -2 -21    4.87    0.39
   0  -2  21    5.02    0.38
   0   2 -21    5.26    0.43
   0   2  21    5.27    0.43
   0   2  21    4.91    0.42
  -1  -2 -21    0.40    0.18
   1  -2  21    0.14    0.18
   1  -2  21   -0.34    0.22
   1   2  21   -0.07    0.19
  -1   2 -21    0.30    0.16
   1   2  21    0.07    0.19
  -2  -2 -21   22.55    1.21
   2  -2  21   23.23    1.27
   2  -2  21   24.88    1.23
   2   2  21   24.39    1.20
  -2   2 -21   22.73    1.16
   2   2  21   23.62    1.24
  -3  -2 -21    2.45    0.36
   3  -2  21    2.23    0.33
   3  -2  21    3.13    0.38
   3   2  21    2.20    0.31
   3   2  21    1.76    0.29
  -3   2 -21    1.85    0.26
   4  -2  21    5.83    0.47
   4  -2  21    5.59    0.57
  -4  -2 -21    5.12    0.48
   4   2  21    5.98    0.43
   4   2  21    6.02    0.57
   5  -2  21   -0.19    0.22
   5  -2  21   -0.22    0.28
   5   2  21    0.43    0.27
   6  -2  21    0.65    0.28
   6  -2  21    0.55    0.35
   6   2  21   -0.02    0.32
   7  -2  21   -0.01    0.33
   7  -2  21    1.25    0.41
   7   2  21    0.32    0.39
   8  -3 -21    1.84    0.41
   8   3 -21    2.11    0.47
   7  -3 -21   -0.21    0.30
   7   3 -21    0.04    0.34
   6  -3 -21    1.63    0.32
   6   3 -21    2.02    0.37
   5  -3 -21    6.87    0.55
   5   3 -21    6.82    0.57
  -4  -3  21   -0.03    0.21
   4  -3 -21    0.23    0.21
   4   3 -21   -0.08    0.22
  -3  -3  21    4.18    0.43
   3  -3 -21    4.14    0.41
   3   3 -21    4.35    0.43
  -2  -3  21    6.20    0.48
   2  -3 -21    5.88    0.44
   2   3 -21    5.49    0.47
   1  -3 -21    6.18    0.43
  -1  -3  21    5.07    0.39
  -1  -3  21    5.98    0.47
  -1   3  21    6.38    0.48
   1   3 -21    5.98    0.45
   0  -3  21    0.46    0.16
   0  -3  21    0.30    0.22
   0  -3 -21    0.55    0.18
   0   3 -21    0.67    0.21
   0   3  21    0.45    0.21
   0   3  21    0.50    0.22
  -1  -3 -21    4.65    0.37
   1  -3  21    3.29    0.37
   1  -3  21    3.83    0.39
   1   3  21    3.48    0.37
   1   3  21    3.01    0.36
  -1   3 -21    3.55    0.32
   2  -3  21    8.46    0.57
  -2  -3 -21    8.83    0.56
   2  -3  21    7.80    0.65
  -2   3 -21    9.16    0.49
   2   3  21    8.07    0.53
   2   3  21    8.07    0.59
   3  -3  21   12.76    0.85
  -3  -3 -21   12.99    0.77
   3  -3  21   13.85    0.77
   3   3  21   13.72    0.74
  -3   3 -21   13.16    0.69
   3   3  21   13.53    0.82
  -4  -3 -21    2.33    0.34
   4  -3  21    2.46    0.36
   4  -3  21    1.61    0.34
   4   3  21    2.21    0.32
   4   3  21    2.53    0.43
   5  -3  21    2.64    0.38
  -5  -3 -21    2.63    0.35
   5  -3  21    2.50    0.42
   5   3  21    2.31    0.38
   6  -3  21    2.04    0.33
   6  -3  21    1.31    0.40
   6   3  21    1.42    0.37
   7  -3  21    2.30    0.50
   7  -3  21    1.96    0.42
   7   3  21    2.37    0.45
   8  -4 -21    1.49    0.39
   8   4 -21    1.51    0.48
   7  -4 -21   -0.38    0.31
   7   4 -21    0.37    0.36
   6  -4 -21   -0.14    0.27
   6   4 -21   -0.18    0.30
   5  -4 -21    1.68    0.28
   5   4 -21    1.24    0.31
  -4  -4  21    0.29    0.23
   4  -4 -21   -0.37    0.20
   4   4 -21    0.04    0.25
   3  -4 -21   11.99    0.73
  -3  -4  21   12.34    0.77
   3   4 -21   13.25    0.78
  -2  -4  21   71.28    3.48
   2  -4 -21   73.24    3.46
   2   4 -21   74.33    3.47
   1  -4 -21    6.38    0.45
  -1  -4  21    7.01    0.50
  -1  -4  21    6.74    0.42
   1   4 -21    6.08    0.49
   0  -4  21    4.73    0.40
   0  -4  21    4.02    0.34
   0  -4 -21    3.83    0.36
   0   4 -21    4.48    0.39
   0   4  21    4.44    0.43
   1  -4  21    1.23    0.24
   1  -4  21    2.04    0.35
  -1  -4 -21    2.15    0.30
   1   4  21    2.06    0.33
  -1   4 -21    1.99    0.27
   1   4  21    1.21    0.22
   2  -4  21    0.40    0.26
  -2  -4 -21    0.49    0.22
   2  -4  21    0.78    0.25
   2   4  21    0.58    0.21
   2   4  21    0.17    0.18
  -2   4 -21    0.28    0.15
  -3  -4 -21    0.89    0.26
   3  -4  21    1.30    0.30
   3  -4  21    1.34    0.27
   3   4  21    1.65    0.28
   3   4  21    1.06    0.25
   4  -4  21    4.69    0.58
  -4  -4 -21    4.33    0.48
   4  -4  21    5.59    0.45
   4   4  21    4.86    0.50
   5  -4  21    0.67    0.26
  -5  -4 -21    1.06    0.31
   5  -4  21    1.23    0.34
   5   4  21    0.90    0.30
   6  -4  21    0.05    0.28
   6  -4  21    0.29    0.36
   6   4  21    0.57    0.32
   7  -4  21    2.73    0.51
   7  -4  21    1.94    0.43
   7   4  21    2.45    0.47
   8  -5 -21    2.21    0.41
   8   5 -21    2.87    0.57
   7  -5 -21    0.65    0.32
   7   5 -21    0.54    0.40
   6  -5 -21    0.25    0.26
   6   5 -21    0.37    0.31
   5  -5 -21    1.46    0.30
   5   5 -21    1.37    0.33
   4  -5 -21    1.59    0.27
  -4  -5  21    2.04    0.32
   4   5 -21    2.15    0.33
  -3  -5  21   16.52    0.94
   3  -5 -21   16.16    0.91
   3   5 -21   16.26    0.94
  -2  -5  21    1.38    0.26
  -1  -5  21    0.69    0.16
  -1  -5  21    1.19    0.25
   1  -5 -21    0.73    0.20
   1   5 -21    1.16    0.25
   0  -5  21    1.55    0.21
   0  -5 -21    1.30    0.24
   0  -5  21    1.71    0.27
   0   5  21    1.31    0.25
   0   5 -21    1.78    0.26
  -1  -5 -21    0.75    0.20
   1  -5  21   -0.07    0.20
   1  -5  21    0.23    0.20
  -1   5 -21    0.22    0.16
  -2  -5 -21    7.28    0.55
   2  -5  21    7.64    0.63
   2  -5  21    8.05    0.55
  -2   5 -21    7.33    0.45
   2   5  21    8.36    0.59
  -3  -5 -21    2.18    0.32
   3  -5  21    3.63    0.53
   3  -5  21    3.42    0.39
   3   5  21    2.77    0.42
   4  -5  21    2.06    0.32
   4  -5  21    1.60    0.35
  -4  -5 -21    2.17    0.34
   4   5  21    1.58    0.31
   5  -5  21    0.60    0.34
  -5  -5 -21    0.19    0.32
   5   5  21    0.47    0.28
   6  -5  21    2.74    0.49
   6  -5  21    3.14    0.50
   6   5  21    4.08    0.62
   7  -5  21    0.68    0.40
   7   5  21    0.57    0.39
   8  -6 -21   -0.39    0.34
   8   6 -21    0.03    0.49
   7  -6 -21   -0.28    0.30
   7   6 -21    0.18    0.40
   6  -6 -21    2.01    0.35
   6   6 -21    2.87    0.43
   5  -6 -21    0.16    0.24
  -5  -6  21    0.42    0.27
   5   6 -21    0.91    0.31
   4  -6 -21    0.09    0.20
  -4  -6  21    0.28    0.24
   4   6 -21    0.46    0.27
  -3  -6  21   18.39    1.01
   3  -6 -21   16.96    0.97
   3   6 -21   17.92    1.01
  -2  -6  21    0.76    0.24
   2  -6 -21    1.19    0.23
   2   6 -21    1.06    0.27
  -1  -6  21    0.84    0.16
   1  -6 -21    1.39    0.23
  -1  -6  21    1.03    0.23
   1   6 -21    1.08    0.26
   0  -6 -21    3.66    0.35
   0  -6  21    3.60    0.39
   0  -6  21    3.51    0.33
   0   6  21    3.13    0.39
   0   6 -21    3.73    0.40
  -1  -6 -21    5.34    0.44
   1  -6  21    5.63    0.46
   1  -6  21    6.06    0.48
  -1   6 -21    5.88    0.41
   1   6  21    5.54    0.51
   2  -6  21    1.30    0.27
  -2  -6 -21    0.88    0.25
   2  -6  21    1.37    0.30
   2   6  21    1.39    0.26
  -2   6 -21    1.21    0.18
   3  -6  21    0.45    0.25
  -3  -6 -21    0.44    0.25
   3  -6  21   -0.04    0.29
   3   6  21    0.07    0.21
   4  -6  21    0.59    0.28
   4  -6  21    0.09    0.31
  -4  -6 -21    0.69    0.31
   4   6  21    0.18    0.24
  -5  -6 -21    0.47    0.35
   5  -6  21    1.21    0.30
   5  -6  21    0.52    0.35
   5   6  21    0.52    0.30
   6  -6  21    6.93    0.81
   6  -6  21    6.01    0.65
  -6  -6 -21    6.82    0.68
   6   6  21    6.52    0.68
   7  -6  21   -0.40    0.39
   7  -6  21    0.58    0.49
   7   6  21   -0.54    0.38
   7  -7 -21    3.54    0.51
   7   7 -21    3.83    0.56
   6  -7 -21    1.55    0.34
   6   7 -21    1.88    0.44
   6   7 -21    1.63    0.45
   5  -7 -21    1.73    0.32
  -5  -7  21    2.45    0.41
   5   7 -21    2.12    0.41
   5   7 -21    2.54    0.43
  -4  -7  21    2.44    0.39
   4  -7 -21    1.96    0.30
   4   7 -21    2.40    0.38
  -3  -7  21    3.15    0.40
   3  -7 -21    3.25    0.37
   3   7 -21    3.31    0.46
   2  -7 -21    6.04    0.47
  -2  -7  21    6.35    0.51
   2   7 -21    6.21    0.54
   1  -7 -21    0.29    0.19
  -1  -7  21    0.62    0.22
  -1  -7  21    0.40    0.13
   1   7 -21    0.19    0.25
   0  -7  21    0.13    0.17
   0  -7  21    0.39    0.22
   0  -7 -21    0.54    0.21
   0   7 -21    0.10    0.24
   1  -7  21    1.58    0.29
   1  -7  21    1.43    0.26
  -1  -7 -21    1.48    0.25
   1   7  21    1.40    0.28
  -1   7 -21    1.93    0.29
   2  -7  21   -0.09    0.28
  -2  -7 -21   -0.04    0.23
   2  -7  21    0.11    0.23
   2   7  21   -0.28    0.21
   3  -7  21    2.76    0.43
  -3  -7 -21    2.98    0.44
   3  -7  21    2.42    0.39
   3   7  21    2.40    0.41
  -4  -7 -21    1.92    0.37
   4  -7  21    1.76    0.37
   4  -7  21    1.59    0.32
   4   7  21    1.47    0.30
   5  -7  21    3.08    0.53
  -5  -7 -21    4.16    0.52
   5  -7  21    5.76    0.56
   5   7  21    4.72    0.56
  -6  -7 -21   -0.14    0.38
   6  -7  21   -0.42    0.34
   6  -7  21   -0.72    0.43
   6   7  21    0.30    0.34
   7  -7  21    0.26    0.44
   7  -7  21   -0.56    0.52
   7   7  21    0.28    0.38
   7  -8 -21    0.34    0.31
   7   8 -21   -0.08    0.50
   7   8 -21    0.11    0.47
   6  -8 -21    1.70    0.36
   6   8 -21    0.98    0.48
   6   8 -21    1.95    0.51
   5  -8 -21    1.64    0.30
  -5  -8  21    1.28    0.33
   5   8 -21    1.73    0.41
   5   8 -21    2.60    0.42
  -4  -8  21    2.20    0.34
   4  -8 -21    1.33    0.30
   4   8 -21    2.20    0.41
   4   8 -21    1.66    0.39
  -3  -8  21    9.47    0.67
   3  -8 -21    9.63    0.63
   3   8 -21    9.88    0.74
   3   8 -21   10.34    0.77
   2  -8 -21    6.20    0.49
  -2  -8  21    7.00    0.52
   2   8 -21    6.49    0.58
   1  -8 -21    0.18    0.22
   1   8 -21    0.02    0.25
   0  -8  21   -0.12    0.17
   0  -8 -21    0.11    0.21
   0  -8  21    0.27    0.23
   0   8 -21    0.32    0.26
   1  -8  21    2.82    0.40
  -1  -8 -21    2.87    0.36
   1  -8  21    2.47    0.41
   1   8  21    2.44    0.40
  -1   8 -21    2.70    0.33
  -2  -8 -21    7.04    0.54
   2  -8  21    6.13    0.51
   2  -8  21    6.14    0.64
   2   8  21    5.54    0.53
   3  -8  21    0.54    0.34
  -3  -8 -21    0.58    0.30
   3  -8  21    0.83    0.28
   3   8  21    0.25    0.25
  -4  -8 -21    2.09    0.41
   4  -8  21    0.99    0.43
   4  -8  21    1.91    0.34
   4   8  21    0.98    0.32
   5  -8  21    3.11    0.54
  -5  -8 -21    3.43    0.51
   5  -8  21    4.33    0.55
   5   8  21    3.10    0.45
   6  -8  21    0.53    0.48
   6  -8  21    0.00    0.36
  -6  -8 -21   -0.01    0.41
   6   8  21    0.22    0.32
   7  -9 -21    0.03    0.32
   7   9 -21   -0.34    0.50
   7   9 -21   -0.10    0.51
   6  -9 -21    1.52    0.35
   6   9 -21    1.86    0.52
   6   9 -21    2.03    0.53
   5  -9 -21    3.14    0.48
  -5  -9  21    2.98    0.42
   5   9 -21    2.85    0.48
   5   9 -21    3.41    0.51
   4  -9 -21    3.33    0.43
  -4  -9  21    3.13    0.44
   4   9 -21    2.71    0.44
   4   9 -21    2.98    0.45
   3  -9 -21    1.29    0.27
  -3  -9  21    1.95    0.33
   3   9 -21    1.20    0.37
   3   9 -21    1.83    0.38
  -2  -9  21    4.12    0.46
   2  -9 -21    4.09    0.43
   2   9 -21    3.71    0.46
   2   9 -21    4.18    0.56
  -1  -9  21   -0.14    0.20
   1  -9 -21   -0.03    0.20
   1   9 -21    0.16    0.28
   0  -9  21   -0.06    0.18
   0  -9  21    0.13    0.22
   0  -9 -21    0.25    0.22
   0   9 -21   -0.08    0.30
  -1  -9 -21    1.35    0.28
   1  -9  21    1.17    0.26
   1  -9  21    1.64    0.28
  -1   9 -21    1.20    0.24
   1   9  21    0.95    0.27
   2  -9  21    2.17    0.40
   2  -9  21    2.95    0.40
  -2  -9 -21    2.52    0.36
   2   9  21    1.99    0.33
  -3  -9 -21   -0.54    0.30
   3  -9  21    0.00    0.27
   3  -9  21   -0.09    0.34
   3   9  21    0.18    0.27
   4  -9  21    0.53    0.31
  -4  -9 -21    0.19    0.38
   4  -9  21    0.82    0.42
   4   9  21   -0.02    0.30
   5  -9  21    2.31    0.52
  -5  -9 -21    2.72    0.52
   5  -9  21    1.84    0.40
   5   9  21    1.64    0.38
   6  -9  21    0.73    0.43
   6  -9  21    0.79    0.57
  -6  -9 -21    1.23    0.50
   6   9  21    0.79    0.39
   6 -10 -21    4.40    0.56
  -6 -10  21    3.72    0.59
   6  10 -21    3.93    0.61
   6  10 -21    4.92    0.68
   5 -10 -21    1.12    0.33
  -5 -10  21    0.88    0.34
   5  10 -21    0.80    0.43
   5  10 -21    0.38    0.46
   4 -10 -21    1.57    0.31
  -4 -10  21    1.16    0.33
   4  10 -21    1.72    0.45
   4  10 -21    1.80    0.44
  -3 -10  21    0.05    0.25
   3 -10 -21   -0.01    0.22
   3  10 -21   -0.38    0.36
   3  10 -21   -0.11    0.35
  -2 -10  21    0.38    0.24
   2 -10 -21    0.27    0.24
   2  10 -21   -0.21    0.34
   2  10 -21    0.00    0.32
  -1 -10  21    0.20    0.25
   1 -10 -21    0.44    0.24
   1  10 -21    0.24    0.31
   0 -10  21    4.71    0.46
   0 -10 -21    4.42    0.45
   0  10 -21    3.92    0.53
   1 -10  21    0.91    0.29
   1 -10  21    0.37    0.26
  -1 -10 -21    0.86    0.30
   2 -10  21    0.44    0.29
   2 -10  21   -0.22    0.39
  -2 -10 -21    0.52    0.29
   2  10  21    0.59    0.28
   3 -10  21    1.32    0.41
  -3 -10 -21    0.46    0.36
   3 -10  21    1.17    0.35
   3  10  21    0.63    0.32
   4 -10  21    9.94    0.75
   4 -10  21    7.87    0.90
  -4 -10 -21    9.90    0.82
   4  10  21    8.33    0.77
   5 -10  21    2.74    0.45
  -5 -10 -21    2.08    0.53
   5 -10  21    0.78    0.53
   5  10  21    1.60    0.40
  -6 -10 -21    0.72    0.51
   6 -10  21    0.65    0.61
   6 -10  21    0.10    0.44
   6  10  21    0.24    0.40
  -6 -11  21   -0.39    0.37
   6 -11 -21    0.14    0.32
   6  11 -21   -0.62    0.54
   6  11 -21   -0.43    0.51
  -5 -11  21    6.26    0.65
   5 -11 -21    6.54    0.62
   5  11 -21    6.22    0.91
   5  11 -21    5.85    0.88
   4 -11 -21    8.27    0.67
  -4 -11  21    8.72    0.69
   4  11 -21    9.02    0.92
   4  11 -21   11.08    0.92
  -3 -11  21   -0.02    0.27
   3 -11 -21    0.12    0.26
   3  11 -21   -0.14    0.38
   3  11 -21   -0.19    0.38
  -2 -11  21    2.09    0.34
   2 -11 -21    1.16    0.27
   2  11 -21    1.95    0.43
   2  11 -21    2.52    0.45
  -1 -11  21    1.96    0.32
   1 -11 -21    1.65    0.32
   1  11 -21    1.55    0.40
   1  11 -21    1.56    0.39
   0 -11 -21    0.16    0.24
   0 -11  21   -0.05    0.26
   0  11 -21    0.33    0.31
   1 -11  21    0.37    0.33
   1 -11  21    0.03    0.28
  -1 -11 -21    0.36    0.27
   2 -11  21    1.36    0.45
   2 -11  21    1.97    0.37
  -2 -11 -21    2.19    0.37
   2  11  21    1.47    0.33
   3 -11  21    3.76    0.57
  -3 -11 -21    3.82    0.50
   3 -11  21    3.63    0.53
   3  11  21    2.93    0.43
  -4 -11 -21   -0.30    0.45
   4 -11  21   -0.39    0.47
   4 -11  21    0.26    0.38
   4  11  21    0.10    0.34
   5 -11  21    0.96    0.41
  -5 -11 -21    0.78    0.52
   5 -11  21   -1.09    0.55
   5  11  21    0.35    0.38
   5 -12 -21   -0.56    0.68
  -5 -12  21    0.07    0.36
   5 -12 -21   -0.12    0.31
   5  12 -21    0.33    0.57
   5  12 -21    0.08    0.59
  -4 -12  21    1.00    0.37
   4 -12 -21    1.07    0.33
   4  12 -21    1.36    0.56
   4  12 -21    0.56    0.54
   3 -12 -21   -0.02    0.29
  -3 -12  21    0.32    0.29
   3  12 -21   -0.07    0.46
   3  12 -21    0.33    0.46
   2 -12 -21    0.63    0.57
  -2 -12  21    0.01    0.26
   2 -12 -21    0.62    0.29
   2  12 -21   -0.14    0.41
   2  12 -21   -0.24    0.41
  -1 -12  21    1.00    0.31
   1 -12 -21    1.21    0.30
   1  12 -21    1.12    0.40
   1  12 -21    0.78    0.40
   0 -12 -21    3.87    0.52
   0 -12  21    4.06    0.52
   0  12 -21    3.53    0.47
  -1 -12 -21    0.41    0.28
   1 -12  21    0.19    0.30
   2 -12  21   -0.32    0.39
   2 -12  21    0.02    0.32
  -2 -12 -21    0.20    0.33
  -3 -12 -21    3.21    0.49
   3 -12  21    3.60    0.60
   3 -12  21    2.45    0.51
   3  12  21    2.49    0.43
   4 -12  21    0.33    0.39
  -4 -12 -21    1.25    0.54
   4 -12  21    0.17    0.53
   4  12  21   -0.15    0.34
   5 -12  21    3.29    0.73
  -5 -12 -21    4.72    0.71
   5  12  21    3.88    0.57
   5 -13 -21    0.38    0.75
   5 -13 -21    1.49    0.39
  -5 -13  21    0.94    0.39
   5  13 -21    0.35    0.64
   5  13 -21    0.58    0.65
   4 -13 -21    0.90    0.35
   4 -13 -21    1.16    0.67
  -4 -13  21    1.21    0.40
   4  13 -21    1.10    0.62
   4  13 -21    1.66    0.61
   3 -13 -21   -0.49    0.58
   3 -13 -21   -0.09    0.32
  -3 -13  21    0.31    0.32
   3  13 -21    0.00    0.51
   3  13 -21    0.33    0.54
  -2 -13  21    4.02    0.51
   2 -13 -21    3.49    0.54
   2 -13 -21    3.86    0.67
   2  13 -21    4.10    0.61
   2  13 -21    3.74    0.62
   1 -13 -21   -0.37    0.28
  -1 -13  21   -0.05    0.29
   1  13 -21    0.50    0.42
   1  13 -21    0.14    0.42
   0 -13 -21    3.28    0.46
   0 -13  21    2.84    0.48
   1 -13  21    0.10    0.33
  -1 -13 -21    0.80    0.36
   2 -13  21    3.28    0.55
  -2 -13 -21    2.13    0.50
   3 -13  21    1.09    0.53
   3 -13  21    2.54    0.47
  -3 -13 -21    2.70    0.52
   4 -13  21    2.54    0.66
   4 -13  21    3.47    0.55
  -4 -13 -21    3.48    0.63
   4  13  21    2.33    0.48
   4 -14 -21    1.57    0.73
   4 -14 -21    0.68    0.36
  -4 -14  21    0.75    0.40
   4  14 -21    0.55    0.69
   4  14 -21   -0.44    0.67
   3 -14 -21    0.88    0.36
   3 -14 -21    0.17    0.66
  -3 -14  21    0.55    0.37
   3  14 -21   -0.01    0.58
   3  14 -21    1.28    0.64
   2 -14 -21    1.59    0.39
  -2 -14  21    1.67    0.39
   2  14 -21    2.38    0.58
   2  14 -21    2.19    0.60
   1 -14 -21    0.37    0.33
  -1 -14  21    0.54    0.34
   1  14 -21    0.57    0.48
   1  14 -21    0.73    0.48
   0 -14  21    0.22    0.34
   0 -14 -21    0.73    0.37
  -1 -14 -21    5.68    0.63
   1 -14  21    4.12    0.58
   2 -14  21   -0.28    0.39
  -2 -14 -21   -0.69    0.41
   3 -14  21    7.81    1.23
   3 -14  21    9.91    0.90
  -3 -14 -21    9.57    0.95
  -3 -15  21    7.49    0.70
   3 -15 -21    6.16    0.72
   3  15 -21    7.24    0.89
  -2 -15  21   -0.10    0.35
   2 -15 -21   -0.01    0.38
   2  15 -21   -0.35    0.58
   2  15 -21    0.90    0.64
  -1 -15  21    0.04    0.34
   1 -15 -21   -0.45    0.35
   0 -15  21    7.06    0.67
   0 -15 -21    6.21    0.71
  -1 -15 -21   -0.30    0.41
   1 -15  21   -0.52    0.38
   2 -15  21    0.38    0.43
  -2 -15 -21    0.60    0.51
   8   0 -22    0.70    0.39
   7   0 -22    0.27    0.34
   6   0 -22    1.22    0.30
   5   0 -22    0.21    0.24
   4   0 -22    0.60    0.24
   3   0 -22    1.49    0.25
   2   0 -22   11.64    0.69
  -2   0  22   10.56    0.71
  -1   0  22    0.83    0.20
  -1   0  22    0.84    0.27
   1   0 -22    0.53    0.19
   0   0  22   32.89    1.64
   0   0  22   32.52    1.60
   0   0 -22   31.94    1.59
   1   0  22   -0.21    0.23
   1   0  22   -0.22    0.22
  -1   0 -22    0.36    0.21
   2   0  22    5.53    0.50
   2   0  22    5.56    0.50
  -2   0 -22    5.63    0.45
   3   0  22    0.83    0.25
  -3   0 -22    0.59    0.20
   3   0  22    0.52    0.26
   4   0  22    5.40    0.51
   4   0  22    6.29    0.57
   5   0  22   -0.31    0.26
   5   0  22   -0.02    0.27
   6   0  22    2.96    0.47
   7   0  22   -0.28    0.41
   8  -1 -22    0.68    0.39
   8   1 -22    0.00    0.38
   7  -1 -22    1.51    0.39
   7   1 -22    1.63    0.40
   6  -1 -22    0.25    0.29
   6   1 -22    0.40    0.29
   5  -1 -22    3.56    0.42
   5   1 -22    3.33    0.46
   4  -1 -22    3.98    0.41
   4   1 -22    3.29    0.41
   3  -1 -22   13.76    0.79
  -3  -1  22   13.06    0.82
   3   1 -22   13.66    0.80
   2  -1 -22   23.64    1.15
  -2  -1  22   20.84    1.17
  -2   1  22   20.56    1.18
   2   1 -22   22.47    1.16
   1  -1 -22   13.47    0.79
  -1  -1  22   14.36    0.77
  -1  -1  22   13.64    0.82
  -1   1  22   14.42    0.79
   1   1 -22   14.80    0.79
  -1   1  22   14.16    0.85
   0  -1 -22   -0.14    0.17
   0  -1  22    0.03    0.16
   0  -1  22    0.29    0.22
   0   1  22   -0.29    0.18
   0   1  22   -0.06    0.23
   0   1 -22   -0.16    0.18
   1  -1  22    1.64    0.27
  -1  -1 -22    2.24    0.32
   1  -1  22    2.05    0.31
   1   1  22    2.18    0.31
   1   1  22    1.40    0.26
  -1   1 -22    2.47    0.34
   2  -1  22    6.49    0.53
   2  -1  22    6.29    0.55
  -2  -1 -22    6.61    0.51
  -2   1 -22    6.64    0.46
   2   1  22    7.61    0.54
   2   1  22    5.97    0.50
   3  -1  22    0.70    0.27
   3  -1  22    0.97    0.26
  -3  -1 -22    0.46    0.22
   3   1  22    1.11    0.27
   3   1  22    0.58    0.24
  -3   1 -22    0.58    0.18
   4  -1  22    6.42    0.59
  -4  -1 -22    5.46    0.45
   4  -1  22    5.84    0.48
   4   1  22    6.44    0.50
   4   1  22    6.12    0.58
   5  -1  22    0.74    0.26
   5  -1  22    0.65    0.31
   5   1  22    0.57    0.28
   5   1  22    0.92    0.32
   6  -1  22    0.55    0.31
   6  -1  22    1.24    0.37
   6   1  22    0.58    0.33
   7  -1  22    0.44    0.43
   7   1  22    1.06    0.42
   8  -2 -22   -0.32    0.33
   8   2 -22   -0.46    0.39
   7  -2 -22    0.29    0.33
   7   2 -22    0.26    0.35
   6  -2 -22    4.37    0.50
   6   2 -22    5.16    0.56
   5  -2 -22    1.09    0.27
   5   2 -22    0.30    0.26
   4  -2 -22    1.18    0.27
   4   2 -22    1.13    0.27
   3  -2 -22    4.92    0.45
  -3  -2  22    5.32    0.49
   3   2 -22    5.35    0.46
   2  -2 -22   43.98    2.12
  -2  -2  22   43.65    2.16
   2   2 -22   42.84    2.13
  -1  -2  22   -0.01    0.22
  -1  -2  22    0.19    0.16
   1  -2 -22    0.06    0.19
   1   2 -22    0.26    0.19
  -1   2  22    0.22    0.21
  -1   2  22    0.32    0.26
   0  -2  22    7.21    0.49
   0  -2 -22    8.08    0.50
   0  -2  22    7.61    0.55
   0   2  22    7.38    0.56
   0   2 -22    8.12    0.51
   0   2  22    7.42    0.55
  -1  -2 -22    1.44    0.24
   1  -2  22    1.28    0.27
   1  -2  22    1.24    0.25
  -1   2 -22    1.43    0.23
   1   2  22    1.16    0.24
   1   2  22    1.15    0.25
   2  -2  22    9.80    0.61
   2  -2  22    9.33    0.65
  -2  -2 -22    9.04    0.60
  -2   2 -22    9.06    0.54
   2   2  22    8.98    0.62
   2   2  22    8.86    0.60
   3  -2  22    0.98    0.24
   3  -2  22    1.26    0.29
  -3  -2 -22    1.49    0.28
   3   2  22    0.77    0.26
   3   2  22    0.99    0.24
  -3   2 -22    1.37    0.19
  -4  -2 -22    1.67    0.29
   4  -2  22    2.30    0.34
   4  -2  22    1.93    0.35
   4   2  22    1.90    0.28
   4   2  22    2.85    0.46
   5  -2  22    1.24    0.27
   5  -2  22    0.81    0.34
   5   2  22    1.04    0.33
   6  -2  22    1.48    0.39
   6  -2  22    1.29    0.31
   6   2  22    1.27    0.37
   7  -2  22    0.89    0.44
   7  -2  22    1.22    0.39
   7   2  22    0.88    0.41
   8  -3 -22    1.24    0.40
   8   3 -22    0.96    0.48
   7  -3 -22    0.31    0.31
   7   3 -22   -0.01    0.37
   6  -3 -22    2.21    0.37
   6   3 -22    3.57    0.51
   5  -3 -22    0.47    0.25
   5   3 -22    0.87    0.27
   4  -3 -22    0.30    0.21
  -4  -3  22    0.62    0.26
   4   3 -22    0.71    0.26
  -3  -3  22    0.94    0.27
   3  -3 -22    0.84    0.23
   3   3 -22    1.11    0.26
  -2  -3  22    4.94    0.47
   2  -3 -22    4.28    0.40
   2   3 -22    4.73    0.43
   1  -3 -22    6.27    0.47
  -1  -3  22    6.17    0.43
  -1  -3  22    7.31    0.52
   1   3 -22    6.35    0.48
   0  -3  22    0.60    0.17
   0  -3  22    0.53    0.24
   0  -3 -22    0.49    0.19
   0   3 -22    0.57    0.22
   0   3  22    0.64    0.23
   0   3  22    0.39    0.24
   1  -3  22   13.91    0.82
   1  -3  22   14.34    0.82
  -1  -3 -22   14.42    0.79
  -1   3 -22   14.05    0.76
   1   3  22   13.51    0.79
   1   3  22   14.13    0.81
  -2  -3 -22    1.24    0.25
   2  -3  22    1.41    0.26
   2  -3  22    0.85    0.28
  -2   3 -22    1.13    0.19
   2   3  22    0.88    0.24
   2   3  22    1.01    0.22
   3  -3  22    0.23    0.25
  -3  -3 -22    0.23    0.22
   3  -3  22    0.16    0.21
   3   3  22    0.15    0.20
   3   3  22    0.17    0.24
   4  -3  22   -0.27    0.21
   4  -3  22    0.42    0.30
  -4  -3 -22   -0.15    0.25
   4   3  22    0.32    0.27
   5  -3  22   -0.02    0.24
   5  -3  22    0.07    0.32
   5   3  22    0.44    0.29
   6  -3  22    2.71    0.44
   6  -3  22    2.46    0.38
   6   3  22    2.51    0.45
   7  -3  22    0.05    0.36
   7  -3  22    0.61    0.46
   7   3  22    0.84    0.41
   8  -4 -22    2.13    0.47
   8   4 -22    3.10    0.56
   7  -4 -22   -0.28    0.31
   7   4 -22   -0.37    0.36
   6  -4 -22    0.18    0.30
   6   4 -22    0.61    0.34
   5  -4 -22    1.33    0.29
   5   4 -22    1.45    0.33
   4  -4 -22   -0.40    0.21
  -4  -4  22    0.17    0.24
   4   4 -22   -0.15    0.25
  -3  -4  22    6.26    0.53
   3  -4 -22    5.43    0.47
   3   4 -22    6.06    0.52
  -2  -4  22    1.21    0.25
   2  -4 -22    0.77    0.21
   2   4 -22    0.96    0.26
   1  -4 -22    1.30    0.23
  -1  -4  22    1.63    0.28
  -1  -4  22    1.76    0.26
   1   4 -22    2.29    0.34
   0  -4  22   22.28    1.17
   0  -4  22   22.73    1.12
   0  -4 -22   21.34    1.14
   0   4  22   21.65    1.17
   0   4 -22   21.98    1.14
   1  -4  22   22.23    1.12
  -1  -4 -22   20.74    1.10
   1  -4  22   21.72    1.12
   1   4  22   18.83    1.09
   1   4  22   21.28    1.13
  -1   4 -22   21.66    1.07
   2  -4  22    4.25    0.54
  -2  -4 -22    3.83    0.42
   2  -4  22    3.49    0.38
   2   4  22    3.90    0.44
  -2   4 -22    3.82    0.31
   2   4  22    3.47    0.36
   3  -4  22    0.22    0.26
  -3  -4 -22    0.44    0.23
   3  -4  22    0.23    0.22
   3   4  22    0.09    0.24
   3   4  22    0.25    0.20
   4  -4  22    0.81    0.24
   4  -4  22    0.62    0.29
  -4  -4 -22    0.84    0.28
   4   4  22    0.86    0.28
  -5  -4 -22    4.32    0.55
   5  -4  22    3.31    0.44
   5  -4  22    3.06    0.46
   5   4  22    3.71    0.53
   6  -4  22   -0.38    0.29
   6  -4  22    0.38    0.38
   6   4  22   -0.06    0.32
   7  -4  22    1.67    0.43
   7  -4  22    2.34    0.51
   7   4  22    1.80    0.48
   8  -5 -22    0.15    0.35
   8   5 -22   -0.42    0.47
   7  -5 -22    0.76    0.32
   7   5 -22   -0.15    0.38
   6  -5 -22    2.26    0.36
   6   5 -22    1.46    0.38
   5  -5 -22    2.30    0.33
   5   5 -22    3.51    0.47
  -4  -5  22    1.86    0.33
   4  -5 -22    2.60    0.38
   4   5 -22    1.69    0.33
   3  -5 -22    1.69    0.27
  -3  -5  22    1.11    0.28
   3   5 -22    1.67    0.30
   2  -5 -22    0.84    0.22
  -2  -5  22    1.13    0.26
   2   5 -22    1.36    0.25
   1  -5 -22    4.40    0.40
  -1  -5  22    4.70    0.42
  -1  -5  22    4.35    0.34
   1   5 -22    4.41    0.44
   0  -5  22   21.88    1.08
   0  -5 -22   21.26    1.11
   0  -5  22   21.74    1.13
   0   5 -22   21.32    1.11
   0   5  22   19.75    1.12
   1  -5  22    0.18    0.20
   1  -5  22    0.16    0.23
  -1  -5 -22    0.08    0.19
  -1   5 -22    0.26    0.18
   1   5  22   -0.24    0.20
  -2  -5 -22    2.07    0.30
   2  -5  22    1.93    0.29
   2  -5  22    1.76    0.35
   2   5  22    1.42    0.29
  -2   5 -22    1.88    0.25
   3  -5  22    3.35    0.52
   3  -5  22    4.24    0.43
  -3  -5 -22    3.60    0.46
   3   5  22    4.57    0.48
   4  -5  22    0.16    0.31
  -4  -5 -22    0.11    0.27
   4  -5  22    0.17    0.25
   4   5  22    0.11    0.25
   5  -5  22    5.64    0.69
   5  -5  22    5.16    0.50
  -5  -5 -22    4.51    0.61
   5   5  22    4.49    0.56
   6  -5  22    1.28    0.43
   6  -5  22    0.58    0.34
   6   5  22    0.96    0.37
   7  -5  22   -0.23    0.41
   7  -5  22    0.49    0.48
   7   5  22   -0.64    0.40
   7  -6 -22   -0.24    0.30
   7   6 -22    0.04    0.41
   6  -6 -22    1.21    0.32
   6   6 -22    1.77    0.44
   5  -6 -22    1.14    0.28
  -5  -6  22    0.73    0.31
   5   6 -22    0.46    0.33
   4  -6 -22    2.24    0.31
  -4  -6  22    2.48    0.40
   4   6 -22    2.32    0.36
   3  -6 -22    0.37    0.20
  -3  -6  22   -0.15    0.22
   3   6 -22    0.31    0.27
   2  -6 -22    0.61    0.23
  -2  -6  22    0.59    0.24
   2   6 -22    0.55    0.27
  -1  -6  22   11.47    0.73
  -1  -6  22   11.26    0.62
   1  -6 -22   11.47    0.68
   1   6 -22   11.85    0.72
   0  -6 -22    1.28    0.25
   0  -6  22    1.43    0.27
   0  -6  22    1.15    0.20
   0   6 -22    0.88    0.28
   0   6  22    0.80    0.24
   1  -6  22    1.32    0.26
   1  -6  22    1.05    0.24
  -1  -6 -22    1.17    0.24
   1   6  22    1.10    0.26
  -1   6 -22    1.88    0.28
   2  -6  22    1.24    0.34
   2  -6  22    1.99    0.30
  -2  -6 -22    1.50    0.30
   2   6  22    1.47    0.29
   3  -6  22    2.96    0.42
  -3  -6 -22    2.75    0.42
   3  -6  22    2.63    0.39
   3   6  22    1.79    0.33
   4  -6  22    0.02    0.25
  -4  -6 -22   -0.30    0.30
   4  -6  22    0.14    0.32
   4   6  22    0.38    0.26
  -5  -6 -22    2.49    0.43
   5  -6  22    3.09    0.48
   5  -6  22    2.63    0.48
   5   6  22    2.93    0.50
   6  -6  22   -0.23    0.43
   6  -6  22   -0.59    0.33
   6   6  22   -0.13    0.32
   7  -7 -22    0.21    0.34
   7   7 -22    0.40    0.47
   6  -7 -22    2.14    0.38
   6   7 -22    1.84    0.50
  -5  -7  22    0.84    0.33
   5  -7 -22    0.66    0.28
   5   7 -22    1.07    0.35
   4  -7 -22    0.67    0.26
  -4  -7  22    0.81    0.29
   4   7 -22    0.89    0.33
   3  -7 -22    0.37    0.22
  -3  -7  22    0.30    0.25
   3   7 -22    0.41    0.30
   2  -7 -22    0.10    0.21
  -2  -7  22    0.39    0.24
   2   7 -22    0.15    0.25
  -1  -7  22    0.89    0.27
   1  -7 -22    0.68    0.23
   1   7 -22    0.49    0.25
   0  -7  22   -0.07    0.17
   0  -7 -22    0.52    0.22
   0  -7  22   -0.11    0.21
   0   7 -22    0.30    0.27
  -1  -7 -22    1.89    0.28
   1  -7  22    1.82    0.29
   1  -7  22    1.77    0.28
  -1   7 -22    1.63    0.24
   1   7  22    1.41    0.30
   2  -7  22    0.98    0.27
  -2  -7 -22    0.39    0.26
   2  -7  22    0.54    0.32
   2   7  22    0.33    0.24
   3  -7  22    0.81    0.35
   3  -7  22    0.35    0.26
  -3  -7 -22    0.48    0.29
   3   7  22    0.44    0.26
  -4  -7 -22    2.89    0.43
   4  -7  22    2.34    0.44
   4  -7  22    2.79    0.39
   4   7  22    2.08    0.36
   5  -7  22    0.90    0.32
   5  -7  22    1.10    0.42
  -5  -7 -22    0.70    0.40
   5   7  22    0.38    0.31
  -6  -7 -22    1.41    0.46
   6  -7  22    1.00    0.40
   6  -7  22    0.46    0.48
   6   7  22    0.62    0.36
   7  -8 -22    0.57    0.35
   7   8 -22    1.15    0.49
   6  -8 -22    5.78    0.55
   6   8 -22    3.85    0.64
   6   8 -22    6.14    0.67
  -5  -8  22    1.47    0.34
   5  -8 -22    1.55    0.33
   5   8 -22    1.92    0.42
   5   8 -22    0.74    0.42
   4  -8 -22   -0.09    0.23
  -4  -8  22    0.24    0.28
   4   8 -22   -0.01    0.31
   3  -8 -22    2.59    0.38
  -3  -8  22    2.28    0.36
   3   8 -22    2.48    0.40
   2  -8 -22    2.31    0.35
  -2  -8  22    3.32    0.39
   2   8 -22    3.06    0.39
  -1  -8  22    3.09    0.39
   1  -8 -22    3.57    0.39
   1   8 -22    3.38    0.47
   0  -8  22   -0.15    0.17
   0  -8  22   -0.10    0.22
   0  -8 -22   -0.19    0.21
   0   8 -22    0.09    0.29
   1  -8  22    0.48    0.26
  -1  -8 -22    0.58    0.25
   1  -8  22    0.21    0.24
   1   8  22    0.25    0.24
  -1   8 -22    0.31    0.20
   2  -8  22    0.25    0.34
   2  -8  22    0.14    0.25
  -2  -8 -22    0.26    0.25
   2   8  22    0.33    0.26
   3  -8  22    1.71    0.32
  -3  -8 -22    1.48    0.36
   3  -8  22    1.34    0.38
   3   8  22    1.12    0.30
   4  -8  22    4.60    0.71
  -4  -8 -22    5.84    0.64
   4  -8  22    5.43    0.54
   4   8  22    4.51    0.55
  -5  -8 -22    1.51    0.49
   5  -8  22    2.07    0.39
   5  -8  22    0.70    0.47
   5   8  22    1.69    0.40
  -6  -8 -22    5.73    0.77
   6  -8  22    4.78    0.72
   6  -8  22    5.05    0.70
   6   8  22    6.24    0.71
   6  -9 -22    1.84    0.36
   6   9 -22    1.32    0.53
   6   9 -22    2.94    0.55
   5  -9 -22    1.27    0.35
  -5  -9  22    1.53    0.38
   5   9 -22    0.98    0.44
   5   9 -22    1.79    0.49
   4  -9 -22    0.09    0.27
  -4  -9  22    0.20    0.29
   4   9 -22   -0.04    0.39
   4   9 -22    0.26    0.39
  -3  -9  22    0.19    0.26
   3  -9 -22   -0.17    0.21
   3   9 -22    0.18    0.34
   3   9 -22   -0.18    0.34
  -2  -9  22    0.84    0.27
   2  -9 -22    0.70    0.25
   2   9 -22    0.73    0.33
  -1  -9  22    0.28    0.24
   1  -9 -22    0.31    0.22
   1   9 -22   -0.05    0.28
   0  -9  22    1.28    0.29
   0  -9 -22    1.45    0.27
   0   9 -22    0.89    0.31
   1  -9  22    3.56    0.43
  -1  -9 -22    2.94    0.44
   1  -9  22    3.67    0.47
   1   9  22    3.10    0.48
   2  -9  22    0.56    0.39
   2  -9  22    1.10    0.31
  -2  -9 -22    0.80    0.30
   2   9  22    0.27    0.27
   3  -9  22    1.40    0.35
  -3  -9 -22    1.70    0.38
   3  -9  22    0.97    0.40
   3   9  22    1.02    0.33
  -4  -9 -22    2.33    0.47
   4  -9  22    2.92    0.41
   4  -9  22    1.22    0.45
   4   9  22    2.26    0.40
   5  -9  22    0.63    0.50
   5  -9  22    1.42    0.39
  -5  -9 -22    1.07    0.48
   5   9  22    0.87    0.39
  -6 -10  22    6.44    0.71
   6 -10 -22    7.13    0.68
   6  10 -22    8.25    1.02
   6  10 -22    7.59    0.98
   5 -10 -22   -0.15    0.29
  -5 -10  22   -0.12    0.32
   5  10 -22   -0.37    0.48
   5  10 -22   -0.29    0.49
  -4 -10  22    0.58    0.32
   4 -10 -22    0.62    0.30
   4  10 -22    0.42    0.44
   4  10 -22    0.94    0.44
   3 -10 -22    3.34    0.47
  -3 -10  22    4.19    0.48
   3  10 -22    3.79    0.52
   3  10 -22    3.69    0.52
  -2 -10  22    0.96    0.30
   2 -10 -22    1.27    0.28
   2  10 -22    1.15    0.39
   2  10 -22    0.66    0.39
  -1 -10  22    0.27    0.26
   1 -10 -22   -0.31    0.23
   1  10 -22    0.08    0.31
   0 -10  22    2.99    0.44
   0 -10 -22    3.90    0.45
   0  10 -22    2.68    0.39
  -1 -10 -22    0.64    0.30
   1 -10  22    0.83    0.29
   1 -10  22    1.19    0.29
  -2 -10 -22    5.27    0.54
   2 -10  22    5.23    0.56
   2 -10  22    4.28    0.71
   2  10  22    4.57    0.58
   3 -10  22    0.41    0.32
  -3 -10 -22    0.61    0.37
   3 -10  22    0.62    0.40
   3  10  22    0.01    0.31
   4 -10  22    0.79    0.38
  -4 -10 -22    0.22    0.43
   4 -10  22   -0.28    0.47
   4  10  22    0.01    0.33
   5 -10  22    2.54    0.45
   5 -10  22    2.10    0.62
  -5 -10 -22    2.74    0.58
   5  10  22    1.63    0.45
  -6 -11  22    0.29    0.39
   6 -11 -22    0.84    0.37
   6  11 -22    0.42    0.56
   6  11 -22    0.60    0.62
   5 -11 -22    0.16    0.31
  -5 -11  22    0.96    0.39
   5  11 -22    1.11    0.56
   5  11 -22    1.49    0.56
  -4 -11  22    0.13    0.32
   4 -11 -22    0.00    0.29
   4  11 -22   -0.36    0.47
   4  11 -22    0.73    0.49
   3 -11 -22    0.55    0.30
  -3 -11  22    1.03    0.32
   3  11 -22    0.86    0.45
   3  11 -22    0.32    0.44
   2 -11 -22    7.45    0.59
  -2 -11  22    8.01    0.62
   2  11 -22    6.75    0.79
   2  11 -22    7.60    0.79
   1 -11 -22    1.06    0.29
  -1 -11  22    0.88    0.30
   1  11 -22    0.95    0.38
   0 -11 -22    4.34    0.47
   0 -11  22    4.08    0.50
   0  11 -22    4.30    0.57
   1 -11  22    2.37    0.39
  -1 -11 -22    2.51    0.39
   2 -11  22   -0.53    0.37
   2 -11  22    0.04    0.31
  -2 -11 -22   -0.23    0.32
   2  11  22   -0.24    0.27
   3 -11  22   -0.28    0.35
   3 -11  22    0.51    0.43
  -3 -11 -22    0.68    0.41
   3  11  22    0.30    0.35
   4 -11  22    2.87    0.46
   4 -11  22    1.48    0.56
  -4 -11 -22    2.61    0.55
   4  11  22    1.62    0.43
   5 -11  22    0.01    0.59
   5 -11  22    0.23    0.43
  -5 -11 -22    0.36    0.59
   5  11  22   -0.40    0.39
   5 -12 -22    7.26    1.01
  -5 -12  22    6.71    0.73
   5 -12 -22    6.30    0.69
   5  12 -22    9.68    1.05
   5  12 -22    7.10    1.08
   4 -12 -22    1.53    0.39
  -4 -12  22    0.73    0.35
   4  12 -22    1.09    0.55
   4  12 -22    1.05    0.55
   3 -12 -22    0.88    0.34
  -3 -12  22    1.28    0.35
   3  12 -22    1.56    0.50
   3  12 -22    1.01    0.49
  -2 -12  22    0.21    0.30
   2 -12 -22    0.52    0.31
   2  12 -22    0.16    0.45
   2  12 -22    0.78    0.44
  -1 -12  22    0.25    0.28
   1 -12 -22    0.05    0.30
   1  12 -22   -0.46    0.39
   1  12 -22   -0.21    0.40
   0 -12  22    2.63    0.40
   0 -12 -22    1.93    0.40
   1 -12  22   -0.08    0.31
  -1 -12 -22   -0.23    0.33
   2 -12  22    0.74    0.37
  -2 -12 -22    0.42    0.38
   3 -12  22    3.33    0.50
   3 -12  22    1.21    0.52
  -3 -12 -22    2.02    0.51
   3  12  22    2.53    0.44
  -4 -12 -22    7.21    0.96
   4 -12  22    8.71    0.75
   4 -12  22    7.18    1.08
   4  12  22    5.71    0.76
  -4 -13  22    0.76    0.39
   4 -13 -22    0.76    0.70
   4 -13 -22    1.18    0.37
   4  13 -22    1.09    0.68
   4  13 -22    0.95    0.64
   3 -13 -22    8.16    0.72
  -3 -13  22    8.62    0.69
   3 -13 -22    6.12    0.85
   3  13 -22    8.12    1.00
   3  13 -22    6.91    1.00
  -2 -13  22    0.99    0.35
   2 -13 -22   -0.07    0.33
   2  13 -22   -0.31    0.47
   2  13 -22    0.87    0.50
   1 -13 -22   -0.10    0.31
  -1 -13  22   -0.15    0.30
   1  13 -22   -0.55    0.41
   1  13 -22    0.05    0.41
   0 -13  22    2.33    0.42
   0 -13 -22    2.28    0.44
   1 -13  22    0.22    0.35
  -1 -13 -22    0.42    0.37
   2 -13  22    0.68    0.39
  -2 -13 -22    0.16    0.43
   3 -13  22    0.82    0.45
  -3 -13 -22    1.63    0.52
   3 -13  22    0.30    0.51
   3  13  22    0.35    0.38
   3 -14 -22    5.23    0.66
  -3 -14  22    7.42    0.66
   3  14 -22    4.82    0.80
   3  14 -22    5.86    0.78
   2 -14 -22    0.64    0.36
  -2 -14  22    0.48    0.34
   2  14 -22    0.57    0.54
   2  14 -22    0.68    0.56
   1 -14 -22    1.33    0.39
  -1 -14  22    0.64    0.36
   0 -14 -22    0.81    0.40
   0 -14  22    0.63    0.36
  -1 -14 -22    0.20    0.40
   1 -14  22    0.55    0.37
  -2 -14 -22    0.25    0.46
   2 -14  22    0.22    0.45
   2 -15 -22    0.35    0.42
  -2 -15  22   -0.07    0.41
   2  15 -22   -0.25    0.62
   2  15 -22    0.14    0.59
  -1 -15  22    0.15    0.40
   1 -15 -22    0.49    0.42
   0 -15 -22    2.29    0.49
   0 -15  22    1.66    0.46
  -1 -15 -22   -0.23    0.46
   1 -15  22   -0.06    0.43
   8   0 -23   -0.10    0.40
   7   0 -23    5.67    0.65
   6   0 -23   -0.01    0.30
   5   0 -23    0.74    0.28
   4   0 -23    0.11    0.23
   3   0 -23    3.00    0.36
   2   0 -23    0.01    0.19
  -2   0  23    0.14    0.23
  -1   0  23   22.99    1.19
   1   0 -23   23.14    1.20
  -1   0  23   23.86    1.25
   0   0 -23    0.36    0.19
   0   0  23    0.19    0.23
   0   0  23    0.50    0.21
  -1   0 -23    0.61    0.22
   1   0  23    0.69    0.22
   1   0  23    0.78    0.27
   2   0  23    0.07    0.21
  -2   0 -23    0.22    0.22
   2   0  23    0.12    0.26
   3   0  23   36.66    1.81
   3   0  23   38.11    1.89
  -3   0 -23   35.09    1.77
   4   0  23    0.77    0.27
   4   0  23    0.20    0.25
   5   0  23    0.05    0.30
   5   0  23    0.03    0.26
   6   0  23    0.47    0.35
   7   0  23   -0.14    0.44
   8  -1 -23    0.63    0.40
   8   1 -23    0.45    0.45
   7  -1 -23    1.56    0.39
   7   1 -23    1.43    0.40
   6  -1 -23    7.69    0.63
   6   1 -23    7.34    0.68
   5  -1 -23    0.27    0.26
   5   1 -23    0.33    0.26
   4  -1 -23    7.73    0.56
   4   1 -23    7.25    0.59
  -3  -1  23    0.25    0.24
   3  -1 -23    0.06    0.21
   3   1 -23    0.55    0.23
   2  -1 -23    6.09    0.45
  -2  -1  23    5.71    0.52
   2   1 -23    5.98    0.47
  -1  -1  23    2.60    0.38
   1  -1 -23    2.50    0.34
  -1  -1  23    2.81    0.34
  -1   1  23    3.06    0.41
   1   1 -23    3.36    0.35
  -1   1  23    3.53    0.40
   0  -1  23    1.22    0.23
   0  -1 -23    1.42    0.24
   0  -1  23    1.30    0.29
   0   1  23    1.22    0.25
   0   1 -23    1.64    0.25
   0   1  23    1.11    0.29
   1  -1  23    0.15    0.23
   1  -1  23    0.24    0.24
  -1  -1 -23    0.78    0.22
  -1   1 -23    0.73    0.23
   1   1  23    0.52    0.21
   1   1  23    0.45    0.27
  -2  -1 -23    1.36    0.26
   2  -1  23    1.68    0.28
   2  -1  23    1.46    0.28
   2   1  23    1.43    0.27
  -2   1 -23    1.91    0.26
   2   1  23    1.52    0.31
   3  -1  23    4.30    0.44
  -3  -1 -23    4.14    0.43
   3  -1  23    4.16    0.50
  -3   1 -23    4.28    0.37
   3   1  23    4.59    0.50
   3   1  23    3.84    0.46
   4  -1  23    0.56    0.28
   4  -1  23    0.81    0.24
   4   1  23    0.98    0.31
   4   1  23    0.72    0.30
   5  -1  23    0.61    0.26
   5  -1  23    0.28    0.33
   5   1  23    0.64    0.34
   6  -1  23    1.01    0.33
   6  -1  23    0.54    0.39
   6   1  23    1.67    0.39
   7  -1  23    0.11    0.46
   7   1  23   -0.37    0.42
   8  -2 -23   -0.80    0.37
   8   2 -23   -0.07    0.44
   7  -2 -23    0.35    0.34
   7   2 -23    1.09    0.39
   6  -2 -23    1.95    0.36
   6   2 -23    1.69    0.39
   5  -2 -23    2.98    0.45
   5   2 -23    2.08    0.35
   4  -2 -23    4.31    0.45
   4   2 -23    3.53    0.45
   3  -2 -23    0.46    0.22
  -3  -2  23    0.44    0.25
   3   2 -23    0.79    0.25
  -2  -2  23    6.66    0.54
   2  -2 -23    6.78    0.49
   2   2 -23    6.90    0.52
  -1  -2  23   10.67    0.69
   1  -2 -23   10.43    0.63
  -1  -2  23   10.22    0.61
  -1   2  23    9.76    0.68
   1   2 -23   11.14    0.65
  -1   2  23    9.82    0.67
   0  -2 -23    0.37    0.20
   0  -2  23    0.14    0.23
   0  -2  23    0.20    0.17
   0   2  23    0.63    0.27
   0   2  23    0.20    0.21
   0   2 -23    0.17    0.20
   1  -2  23   15.70    0.91
  -1  -2 -23   16.35    0.87
   1  -2  23   16.67    0.91
   1   2  23   16.00    0.90
  -1   2 -23   15.71    0.87
   1   2  23   15.37    0.91
  -2  -2 -23    0.48    0.22
   2  -2  23    0.27    0.24
   2  -2  23    0.43    0.25
  -2   2 -23    0.29    0.19
   2   2  23    0.50    0.25
   2   2  23    0.18    0.21
   3  -2  23   13.30    0.84
  -3  -2 -23   12.28    0.76
   3  -2  23   12.92    0.76
   3   2  23   13.50    0.76
   3   2  23   12.47    0.82
   4  -2  23    2.20    0.35
  -4  -2 -23    1.63    0.32
   4  -2  23    1.96    0.33
   4   2  23    2.37    0.38
   4   2  23    1.15    0.32
   5  -2  23    7.82    0.74
   5  -2  23    7.67    0.56
   5   2  23    7.33    0.68
   6  -2  23    0.66    0.39
   6  -2  23    0.35    0.30
   6   2  23    0.31    0.37
   7  -2  23    1.14    0.50
   7   2  23    1.81    0.50
   7  -3 -23    0.79    0.36
   7   3 -23    1.12    0.39
   6  -3 -23    0.43    0.31
   6   3 -23    1.24    0.37
   5  -3 -23    5.01    0.50
   5   3 -23    5.72    0.57
   4  -3 -23    0.27    0.22
  -4  -3  23    0.30    0.27
   4   3 -23    0.13    0.26
  -3  -3  23   -0.21    0.23
   3  -3 -23    0.11    0.21
   3   3 -23    0.14    0.24
   2  -3 -23    1.16    0.25
  -2  -3  23    1.37    0.29
   2   3 -23    1.07    0.26
   1  -3 -23    4.10    0.38
  -1  -3  23    4.57    0.46
  -1  -3  23    4.05    0.36
   1   3 -23    4.99    0.43
   0  -3  23    1.36    0.21
   0  -3 -23    1.35    0.24
   0  -3  23    1.41    0.28
   0   3  23    1.06    0.25
   0   3 -23    1.82    0.26
   0   3  23    1.55    0.31
  -1  -3 -23    7.37    0.50
   1  -3  23    7.52    0.55
   1  -3  23    6.48    0.52
  -1   3 -23    7.21    0.49
   1   3  23    6.72    0.53
   1   3  23    6.93    0.52
   2  -3  23    3.98    0.48
   2  -3  23    4.12    0.41
  -2  -3 -23    3.51    0.41
   2   3  23    3.01    0.39
   2   3  23    3.12    0.40
  -2   3 -23    3.07    0.33
   3  -3  23    0.96    0.26
  -3  -3 -23    1.28    0.26
   3  -3  23    0.86    0.30
   3   3  23    1.12    0.26
   3   3  23    1.22    0.25
   4  -3  23   -0.09    0.22
   4  -3  23   -0.23    0.28
  -4  -3 -23   -0.04    0.28
   4   3  23    0.42    0.26
   5  -3  23    0.14    0.24
   5  -3  23    0.07    0.33
   5   3  23    0.26    0.29
   6  -3  23   -0.43    0.39
   6  -3  23   -0.18    0.32
   6   3  23   -0.51    0.33
   7  -4 -23    0.27    0.33
   7   4 -23    0.04    0.40
   6  -4 -23    0.57    0.33
   6   4 -23    1.03    0.36
   5  -4 -23    4.27    0.46
   5   4 -23    4.99    0.55
  -4  -4  23    5.01    0.52
   4  -4 -23    4.37    0.46
   4   4 -23    4.88    0.52
   3  -4 -23    0.44    0.23
  -3  -4  23    0.80    0.25
   3   4 -23    0.66    0.26
   2  -4 -23    1.63    0.26
  -2  -4  23    1.89    0.31
   2   4 -23    1.59    0.28
  -1  -4  23    0.28    0.22
  -1  -4  23   -0.02    0.16
   1  -4 -23    0.36    0.20
   1   4 -23    0.18    0.22
   0  -4 -23    0.75    0.22
   0  -4  23    1.03    0.27
   0  -4  23    0.83    0.20
   0   4 -23    1.02    0.23
   0   4  23    0.57    0.23
   1  -4  23    1.40    0.27
  -1  -4 -23    1.85    0.27
   1  -4  23    1.78    0.29
   1   4  23    1.22    0.27
  -1   4 -23    1.89    0.26
   1   4  23    1.60    0.27
  -2  -4 -23    1.11    0.26
   2  -4  23    0.80    0.25
   2  -4  23    0.48    0.27
   2   4  23    0.47    0.24
   2   4  23    1.17    0.24
  -2   4 -23    0.67    0.18
  -3  -4 -23    1.05    0.29
   3  -4  23    1.37    0.27
   3  -4  23    0.84    0.31
   3   4  23    1.01    0.27
   4  -4  23   -0.22    0.24
   4  -4  23    0.21    0.31
  -4  -4 -23   -0.05    0.29
   4   4  23   -0.17    0.26
   5  -4  23    2.63    0.47
   5  -4  23    3.55    0.48
   5   4  23    2.36    0.39
   6  -4  23    0.01    0.41
   6  -4  23    0.68    0.34
   6   4  23    0.73    0.37
   7  -5 -23    2.62    0.41
   7   5 -23    2.55    0.51
   6  -5 -23    1.84    0.38
   6   5 -23    1.36    0.42
   5  -5 -23   14.56    0.90
   5   5 -23   15.14    0.97
   4  -5 -23   -0.09    0.24
  -4  -5  23    0.44    0.26
   4   5 -23    0.79    0.29
  -3  -5  23    0.66    0.26
   3  -5 -23    0.38    0.21
   3   5 -23    0.39    0.27
   2  -5 -23    0.24    0.21
  -2  -5  23    0.45    0.25
   2   5 -23    1.07    0.28
   1  -5 -23    8.16    0.56
  -1  -5  23    8.39    0.58
  -1  -5  23    7.50    0.49
   1   5 -23    8.66    0.58
   0  -5 -23    0.61    0.21
   0  -5  23    0.77    0.24
   0  -5  23    0.42    0.19
   0   5  23    0.42    0.22
   0   5 -23    0.48    0.23
   1  -5  23    1.71    0.30
  -1  -5 -23    1.89    0.28
   1  -5  23    2.27    0.39
   1   5  23    1.36    0.28
  -1   5 -23    1.70    0.24
   2  -5  23    0.17    0.28
   2  -5  23   -0.12    0.25
  -2  -5 -23    0.18    0.25
   2   5  23    0.30    0.24
   3  -5  23   -0.18    0.23
  -3  -5 -23   -0.30    0.27
   3  -5  23    0.03    0.29
   3   5  23    0.06    0.24
   4  -5  23    0.54    0.33
   4  -5  23   -0.12    0.25
  -4  -5 -23    0.09    0.32
   4   5  23   -0.05    0.25
   5  -5  23    1.88    0.34
  -5  -5 -23    2.24    0.40
   5  -5  23    1.32    0.45
   5   5  23    1.41    0.37
   6  -5  23    0.43    0.44
   6  -5  23   -0.62    0.33
   6   5  23    0.21    0.36
   7  -6 -23    0.15    0.33
   7   6 -23   -0.13    0.45
   6  -6 -23    1.12    0.32
   6   6 -23    0.38    0.41
  -5  -6  23    4.56    0.53
   5  -6 -23    4.55    0.52
   5   6 -23    5.40    0.60
   4  -6 -23   -0.22    0.23
  -4  -6  23    0.00    0.28
   4   6 -23    0.28    0.29
   3  -6 -23    1.61    0.28
  -3  -6  23    2.17    0.35
   3   6 -23    1.80    0.34
   2  -6 -23    0.41    0.23
  -2  -6  23    0.58    0.26
   2   6 -23    0.54    0.28
  -1  -6  23    0.60    0.25
   1  -6 -23    0.48    0.22
  -1  -6  23    0.57    0.18
   1   6 -23    1.29    0.29
   0  -6  23   -0.07    0.17
   0  -6  23    0.30    0.23
   0   6 -23    0.16    0.25
   0   6  23    0.05    0.22
   1  -6  23    3.38    0.44
   1  -6  23    3.10    0.43
  -1  -6 -23    2.67    0.39
   1   6  23    3.02    0.43
  -1   6 -23    2.80    0.34
   2  -6  23    2.00    0.36
  -2  -6 -23    2.44    0.34
   2  -6  23    1.80    0.31
   2   6  23    1.58    0.31
   3  -6  23   10.24    0.70
  -3  -6 -23   10.65    0.72
   3  -6  23   10.10    0.80
   3   6  23   11.25    0.76
  -4  -6 -23   -0.37    0.32
   4  -6  23   -0.40    0.27
   4  -6  23   -0.13    0.36
   4   6  23    0.26    0.28
   5  -6  23    0.22    0.31
  -5  -6 -23   -0.38    0.39
   5  -6  23    0.27    0.40
   5   6  23   -0.05    0.31
   6  -6  23    0.62    0.38
   6  -6  23    0.80    0.46
   6   6  23    0.84    0.38
   7  -7 -23   -0.39    0.34
   7   7 -23    0.23    0.47
   6  -7 -23   -0.25    0.32
   6   7 -23   -0.31    0.43
   5  -7 -23    0.29    0.29
  -5  -7  23    0.02    0.29
   5   7 -23   -0.07    0.33
  -4  -7  23    0.07    0.27
   4  -7 -23    0.01    0.24
   4   7 -23   -0.15    0.30
   3  -7 -23    0.93    0.26
  -3  -7  23    1.40    0.32
   3   7 -23    0.96    0.33
   2  -7 -23    4.31    0.44
  -2  -7  23    5.07    0.50
   2   7 -23    4.62    0.55
   1  -7 -23    2.68    0.38
  -1  -7  23    2.68    0.39
   1   7 -23    2.38    0.35
   0  -7 -23    1.54    0.26
   0  -7  23    1.32    0.27
   0  -7  23    0.98    0.21
   0   7 -23    0.91    0.28
   1  -7  23    1.37    0.28
  -1  -7 -23    1.46    0.29
   1  -7  23    1.68    0.31
  -1   7 -23    1.45    0.23
   1   7  23    1.62    0.30
  -2  -7 -23    3.91    0.48
   2  -7  23    3.16    0.43
   2  -7  23    3.89    0.47
   2   7  23    2.97    0.46
   3  -7  23    0.43    0.29
  -3  -7 -23    0.94    0.33
   3  -7  23    0.10    0.33
   3   7  23    0.11    0.28
   4  -7  23    2.08    0.45
  -4  -7 -23    1.51    0.41
   4  -7  23    1.87    0.36
   4   7  23    1.55    0.35
  -5  -7 -23    2.53    0.51
   5  -7  23    2.47    0.55
   5  -7  23    3.07    0.42
   5   7  23    3.28    0.57
   6  -7  23   -0.13    0.49
   6  -7  23    1.33    0.39
   6   7  23    0.47    0.40
   6  -8 -23    0.38    0.31
   6   8 -23    0.44    0.45
  -5  -8  23    0.29    0.33
   5  -8 -23    0.32    0.31
   5   8 -23    0.14    0.38
   4  -8 -23    4.50    0.49
  -4  -8  23    4.94    0.56
   4   8 -23    4.19    0.62
   3  -8 -23    5.46    0.50
  -3  -8  23    6.73    0.59
   3   8 -23    5.55    0.64
  -2  -8  23    4.58    0.47
   2  -8 -23    4.39    0.43
   2   8 -23    5.09    0.56
  -1  -8  23    0.48    0.26
   1  -8 -23    0.42    0.23
   1   8 -23    0.41    0.28
   0  -8  23    1.15    0.30
   0  -8 -23    1.40    0.27
   0   8 -23    1.65    0.32
   1  -8  23    0.00    0.25
  -1  -8 -23    0.72    0.26
   1  -8  23    0.09    0.26
   1   8  23    0.12    0.25
   2  -8  23    6.12    0.66
   2  -8  23    6.74    0.56
  -2  -8 -23    5.88    0.59
   2   8  23    5.10    0.59
  -3  -8 -23    1.43    0.39
   3  -8  23    1.23    0.39
   3  -8  23    1.58    0.34
   3   8  23    1.60    0.35
   4  -8  23    0.32    0.42
  -4  -8 -23    0.34    0.40
   4  -8  23   -0.02    0.30
   4   8  23    0.03    0.31
  -5  -8 -23    3.97    0.59
   5  -8  23    4.58    0.61
   5  -8  23    3.35    0.58
   5   8  23    4.31    0.60
   6  -9 -23    0.27    0.31
   6   9 -23   -0.04    0.50
   6   9 -23   -0.15    0.50
   5  -9 -23    1.84    0.37
  -5  -9  23    2.61    0.45
   5   9 -23    2.07    0.53
   5   9 -23    1.40    0.53
   4  -9 -23    5.14    0.55
  -4  -9  23    5.66    0.59
   4   9 -23    4.75    0.69
  -3  -9  23    1.21    0.33
   3  -9 -23    0.93    0.27
   3   9 -23    1.10    0.39
  -2  -9  23   -0.16    0.26
   2  -9 -23    0.35    0.24
   2   9 -23   -0.41    0.32
  -1  -9  23    2.25    0.36
   1  -9 -23    1.69    0.30
   1   9 -23    2.21    0.38
   0  -9  23    0.45    0.29
   0   9 -23    0.67    0.30
   1  -9  23    1.10    0.28
  -1  -9 -23    1.39    0.30
   1  -9  23    0.32    0.29
   1   9  23    0.72    0.30
   2  -9  23    2.98    0.42
   2  -9  23    2.64    0.46
  -2  -9 -23    3.36    0.51
   2   9  23    2.87    0.41
  -3  -9 -23    0.55    0.36
   3  -9  23    0.00    0.32
   3  -9  23   -0.32    0.37
   3   9  23   -0.22    0.29
   4  -9  23    0.95    0.35
  -4  -9 -23    1.56    0.46
   4  -9  23    0.37    0.45
   4   9  23    0.29    0.35
   5  -9  23    0.68    0.39
  -5  -9 -23    0.47    0.53
   5  -9  23   -0.07    0.52
   5   9  23   -0.14    0.37
   6 -10 -23    0.20    0.36
   6  10 -23    0.31    0.54
   6  10 -23   -0.30    0.58
  -5 -10  23    1.29    0.40
   5 -10 -23    1.99    0.38
   5  10 -23    2.54    0.60
   5  10 -23    1.94    0.57
  -4 -10  23    5.03    0.62
   4 -10 -23    5.04    0.54
   4  10 -23    4.32    0.63
   4  10 -23    5.35    0.66
   3 -10 -23    1.03    0.31
  -3 -10  23    1.01    0.34
   3  10 -23    0.79    0.43
   2 -10 -23    0.37    0.26
  -2 -10  23    0.35    0.29
   2  10 -23   -0.47    0.35
  -1 -10  23   -0.32    0.28
   1 -10 -23   -0.13    0.24
   1  10 -23    0.31    0.33
   0 -10  23    5.97    0.55
   0 -10 -23    5.01    0.50
   0  10 -23    5.71    0.58
   1 -10  23    0.12    0.30
  -1 -10 -23    0.05    0.29
   2 -10  23    5.53    0.75
   2 -10  23    6.80    0.58
  -2 -10 -23    6.17    0.65
   2  10  23    6.01    0.63
   3 -10  23   -0.43    0.33
   3 -10  23   -0.11    0.41
  -3 -10 -23    0.05    0.38
   3  10  23   -0.37    0.30
   4 -10  23    0.93    0.38
   4 -10  23    0.26    0.48
  -4 -10 -23    0.55    0.45
   4  10  23    0.03    0.36
  -5 -10 -23   11.82    1.05
   5 -10  23   12.96    0.91
   5 -10  23    8.66    1.14
   5  10  23    9.88    0.92
   5 -11 -23    1.00    0.36
  -5 -11  23    1.07    0.42
   5  11 -23    0.89    0.61
   5  11 -23    1.45    0.61
  -4 -11  23    2.02    0.43
   4 -11 -23    1.22    0.36
   4  11 -23    2.58    0.58
   4  11 -23    2.08    0.56
   3 -11 -23   -0.05    0.31
  -3 -11  23    0.46    0.32
   3  11 -23    0.03    0.44
   3  11 -23   -1.07    0.42
   2 -11 -23    1.22    0.33
  -2 -11  23    0.85    0.33
   2  11 -23    1.47    0.42
  -1 -11  23    1.73    0.35
   1 -11 -23    1.11    0.33
   1  11 -23    1.23    0.39
   0 -11  23    8.17    0.66
   0 -11 -23    8.43    0.66
  -1 -11 -23    0.42    0.32
   1 -11  23   -0.38    0.29
   2 -11  23   -0.08    0.32
   2 -11  23    0.83    0.44
  -2 -11 -23   -0.10    0.34
   2  11  23   -0.19    0.29
   3 -11  23   -0.60    0.46
   3 -11  23   -0.27    0.34
  -3 -11 -23    0.05    0.44
   3  11  23   -0.15    0.33
   4 -11  23    1.63    0.40
  -4 -11 -23    0.78    0.57
   4 -11  23    0.78    0.54
   4  11  23    0.64    0.42
   4 -12 -23    7.63    0.71
  -4 -12  23    8.55    0.78
   4  12 -23    9.84    1.07
   4  12 -23    9.84    1.13
   3 -12 -23    0.59    0.33
  -3 -12  23    0.49    0.35
   3  12 -23    1.02    0.54
   3  12 -23   -0.35    0.53
  -2 -12  23    0.47    0.34
   2 -12 -23    0.72    0.32
   2  12 -23    0.37    0.48
   2  12 -23    0.09    0.47
   1 -12 -23    0.76    0.32
  -1 -12  23    0.33    0.33
   1  12 -23    0.41    0.38
   0 -12 -23    1.39    0.37
   0 -12  23    1.85    0.39
  -1 -12 -23    6.20    0.72
   1 -12  23    7.63    0.70
   2 -12  23   -0.05    0.35
  -2 -12 -23   -0.24    0.39
  -3 -12 -23    6.13    0.70
   3 -12  23    4.49    0.62
   3 -12  23    3.20    0.59
   3  12  23    4.28    0.69
  -4 -13  23    4.86    0.67
   3 -13 -23    1.49    0.67
   3 -13 -23    1.17    0.39
   3  13 -23    2.77    0.61
   3  13 -23    1.06    0.59
   2 -13 -23   -0.33    0.31
  -2 -13  23    0.58    0.35
   2  13 -23   -0.64    0.50
   2  13 -23   -0.86    0.51
   1 -13 -23    3.40    0.47
  -1 -13  23    3.78    0.59
   0 -13  23    0.92    0.38
   0 -13 -23    0.93    0.37
  -1 -13 -23    0.49    0.40
   1 -13  23    0.91    0.37
  -2 -13 -23    0.64    0.45
   2 -13  23    0.24    0.41
   2 -14 -23    0.13    0.37
  -2 -14  23    0.06    0.39
   2  14 -23   -0.21    0.59
  -1 -14  23    0.38    0.37
   1 -14 -23    0.33    0.39
   0 -14  23    3.23    0.51
   0 -14 -23    2.41    0.49
  -1 -14 -23    2.85    0.53
   1 -14  23    3.05    0.52
   7   0 -24    0.00    0.34
   6   0 -24    0.45    0.34
   5   0 -24    0.19    0.26
   4   0 -24    0.22    0.24
   3   0 -24    3.87    0.41
  -2   0  24    0.62    0.26
   2   0 -24   -0.02    0.21
   1   0 -24    0.27    0.21
  -1   0  24    0.11    0.20
   0   0  24   12.65    0.77
   0   0  24   12.24    0.77
   0   0 -24   13.42    0.74
   1   0  24    0.14    0.20
   1   0  24   -0.12    0.23
  -1   0 -24    0.03    0.20
   2   0  24    9.17    0.63
  -2   0 -24    9.44    0.62
   2   0  24    8.83    0.64
   3   0  24    0.22    0.25
  -3   0 -24    0.34    0.24
   3   0  24    0.96    0.26
   4   0  24    2.51    0.39
   4   0  24    3.37    0.45
   5   0  24    0.34    0.30
   5   0  24    0.23    0.32
   6   0  24    5.14    0.69
   7  -1 -24    0.17    0.34
   7   1 -24    0.13    0.37
   6  -1 -24    0.27    0.32
   6   1 -24    0.41    0.33
   5  -1 -24    3.29    0.46
   5   1 -24    2.11    0.36
   4  -1 -24    0.63    0.26
   4   1 -24    0.76    0.26
   3  -1 -24   14.29    0.81
  -3  -1  24   13.09    0.83
   3   1 -24   12.76    0.81
  -2  -1  24    2.07    0.33
   2  -1 -24    2.11    0.29
   2   1 -24    1.80    0.29
   1  -1 -24    2.56    0.37
  -1  -1  24    2.70    0.40
  -1  -1  24    2.24    0.35
  -1   1  24    2.96    0.39
   1   1 -24    2.84    0.36
  -1   1  24    2.77    0.41
   0  -1 -24    0.60    0.21
   0  -1  24    0.33    0.21
   0  -1  24    0.40    0.24
   0   1 -24    0.69    0.22
   0   1  24    0.07    0.22
   0   1  24    0.29    0.24
  -1  -1 -24    2.47    0.36
   1  -1  24    2.13    0.37
   1  -1  24    2.25    0.36
   1   1  24    2.10    0.32
   1   1  24    1.79    0.28
  -1   1 -24    2.37    0.35
  -2  -1 -24    1.52    0.28
   2  -1  24    1.27    0.28
   2  -1  24    1.54    0.29
  -2   1 -24    1.32    0.25
   2   1  24    1.41    0.28
   2   1  24    1.12    0.30
  -3  -1 -24    0.33    0.26
   3  -1  24    0.30    0.26
   3  -1  24   -0.04    0.25
   3   1  24    0.51    0.28
   3   1  24    0.31    0.26
   4  -1  24    0.86    0.26
   4  -1  24    0.70    0.30
   4   1  24    0.68    0.31
   4   1  24    1.00    0.31
   5  -1  24    3.04    0.45
   5  -1  24    3.03    0.37
   5   1  24    3.44    0.59
   6  -1  24    0.26    0.40
   6   1  24    0.26    0.36
   7  -2 -24    2.86    0.47
   7   2 -24    2.43    0.45
   6  -2 -24    0.08    0.31
   6   2 -24    1.31    0.39
   5  -2 -24    0.47    0.26
   5   2 -24   -0.21    0.28
   4  -2 -24    1.16    0.27
   4   2 -24    1.39    0.28
   3  -2 -24    2.73    0.40
  -3  -2  24    2.95    0.42
   3   2 -24    2.53    0.35
  -2  -2  24    1.40    0.31
   2  -2 -24    1.07    0.26
   2   2 -24    1.41    0.26
  -1  -2  24    4.57    0.47
   1  -2 -24    4.32    0.40
  -1  -2  24    4.11    0.39
   1   2 -24    4.28    0.41
  -1   2  24    3.43    0.43
   0  -2 -24   -0.07    0.20
   0  -2  24   -0.26    0.22
   0  -2  24    0.23    0.20
   0   2  24    0.00    0.21
   0   2 -24    0.16    0.20
   0   2  24    0.18    0.24
   1  -2  24    5.20    0.48
   1  -2  24    4.71    0.49
  -1  -2 -24    5.61    0.45
  -1   2 -24    5.29    0.44
   1   2  24    4.13    0.48
   1   2  24    5.06    0.46
  -2  -2 -24    1.56    0.27
   2  -2  24    2.40    0.37
   2   2  24    1.59    0.28
  -2   2 -24    1.22    0.24
   2   2  24    0.87    0.30
   3  -2  24    0.74    0.25
   3  -2  24    0.97    0.28
  -3  -2 -24    0.71    0.26
   3   2  24    1.03    0.32
   3   2  24    0.56    0.25
   4  -2  24    7.83    0.68
   4  -2  24    6.75    0.55
   4   2  24    6.95    0.66
   5  -2  24    1.71    0.33
   5  -2  24    2.25    0.42
   5   2  24    1.87    0.37
   6  -2  24   -0.08    0.33
   6  -2  24   -0.11    0.40
   6   2  24    0.13    0.37
   7  -3 -24    7.57    0.70
   7   3 -24    8.27    0.79
   6  -3 -24    0.86    0.34
   6   3 -24    1.11    0.38
   5  -3 -24    6.41    0.55
   5   3 -24    5.04    0.61
   4  -3 -24    0.61    0.24
   4   3 -24    0.04    0.25
  -3  -3  24    2.14    0.35
   3  -3 -24    2.42    0.35
   3   3 -24    2.28    0.33
   2  -3 -24    0.97    0.23
  -2  -3  24    0.82    0.28
   2   3 -24    0.99    0.25
  -1  -3  24    0.27    0.19
   1  -3 -24    0.31    0.20
  -1  -3  24    0.10    0.24
   1   3 -24    0.55    0.24
   0  -3  24    1.92    0.33
   0  -3 -24    2.50    0.34
   0  -3  24    2.15    0.32
   0   3  24    2.50    0.36
   0   3  24    2.25    0.30
   0   3 -24    2.32    0.35
   1  -3  24    0.76    0.25
   1  -3  24    0.62    0.26
  -1  -3 -24    0.69    0.24
  -1   3 -24    0.80    0.26
   1   3  24    0.43    0.28
   1   3  24    0.51    0.23
   2  -3  24   20.21    1.09
  -2  -3 -24   19.89    1.07
   2  -3  24   20.88    1.13
   2   3  24   18.98    1.08
   2   3  24   20.00    1.12
  -2   3 -24   19.66    1.02
   3  -3  24    4.77    0.56
  -3  -3 -24    4.00    0.48
   3  -3  24    5.12    0.45
   3   3  24    4.81    0.45
   3   3  24    5.45    0.54
   4  -3  24    5.21    0.48
  -4  -3 -24    3.68    0.52
   4  -3  24    4.78    0.63
   4   3  24    5.06    0.55
   5  -3  24    0.10    0.28
   5  -3  24    0.59    0.37
   5   3  24    0.19    0.33
   6  -3  24    0.12    0.34
   6  -3  24    0.57    0.42
   6   3  24    0.67    0.37
   7  -4 -24    0.87    0.37
   7   4 -24    1.66    0.44
   6  -4 -24    0.17    0.30
   6   4 -24   -0.20    0.37
   5  -4 -24    1.99    0.35
   5   4 -24    2.02    0.39
   4  -4 -24   -0.05    0.24
  -4  -4  24    0.23    0.31
   4   4 -24    0.56    0.28
   3  -4 -24   -0.06    0.22
  -3  -4  24    0.56    0.28
   3   4 -24    0.13    0.28
  -2  -4  24    4.49    0.48
   2  -4 -24    4.24    0.41
   2   4 -24    4.30    0.48
   1  -4 -24    2.92    0.37
  -1  -4  24    3.59    0.44
  -1  -4  24    2.90    0.34
   1   4 -24    3.44    0.41
   0  -4  24    1.33    0.30
   0  -4 -24    1.45    0.26
   0  -4  24    1.05    0.22
   0   4  24    1.07    0.26
   0   4 -24    1.43    0.26
  -1  -4 -24    0.17    0.23
   1  -4  24   -0.06    0.25
   1  -4  24    0.20    0.25
   1   4  24   -0.10    0.23
  -1   4 -24    0.09    0.21
  -2  -4 -24    0.43    0.25
   2  -4  24    0.28    0.28
   2  -4  24    0.66    0.25
   2   4  24    0.83    0.24
   2   4  24    0.38    0.24
   3  -4  24    0.56    0.26
  -3  -4 -24    0.36    0.29
   3  -4  24    0.20    0.29
   3   4  24    0.52    0.27
   4  -4  24    1.03    0.38
  -4  -4 -24    0.89    0.33
   4  -4  24    1.28    0.29
   4   4  24    1.13    0.33
   5  -4  24    1.64    0.34
   5  -4  24    2.01    0.44
   5   4  24    1.77    0.38
   6  -4  24    0.10    0.36
   6  -4  24   -0.31    0.43
   6   4  24   -0.38    0.37
   7  -5 -24   -0.56    0.32
   7   5 -24   -0.19    0.42
   6  -5 -24   -0.22    0.29
   6   5 -24    1.20    0.42
   5  -5 -24    0.74    0.31
   5   5 -24    1.08    0.35
   4  -5 -24   -0.31    0.24
  -4  -5  24    0.20    0.28
   4   5 -24   -0.13    0.30
  -3  -5  24    0.57    0.29
   3  -5 -24    0.50    0.23
   3   5 -24    0.50    0.31
   2  -5 -24    0.41    0.23
  -2  -5  24    0.73    0.27
   2   5 -24    0.84    0.30
   1  -5 -24   -0.09    0.21
  -1  -5  24    0.24    0.25
  -1  -5  24   -0.06    0.17
   1   5 -24    0.47    0.25
   0  -5  24    0.43    0.19
   0  -5 -24    0.41    0.22
   0  -5  24    0.34    0.26
   0   5  24    0.40    0.24
   0   5 -24    0.43    0.24
   1  -5  24    3.38    0.43
  -1  -5 -24    4.09    0.44
   1  -5  24    3.91    0.47
   1   5  24    3.25    0.46
  -1   5 -24    4.22    0.40
   2  -5  24    3.35    0.53
  -2  -5 -24    3.71    0.48
   2  -5  24    4.29    0.45
   2   5  24    4.05    0.50
   3  -5  24    0.36    0.26
   3  -5  24   -0.27    0.31
  -3  -5 -24   -0.07    0.29
   3   5  24    0.28    0.26
   4  -5  24    0.30    0.35
   4  -5  24   -0.18    0.26
  -4  -5 -24   -0.46    0.33
   4   5  24    0.23    0.27
   5  -5  24    0.10    0.39
   5  -5  24   -0.11    0.30
   5   5  24   -0.24    0.31
   6  -5  24    0.56    0.36
   6  -5  24    0.04    0.43
   6   5  24    0.70    0.40
   7  -6 -24   -0.18    0.36
   7   6 -24    0.48    0.47
   6  -6 -24    0.10    0.33
   6   6 -24   -0.25    0.40
   5  -6 -24   -0.01    0.28
  -5  -6  24    0.47    0.32
   5   6 -24    0.15    0.33
   4  -6 -24   -0.24    0.23
  -4  -6  24    0.20    0.31
   4   6 -24    0.39    0.35
   3  -6 -24    0.91    0.25
  -3  -6  24    1.23    0.31
   3   6 -24    0.86    0.32
  -2  -6  24    0.14    0.26
   2  -6 -24   -0.31    0.20
   2   6 -24    0.07    0.28
  -1  -6  24    1.52    0.30
   1  -6 -24    0.76    0.24
   1   6 -24    1.64    0.30
   0  -6 -24    2.27    0.32
   0  -6  24    2.40    0.40
   0  -6  24    1.89    0.33
   0   6  24    2.11    0.32
   0   6 -24    2.58    0.38
  -1  -6 -24   -0.22    0.23
   1  -6  24    0.07    0.25
   1  -6  24    0.17    0.24
  -1   6 -24   -0.27    0.22
   1   6  24   -0.34    0.21
   2  -6  24    1.29    0.31
  -2  -6 -24    0.96    0.32
   2  -6  24    0.93    0.33
   2   6  24    1.06    0.29
  -3  -6 -24   -0.11    0.31
   3  -6  24    0.46    0.27
   3  -6  24    0.03    0.33
   3   6  24    0.21    0.27
   4  -6  24    0.30    0.30
  -4  -6 -24    1.09    0.38
   4  -6  24    0.40    0.39
   4   6  24    0.78    0.29
  -5  -6 -24    1.33    0.46
   5  -6  24    0.76    0.46
   5  -6  24    1.38    0.36
   5   6  24    1.72    0.39
   6  -7 -24    1.71    0.39
   6   7 -24    2.48    0.49
  -5  -7  24    2.41    0.43
   5  -7 -24    3.33    0.50
   5   7 -24    3.04    0.48
  -4  -7  24    0.44    0.31
   4  -7 -24    0.27    0.28
   4   7 -24    0.33    0.35
   3  -7 -24    2.95    0.40
  -3  -7  24    2.79    0.47
   3   7 -24    2.92    0.43
  -2  -7  24    0.95    0.32
   2  -7 -24    1.20    0.27
   2   7 -24    1.37    0.34
   1  -7 -24   -0.33    0.22
  -1  -7  24   -0.01    0.25
   1   7 -24    0.42    0.28
   0  -7 -24    1.32    0.28
   0  -7  24    0.93    0.22
   0  -7  24    1.46    0.32
   0   7 -24    1.33    0.29
  -1  -7 -24    0.15    0.24
   1  -7  24   -0.15    0.26
   1  -7  24   -0.11    0.27
   1   7  24   -0.27    0.24
   2  -7  24   -0.13    0.31
  -2  -7 -24    0.06    0.30
   2  -7  24    0.08    0.26
   2   7  24   -0.49    0.27
  -3  -7 -24    0.03    0.34
   3  -7  24   -0.26    0.27
   3  -7  24    0.25    0.36
   3   7  24   -0.42    0.27
  -4  -7 -24   -0.28    0.38
   4  -7  24    0.31    0.33
   4  -7  24    0.01    0.40
   4   7  24    0.46    0.33
   5  -7  24    3.88    0.58
  -5  -7 -24    3.79    0.58
   5  -7  24    3.88    0.58
   5   7  24    4.48    0.66
   6  -8 -24    1.17    0.37
   6   8 -24    0.74    0.50
  -5  -8  24    1.45    0.39
   5  -8 -24    0.82    0.31
   5   8 -24    0.54    0.45
  -4  -8  24    0.75    0.33
   4  -8 -24    0.69    0.30
   4   8 -24    0.63    0.38
   3  -8 -24    2.08    0.33
  -3  -8  24    2.73    0.41
   3   8 -24    2.46    0.42
   2  -8 -24    0.35    0.24
  -2  -8  24    0.40    0.28
   2   8 -24   -0.25    0.33
  -1  -8  24    0.95    0.28
   1  -8 -24    0.36    0.24
   1   8 -24    0.47    0.33
   0  -8  24    0.53    0.28
   0  -8 -24    0.16    0.24
   0   8 -24    0.14    0.29
  -1  -8 -24    2.37    0.35
   1  -8  24    1.48    0.32
   1  -8  24    2.09    0.36
   1   8  24    1.78    0.34
   2  -8  24    0.40    0.34
  -2  -8 -24    0.64    0.31
   2  -8  24    0.82    0.30
   2   8  24    0.80    0.32
   3  -8  24    2.07    0.43
  -3  -8 -24    2.16    0.43
   3  -8  24    1.78    0.37
   3   8  24    1.84    0.37
   4  -8  24    0.19    0.32
  -4  -8 -24    0.01    0.41
   4  -8  24   -0.03    0.43
   4   8  24    0.19    0.35
  -5  -8 -24   -0.50    0.49
   5  -8  24    0.67    0.50
   5  -8  24    0.52    0.39
   5   8  24    0.29    0.39
   5  -9 -24    9.56    0.74
  -5  -9  24    9.84    0.82
   5   9 -24   11.90    0.98
   4  -9 -24    7.03    0.64
  -4  -9  24    8.01    0.70
   4   9 -24    5.49    0.78
   3  -9 -24    0.04    0.27
  -3  -9  24    0.32    0.31
   3   9 -24   -0.05    0.38
  -2  -9  24    2.85    0.48
   2  -9 -24    2.84    0.36
   2   9 -24    2.45    0.44
  -1  -9  24    0.14    0.29
   1  -9 -24    0.49    0.26
   1   9 -24    0.30    0.33
   0  -9  24   -0.15    0.28
   0  -9 -24    0.08    0.26
   0   9 -24    0.25    0.32
  -1  -9 -24    0.12    0.30
   1  -9  24   -0.13    0.29
   2  -9  24    0.64    0.33
   2  -9  24    0.82    0.35
  -2  -9 -24    0.61    0.33
   2   9  24    0.94    0.33
  -3  -9 -24   -0.12    0.40
   3  -9  24   -0.30    0.32
   3  -9  24   -0.43    0.41
   3   9  24   -0.16    0.33
   4  -9  24    0.56    0.49
  -4  -9 -24   -0.01    0.47
   4  -9  24   -0.04    0.34
   4   9  24    0.01    0.33
   5 -10 -24   -0.18    0.35
  -5 -10  24    0.13    0.37
   5  10 -24   -0.47    0.51
  -4 -10  24    1.29    0.36
   4 -10 -24    0.96    0.32
   4  10 -24    1.36    0.49
  -3 -10  24    0.14    0.31
   3 -10 -24   -0.33    0.28
   3  10 -24   -0.28    0.40
  -2 -10  24    1.40    0.35
   2 -10 -24    1.39    0.34
   2  10 -24    1.43    0.40
  -1 -10  24    2.02    0.38
   1 -10 -24    1.61    0.33
   1  10 -24    1.84    0.42
   0 -10  24    1.33    0.34
   0 -10 -24    1.40    0.32
  -1 -10 -24   -0.21    0.29
   1 -10  24    0.46    0.32
   2 -10  24    0.30    0.33
  -2 -10 -24    0.18    0.34
   2 -10  24   -0.42    0.35
   2  10  24   -0.15    0.30
   3 -10  24    0.93    0.46
  -3 -10 -24    1.34    0.47
   3 -10  24    0.55    0.37
   3  10  24    0.59    0.35
   4 -10  24    6.02    0.99
   4 -10  24    9.18    0.77
  -4 -10 -24    9.02    0.93
   4  10  24    7.25    0.79
  -4 -11  24    4.31    0.58
   4 -11 -24    3.23    0.47
   4  11 -24    3.66    0.70
   4  11 -24    3.84    0.68
  -3 -11  24    0.37    0.36
   3 -11 -24    0.33    0.32
   3  11 -24    0.69    0.49
  -2 -11  24    0.32    0.37
   2 -11 -24    0.06    0.31
   2  11 -24    0.46    0.43
   1 -11 -24    1.77    0.37
  -1 -11  24    1.43    0.37
   1  11 -24    1.53    0.40
   0 -11 -24    0.48    0.33
   0 -11  24    0.23    0.34
   1 -11  24    3.28    0.53
  -1 -11 -24    3.70    0.49
   2 -11  24    3.06    0.46
  -2 -11 -24    1.53    0.45
  -3 -11 -24    0.08    0.49
   3 -11  24   -0.11    0.37
   3 -11  24    0.88    0.49
   3  11  24   -0.44    0.34
   4 -12 -24    1.98    0.43
  -4 -12  24    2.04    0.49
   4  12 -24    1.20    0.67
   4  12 -24    2.28    0.69
   3 -12 -24    3.93    0.60
  -3 -12  24    4.11    0.61
   3  12 -24    2.73    0.63
   3  12 -24    3.63    0.65
  -2 -12  24    0.34    0.35
   2 -12 -24    0.57    0.34
   2  12 -24   -0.07    0.46
  -1 -12  24    2.77    0.45
   1 -12 -24    2.18    0.39
   0 -12 -24    0.04    0.36
   0 -12  24    0.07    0.32
  -1 -12 -24    0.97    0.40
   1 -12  24    1.02    0.41
   2 -12  24    0.00    0.36
  -2 -12 -24    0.81    0.47
  -3 -12 -24    0.20    0.52
   3 -12  24    0.03    0.43
  -3 -13  24    1.18    0.45
  -2 -13  24   -0.28    0.39
   2 -13 -24    0.06    0.34
   2  13 -24   -0.09    0.50
  -1 -13  24    0.53    0.36
   1 -13 -24   -0.07    0.35
   0 -13  24    0.10    0.38
   0 -13 -24    0.60    0.39
   1 -13  24    1.46    0.44
  -1 -13 -24    1.12    0.44
   7   0 -25    0.00    0.38
   6   0 -25   -0.12    0.32
   5   0 -25    0.99    0.31
   4   0 -25    0.28    0.26
   3   0 -25    1.14    0.28
   2   0 -25    0.20    0.23
  -2   0  25    0.30    0.26
  -1   0  25    2.95    0.42
   1   0 -25    2.05    0.30
  -1   0  25    2.12    0.31
   0   0 -25    0.41    0.22
   0   0  25    0.60    0.27
   1   0  25    8.04    0.57
   1   0  25    7.75    0.57
  -1   0 -25    7.91    0.56
   2   0  25    0.12    0.23
   2   0  25    0.01    0.25
  -2   0 -25    0.22    0.24
   3   0  25    0.54    0.27
   3   0  25    0.62    0.28
   4   0  25    0.61    0.33
   4   0  25    0.50    0.29
   5   0  25    0.49    0.37
   6   0  25    0.58    0.39
   7  -1 -25    1.08    0.42
   7   1 -25    0.94    0.43
   6  -1 -25    0.04    0.31
   6   1 -25   -0.14    0.35
   5  -1 -25    0.98    0.32
   5   1 -25    0.53    0.31
   4  -1 -25    0.61    0.28
   4   1 -25    0.90    0.30
   3  -1 -25    0.91    0.26
   3   1 -25    0.96    0.28
   2  -1 -25    0.07    0.22
  -2  -1  25    0.16    0.27
   2   1 -25   -0.36    0.21
  -1  -1  25    5.95    0.50
   1  -1 -25    6.03    0.48
  -1  -1  25    6.29    0.54
  -1   1  25    5.53    0.51
   1   1 -25    5.88    0.49
  -1   1  25    5.92    0.53
   0  -1  25    1.06    0.26
   0  -1 -25    1.24    0.26
   0  -1  25    1.58    0.30
   0   1  25    1.38    0.26
   0   1 -25    1.39    0.26
   0   1  25    1.68    0.30
   1  -1  25    1.80    0.28
   1  -1  25    2.07    0.31
  -1  -1 -25    1.85    0.29
   1   1  25    1.62    0.29
  -1   1 -25    1.83    0.29
   1   1  25    1.92    0.29
   2  -1  25    4.14    0.44
   2  -1  25    3.50    0.49
  -2  -1 -25    3.87    0.45
  -2   1 -25    3.85    0.45
   2   1  25    4.18    0.45
   2   1  25    4.01    0.46
   3  -1  25    1.14    0.27
  -3  -1 -25    0.85    0.27
   3  -1  25    0.50    0.28
   3   1  25    1.03    0.29
   3   1  25    0.69    0.29
   4  -1  25    1.00    0.36
   4  -1  25    0.90    0.29
   4   1  25    1.21    0.33
   4   1  25    1.06    0.33
   5  -1  25    1.10    0.33
   5  -1  25    0.33    0.37
   5   1  25   -0.10    0.33
   6  -1  25    0.41    0.41
   6   1  25    0.42    0.39
   7  -2 -25    0.24    0.39
   7   2 -25    0.16    0.44
   6  -2 -25    1.84    0.39
   6   2 -25    2.59    0.43
   5  -2 -25    4.12    0.55
   5   2 -25    5.03    0.54
   4  -2 -25    0.71    0.26
   4   2 -25    1.09    0.32
   3  -2 -25    5.67    0.49
  -3  -2  25    6.14    0.56
   3   2 -25    6.18    0.53
   2  -2 -25   22.66    1.23
  -2  -2  25   23.93    1.29
   2   2 -25   23.09    1.24
  -1  -2  25    0.15    0.20
   1  -2 -25    0.16    0.22
  -1  -2  25    0.36    0.27
   1   2 -25    0.31    0.23
   0  -2  25   -0.13    0.22
   0  -2  25    0.06    0.23
   0  -2 -25   -0.28    0.21
   0   2  25    0.09    0.22
   0   2 -25    0.16    0.22
   0   2  25   -0.18    0.23
  -1  -2 -25    4.46    0.45
   1  -2  25    5.15    0.48
   1  -2  25    5.02    0.48
  -1   2 -25    5.41    0.44
   1   2  25    4.21    0.47
   1   2  25    4.31    0.47
   2  -2  25    1.68    0.31
  -2  -2 -25    1.31    0.28
   2   2  25    1.15    0.28
   2   2  25    1.60    0.31
  -2   2 -25    1.57    0.28
   3  -2  25   -0.13    0.27
  -3  -2 -25   -0.20    0.25
   3   2  25   -0.22    0.25
   3   2  25    0.39    0.32
   4  -2  25   -0.05    0.32
   4  -2  25    0.88    0.29
   4   2  25    0.32    0.29
   5  -2  25    0.55    0.39
   5  -2  25    0.26    0.30
   5   2  25    0.38    0.34
   6  -2  25    1.18    0.47
   6   2  25    0.97    0.44
   7  -3 -25    0.26    0.39
   7   3 -25   -0.09    0.43
   6  -3 -25    0.27    0.32
   6   3 -25    0.12    0.38
   5  -3 -25    1.34    0.33
   5   3 -25    2.04    0.39
   4  -3 -25    1.12    0.28
   4   3 -25    1.59    0.34
  -3  -3  25    0.56    0.29
   3  -3 -25    0.59    0.25
   3   3 -25    0.23    0.27
   2  -3 -25    0.49    0.24
  -2  -3  25    0.83    0.29
   2   3 -25    0.67    0.28
   1  -3 -25    2.42    0.31
  -1  -3  25    2.97    0.44
  -1  -3  25    2.03    0.35
   1   3 -25    2.20    0.31
   0  -3  25    0.41    0.23
   0  -3 -25    0.93    0.25
   0  -3  25    0.45    0.26
   0   3 -25    0.36    0.24
   0   3  25    0.37    0.24
   1  -3  25    0.78    0.26
  -1  -3 -25    0.63    0.25
   1  -3  25    1.25    0.29
   1   3  25    0.66    0.25
  -1   3 -25    1.09    0.25
   1   3  25    1.05    0.30
   2  -3  25   11.38    0.79
  -2  -3 -25   12.15    0.75
   2  -3  25   11.49    0.72
   2   3  25   11.02    0.76
   2   3  25   11.21    0.75
  -3  -3 -25    0.71    0.29
   3  -3  25    1.22    0.27
   3  -3  25    1.40    0.34
   3   3  25    0.55    0.28
   4  -3  25    0.06    0.26
   4  -3  25    0.20    0.34
   4   3  25    0.51    0.29
   5  -3  25    0.25    0.32
   5  -3  25    0.14    0.37
   5   3  25    0.19    0.33
   6  -3  25    1.32    0.48
   6  -3  25    1.41    0.42
   6   3  25    1.62    0.47
   6  -4 -25    0.18    0.32
   6   4 -25    0.86    0.42
   5  -4 -25   -0.33    0.28
   5   4 -25    1.05    0.38
  -4  -4  25    0.94    0.34
   4  -4 -25    0.68    0.27
   4   4 -25    0.70    0.34
   3  -4 -25    4.49    0.46
  -3  -4  25    4.99    0.56
   3   4 -25    4.92    0.53
   2  -4 -25    0.16    0.22
  -2  -4  25    0.46    0.29
   2   4 -25    0.57    0.27
   1  -4 -25    0.68    0.24
  -1  -4  25    0.80    0.29
   1   4 -25    0.45    0.26
   0  -4  25    0.08    0.20
   0  -4 -25    0.08    0.22
   0  -4  25   -0.04    0.24
   0   4 -25    0.00    0.22
  -1  -4 -25    0.55    0.26
   1  -4  25    0.73    0.27
   1  -4  25    0.30    0.26
  -1   4 -25    0.62    0.26
   1   4  25    0.04    0.25
   2  -4  25    0.97    0.31
  -2  -4 -25    0.74    0.30
   2  -4  25    0.89    0.28
   2   4  25    0.62    0.27
   2   4  25    0.58    0.28
   3  -4  25    1.03    0.34
  -3  -4 -25    1.32    0.33
   3  -4  25    1.62    0.30
   3   4  25    1.29    0.32
   4  -4  25    1.82    0.33
   4  -4  25    1.47    0.42
  -4  -4 -25    1.86    0.38
   4   4  25    1.79    0.35
   5  -4  25   -0.09    0.30
   5  -4  25    0.11    0.40
   5   4  25   -0.11    0.32
   6  -5 -25    0.26    0.32
   6   5 -25    1.48    0.45
   5  -5 -25    2.07    0.37
   5   5 -25    1.22    0.41
   4  -5 -25    0.16    0.28
  -4  -5  25    0.42    0.31
   4   5 -25    0.82    0.34
   3  -5 -25    1.94    0.31
  -3  -5  25    1.20    0.33
   3   5 -25    1.76    0.36
   2  -5 -25    0.45    0.25
  -2  -5  25    0.03    0.26
   2   5 -25    0.44    0.29
   1  -5 -25    0.51    0.24
  -1  -5  25    0.43    0.27
   1   5 -25    0.19    0.27
   0  -5 -25    0.09    0.22
   0  -5  25    0.53    0.28
   0  -5  25    0.34    0.19
   0   5 -25    0.28    0.24
   0   5  25    0.39    0.24
  -1  -5 -25   -0.04    0.25
   1  -5  25    0.26    0.25
   1  -5  25    0.09    0.27
   1   5  25   -0.06    0.24
  -1   5 -25    0.40    0.25
   2  -5  25    0.44    0.29
  -2  -5 -25    0.27    0.30
   2  -5  25    0.60    0.28
   2   5  25    0.20    0.26
   3  -5  25    3.68    0.58
  -3  -5 -25    3.36    0.43
   3  -5  25    3.64    0.46
   3   5  25    3.66    0.54
   4  -5  25    0.11    0.28
   4  -5  25   -0.03    0.37
  -4  -5 -25   -0.23    0.37
   4   5  25    0.56    0.33
   5  -5  25    3.61    0.56
   5  -5  25    3.91    0.55
   5   5  25    4.83    0.64
   6  -6 -25    0.58    0.36
   6   6 -25    1.01    0.46
   5  -6 -25    6.24    0.57
   5   6 -25    5.02    0.67
  -4  -6  25    2.04    0.40
   4  -6 -25    2.08    0.35
   4   6 -25    2.23    0.41
  -3  -6  25    0.22    0.32
   3  -6 -25   -0.19    0.23
   3   6 -25   -0.33    0.31
  -2  -6  25   -0.09    0.28
   2  -6 -25   -0.23    0.23
   2   6 -25    0.27    0.30
  -1  -6  25    0.78    0.29
   1  -6 -25    0.47    0.25
   1   6 -25    0.50    0.29
   0  -6  25   -0.26    0.25
   0  -6 -25   -0.29    0.23
   0  -6  25   -0.02    0.19
   0   6 -25    0.01    0.25
  -1  -6 -25    1.03    0.29
   1  -6  25    1.12    0.31
   1  -6  25    0.99    0.30
   1   6  25    0.62    0.29
   2  -6  25    0.91    0.32
   2  -6  25    0.45    0.27
  -2  -6 -25    0.76    0.33
   3  -6  25    0.89    0.32
  -3  -6 -25    0.69    0.36
   3  -6  25    0.74    0.38
   3   6  25    1.30    0.33
   4  -6  25    0.52    0.42
   4  -6  25   -0.02    0.30
  -4  -6 -25    0.29    0.39
   4   6  25    0.21    0.32
   5  -6  25   -0.45    0.32
   5  -6  25   -0.13    0.47
   5   6  25    0.13    0.35
   6  -7 -25    4.30    0.62
   6   7 -25    3.98    0.60
  -5  -7  25    0.64    0.36
   5  -7 -25    1.06    0.34
   5   7 -25    0.91    0.44
  -4  -7  25    2.82    0.44
   4  -7 -25    2.66    0.39
   4   7 -25    2.86    0.48
  -3  -7  25    0.62    0.34
   3  -7 -25    0.65    0.29
   3   7 -25    0.61    0.36
  -2  -7  25    1.54    0.36
   2  -7 -25    1.82    0.31
   2   7 -25    1.83    0.38
  -1  -7  25    3.38    0.49
   1  -7 -25    2.89    0.41
   1   7 -25    3.87    0.51
   0  -7 -25    0.59    0.27
   0  -7  25    0.43    0.30
   0   7 -25    0.63    0.27
  -1  -7 -25    3.19    0.48
   1  -7  25    3.95    0.50
   1  -7  25    2.88    0.38
   1   7  25    2.86    0.39
   2  -7  25    0.17    0.30
  -2  -7 -25   -0.15    0.32
   2  -7  25    0.37    0.31
   2   7  25    0.01    0.28
  -3  -7 -25    2.01    0.42
   3  -7  25    2.19    0.43
   3  -7  25    2.13    0.37
   3   7  25    2.02    0.39
   4  -7  25    3.20    0.53
  -4  -7 -25    3.81    0.54
   4  -7  25    3.44    0.43
   4   7  25    3.03    0.46
   5  -7  25    0.24    0.50
   5  -7  25    0.34    0.39
   5   7  25    0.60    0.40
  -5  -8  25    0.51    0.38
   5  -8 -25    0.22    0.32
   5   8 -25    0.33    0.46
   4  -8 -25   -0.25    0.29
  -4  -8  25   -0.22    0.31
   4   8 -25    0.00    0.41
  -3  -8  25    0.62    0.35
   3  -8 -25   -0.16    0.28
   3   8 -25   -0.08    0.38
   2  -8 -25    0.97    0.29
  -2  -8  25    1.17    0.34
   2   8 -25    1.54    0.40
  -1  -8  25    0.97    0.33
   1  -8 -25    0.93    0.27
   1   8 -25    1.07    0.35
   0  -8 -25   -0.28    0.26
   0  -8  25    0.03    0.29
   0   8 -25   -0.22    0.30
   1  -8  25   -0.20    0.34
   1  -8  25    0.00    0.29
  -1  -8 -25    0.15    0.29
   1   8  25   -0.54    0.27
   2  -8  25    3.68    0.59
  -2  -8 -25    4.69    0.57
   2  -8  25    3.16    0.52
   2   8  25    3.86    0.57
   3  -8  25   -0.42    0.38
   3  -8  25    0.63    0.33
  -3  -8 -25    0.24    0.40
   3   8  25   -0.11    0.34
   4  -8  25    0.99    0.47
   4  -8  25    0.56    0.35
  -4  -8 -25    0.64    0.48
   4   8  25    0.39    0.35
  -5  -9  25    1.96    0.46
   5  -9 -25    1.77    0.40
   5   9 -25    1.83    0.54
   4  -9 -25    0.42    0.33
  -4  -9  25    0.52    0.35
   4   9 -25    0.23    0.44
   3  -9 -25   -0.66    0.27
  -3  -9  25    0.10    0.32
   3   9 -25   -0.23    0.39
  -2  -9  25    0.17    0.30
   2  -9 -25    0.11    0.29
   2   9 -25   -0.42    0.38
   1  -9 -25    0.92    0.31
  -1  -9  25    1.18    0.34
   1   9 -25    1.19    0.38
   0  -9  25   -0.45    0.27
   0  -9 -25    0.22    0.28
   1  -9  25    1.61    0.36
  -1  -9 -25    2.02    0.38
  -2  -9 -25    0.52    0.37
   2  -9  25   -0.64    0.34
   2  -9  25   -0.38    0.30
   2   9  25    0.02    0.32
  -3  -9 -25    0.12    0.42
   3  -9  25    0.03    0.32
   3  -9  25   -0.10    0.41
   3   9  25   -0.37    0.33
  -4  -9 -25    1.14    0.52
   4  -9  25   -0.58    0.49
   4  -9  25    0.02    0.35
   4   9  25   -0.51    0.38
  -4 -10  25    0.89    0.38
   4 -10 -25    0.52    0.33
   4  10 -25    0.56    0.53
  -3 -10  25    0.77    0.35
   3 -10 -25    0.36    0.31
   3  10 -25   -0.17    0.44
  -2 -10  25   -0.09    0.32
   2 -10 -25    0.48    0.30
   2  10 -25   -0.08    0.41
   1 -10 -25    0.22    0.33
  -1 -10  25    0.91    0.37
   1  10 -25    1.04    0.37
   0 -10 -25    1.05    0.36
   0 -10  25    0.76    0.37
   1 -10  25    0.11    0.33
  -1 -10 -25    0.13    0.37
   2 -10  25    4.38    0.60
  -2 -10 -25    3.76    0.53
   2  10  25    3.20    0.47
   3 -10  25    0.47    0.35
  -3 -10 -25    0.63    0.50
   3 -10  25    0.34    0.43
   3  10  25   -0.34    0.35
  -4 -11  25    1.59    0.47
   4 -11 -25    1.39    0.41
   4  11 -25    1.19    0.60
   3 -11 -25    0.68    0.37
  -3 -11  25    1.20    0.40
   3  11 -25    0.72    0.49
  -2 -11  25    4.19    0.60
   2 -11 -25    2.99    0.44
   2  11 -25    3.82    0.55
   1 -11 -25   -0.09    0.29
  -1 -11  25   -0.26    0.33
   0 -11 -25    0.34    0.37
   0 -11  25   -0.07    0.34
  -1 -11 -25    0.66    0.41
   1 -11  25    0.45    0.36
   2 -11  25    0.13    0.35
  -2 -11 -25    0.48    0.45
  -3 -12  25    0.60    0.42
   3 -12 -25    0.25    0.39
   3  12 -25   -0.47    0.52
   2 -12 -25    0.54    0.36
  -2 -12  25    0.81    0.42
   2  12 -25    0.05    0.46
   1 -12 -25    0.63    0.37
  -1 -12  25    1.64    0.42
   0 -12 -25    0.53    0.40
   0 -12  25    0.55    0.42
  -1 -12 -25    4.11    0.55
   1 -12  25    3.35    0.53
   6   0 -26    1.06    0.38
   5   0 -26    0.30    0.33
   4   0 -26   12.80    0.82
   3   0 -26   -0.09    0.25
  -2   0  26    1.69    0.34
   2   0 -26    1.61    0.30
  -1   0  26   -0.30    0.24
   1   0 -26    0.11    0.24
  -1   0  26    0.37    0.28
   0   0 -26    0.80    0.26
   0   0  26    0.31    0.26
   0   0  26    0.38    0.24
   1   0  26    0.18    0.24
   1   0  26    0.37    0.25
  -1   0 -26    0.29    0.25
   2   0  26    0.31    0.26
  -2   0 -26    0.09    0.25
   2   0  26   -0.21    0.24
   3   0  26    0.08    0.29
   3   0  26    0.60    0.29
   4   0  26    2.08    0.40
   4   0  26    3.26    0.50
   5   0  26   -0.18    0.38
   6  -1 -26    0.33    0.35
   6   1 -26    0.08    0.36
   5  -1 -26    0.13    0.32
   5   1 -26   -0.13    0.31
   4  -1 -26    0.39    0.27
   4   1 -26    1.25    0.30
   3  -1 -26    0.86    0.28
   3   1 -26    0.74    0.28
   2  -1 -26    0.38    0.24
  -2  -1  26    0.04    0.25
   2   1 -26   -0.08    0.25
  -1  -1  26    6.08    0.55
   1  -1 -26    5.87    0.51
  -1  -1  26    6.60    0.58
  -1   1  26    6.74    0.55
   1   1 -26    6.72    0.53
   0  -1 -26    4.43    0.45
   0  -1  26    4.19    0.46
   0  -1  26    5.18    0.50
   0   1  26    4.43    0.47
   0   1 -26    5.04    0.47
   0   1  26    3.67    0.45
  -1  -1 -26    6.19    0.54
   1  -1  26    6.11    0.55
   1  -1  26    7.08    0.57
  -1   1 -26    6.58    0.53
   1   1  26    6.45    0.53
   1   1  26    6.35    0.55
  -2  -1 -26    0.10    0.27
   2  -1  26    0.45    0.28
   2  -1  26    0.85    0.28
  -2   1 -26    0.05    0.25
   2   1  26   -0.09    0.25
   2   1  26   -0.15    0.26
   3  -1  26    2.67    0.43
   3  -1  26    1.47    0.35
   3   1  26    1.44    0.33
   4  -1  26    1.83    0.34
   4  -1  26    0.91    0.37
   4   1  26    1.32    0.36
   5  -1  26    0.45    0.41
   5  -1  26    0.37    0.37
   5   1  26    0.02    0.36
   6  -2 -26    0.50    0.36
   6   2 -26    0.41    0.39
   5  -2 -26   -0.01    0.30
   5   2 -26    0.67    0.37
   4  -2 -26    0.31    0.27
   4   2 -26    0.72    0.29
   3  -2 -26   -0.25    0.26
  -3  -2  26   -0.05    0.30
   3   2 -26   -0.30    0.27
   2  -2 -26   12.85    0.77
  -2  -2  26   11.89    0.81
   2   2 -26   12.67    0.79
   1  -2 -26    4.14    0.46
  -1  -2  26    5.03    0.52
  -1  -2  26    4.68    0.48
   1   2 -26    4.82    0.47
   0  -2 -26    1.00    0.28
   0  -2  26    0.80    0.26
   0  -2  26    1.37    0.32
   0   2  26    0.57    0.27
   0   2 -26    1.20    0.27
   0   2  26    1.30    0.29
   1  -2  26    3.93    0.45
   1  -2  26    2.92    0.44
  -1  -2 -26    3.52    0.47
  -1   2 -26    3.44    0.40
   1   2  26    3.35    0.42
   1   2  26    3.43    0.47
  -2  -2 -26    1.63    0.32
   2  -2  26    1.63    0.31
   2  -2  26    1.07    0.31
   2   2  26    1.33    0.32
   2   2  26    1.29    0.30
   3  -2  26    0.77    0.29
   3  -2  26    1.03    0.33
  -3  -2 -26    1.48    0.31
   3   2  26    0.71    0.31
   3   2  26    0.99    0.33
   4  -2  26    0.78    0.35
   4  -2  26    0.53    0.31
   4   2  26    0.32    0.30
   5  -2  26    1.07    0.37
   5  -2  26    0.77    0.41
   5   2  26    0.59    0.35
   6  -3 -26    4.02    0.59
   6   3 -26    3.19    0.51
   5  -3 -26    1.12    0.34
   5   3 -26    0.90    0.38
   4  -3 -26    3.16    0.48
   4   3 -26    2.45    0.39
   3  -3 -26    0.26    0.26
  -3  -3  26    0.43    0.31
   3   3 -26    0.33    0.30
   2  -3 -26    0.33    0.25
  -2  -3  26    0.62    0.31
   2   3 -26    0.45    0.28
  -1  -3  26    0.27    0.27
  -1  -3  26   -0.05    0.21
   1  -3 -26    0.15    0.24
   1   3 -26    0.33    0.26
   0  -3 -26    1.72    0.31
   0  -3  26    2.24    0.34
   0  -3  26    1.15    0.30
   0   3 -26    2.26    0.31
   0   3  26    1.25    0.29
   1  -3  26    0.18    0.26
  -1  -3 -26   -0.23    0.25
   1  -3  26   -0.12    0.24
   1   3  26    0.01    0.27
   1   3  26   -0.35    0.23
  -1   3 -26    0.34    0.25
  -2  -3 -26    4.67    0.54
   2  -3  26    5.78    0.50
   2  -3  26    5.30    0.57
   2   3  26    4.46    0.55
   2   3  26    4.57    0.54
   3  -3  26    1.32    0.36
  -3  -3 -26    0.90    0.33
   3  -3  26    0.66    0.29
   3   3  26    0.76    0.30
   4  -3  26    0.39    0.37
   4  -3  26    0.59    0.31
   4   3  26    0.76    0.32
   5  -3  26    0.40    0.35
   5  -3  26   -0.03    0.43
   5   3  26    0.52    0.35
   6  -4 -26    0.71    0.36
   6   4 -26    0.66    0.42
   5  -4 -26    1.15    0.34
   5   4 -26    1.11    0.42
  -4  -4  26    0.39    0.31
   4  -4 -26   -0.08    0.29
   4   4 -26   -0.08    0.33
  -3  -4  26    1.61    0.37
   3  -4 -26    2.50    0.33
   3   4 -26    1.60    0.37
   2  -4 -26    0.37    0.26
  -2  -4  26    0.47    0.31
   2   4 -26    0.62    0.29
  -1  -4  26    3.60    0.42
  -1  -4  26    3.95    0.46
   1  -4 -26    3.00    0.43
   1   4 -26    3.84    0.47
   0  -4 -26    2.05    0.33
   0  -4  26    1.61    0.28
   0  -4  26    1.90    0.34
   0   4  26    2.00    0.32
   0   4 -26    1.57    0.30
   1  -4  26    0.02    0.28
   1  -4  26    0.18    0.26
  -1  -4 -26    0.61    0.28
   1   4  26   -0.10    0.25
  -1   4 -26    0.07    0.26
  -2  -4 -26    0.96    0.33
   2  -4  26    1.09    0.32
   2  -4  26    1.46    0.31
   2   4  26    1.20    0.32
  -3  -4 -26   -0.01    0.32
   3  -4  26    0.53    0.28
   3  -4  26    0.21    0.32
   3   4  26   -0.13    0.27
   4  -4  26   -0.43    0.37
   4  -4  26    0.06    0.30
   4   4  26   -0.07    0.31
   5  -4  26    1.08    0.38
   5  -4  26    1.55    0.47
   5   4  26    1.49    0.42
   6  -5 -26    0.75    0.37
   6   5 -26    0.67    0.44
   5  -5 -26    0.93    0.35
   5   5 -26    0.85    0.43
   4  -5 -26   -0.05    0.29
  -4  -5  26    0.05    0.32
   4   5 -26   -0.37    0.33
   3  -5 -26    7.93    0.61
  -3  -5  26    7.96    0.71
   3   5 -26    8.43    0.71
  -2  -5  26   -0.08    0.29
   2  -5 -26    0.31    0.26
   2   5 -26    0.35    0.30
   1  -5 -26    2.27    0.33
  -1  -5  26    2.41    0.38
   1   5 -26    2.01    0.35
   0  -5  26    3.61    0.44
   0  -5 -26    4.15    0.47
   0  -5  26    3.10    0.41
   0   5 -26    3.77    0.46
   0   5  26    3.60    0.49
   1  -5  26   -0.27    0.26
   1  -5  26    0.50    0.28
  -1  -5 -26    0.18    0.29
   1   5  26   -0.24    0.25
   2  -5  26    3.46    0.49
   2  -5  26    3.38    0.54
  -2  -5 -26    4.07    0.54
   2   5  26    3.41    0.53
  -3  -5 -26    0.08    0.34
   3  -5  26    0.40    0.36
   3  -5  26    0.21    0.28
   3   5  26    0.10    0.30
   4  -5  26    0.92    0.35
   4  -5  26    0.98    0.42
  -4  -5 -26    0.91    0.44
   4   5  26    0.58    0.33
   5  -5  26    1.04    0.37
   5  -5  26    0.33    0.49
   5   5  26    0.58    0.41
   5  -6 -26    0.12    0.31
   5   6 -26    0.47    0.42
  -4  -6  26    1.85    0.41
   4  -6 -26    1.33    0.35
   4   6 -26    0.96    0.41
  -3  -6  26    0.43    0.32
   3  -6 -26    1.29    0.32
   3   6 -26    0.40    0.35
  -2  -6  26    0.91    0.35
   2  -6 -26    0.64    0.28
   2   6 -26    0.49    0.34
   1  -6 -26    5.58    0.53
  -1  -6  26    5.51    0.56
   1   6 -26    5.07    0.55
   0  -6  26    2.24    0.37
   0  -6 -26    2.39    0.36
   0   6 -26    2.41    0.33
   1  -6  26    0.32    0.29
  -1  -6 -26    0.05    0.27
   1  -6  26    0.71    0.31
   1   6  26   -0.01    0.28
   2  -6  26   -0.42    0.30
  -2  -6 -26   -0.09    0.34
   2  -6  26    0.30    0.30
   2   6  26    0.01    0.30
   3  -6  26    7.17    0.75
   3  -6  26    6.96    0.63
  -3  -6 -26    8.09    0.73
   3   6  26    8.49    0.72
   4  -6  26    0.78    0.34
   4  -6  26    0.40    0.45
  -4  -6 -26    0.37    0.44
   4   6  26    1.01    0.36
   5  -7 -26    1.09    0.36
  -5  -7  26    0.86    0.40
   5   7 -26    1.50    0.48
  -4  -7  26    0.37    0.36
   4  -7 -26    0.23    0.30
   4   7 -26    0.31    0.41
  -3  -7  26    1.34    0.38
   3  -7 -26    0.99    0.31
   3   7 -26    0.57    0.39
   2  -7 -26    3.42    0.49
  -2  -7  26    5.03    0.59
   2   7 -26    4.11    0.59
   1  -7 -26   -0.02    0.27
  -1  -7  26    0.39    0.28
   1   7 -26    0.08    0.32
   0  -7  26    0.10    0.29
   0  -7 -26   -0.09    0.28
   0   7 -26   -0.80    0.32
   1  -7  26    1.87    0.36
   1  -7  26    1.69    0.33
  -1  -7 -26    1.86    0.38
   1   7  26    1.34    0.35
  -2  -7 -26    1.10    0.37
   2  -7  26    1.33    0.36
   2  -7  26    2.08    0.34
   2   7  26    0.82    0.34
   3  -7  26    0.52    0.39
   3  -7  26    0.14    0.30
  -3  -7 -26    0.18    0.40
   3   7  26    0.47    0.33
  -4  -7 -26    2.93    0.55
   4  -7  26    3.28    0.47
   4  -7  26    2.88    0.56
   4   7  26    4.21    0.69
  -5  -8  26    6.29    0.77
   5  -8 -26    5.89    0.66
   5   8 -26    5.40    0.67
   4  -8 -26   -0.29    0.30
  -4  -8  26    0.28    0.39
   4   8 -26   -0.51    0.46
   3  -8 -26    0.74    0.31
  -3  -8  26    0.77    0.37
   3   8 -26    0.88    0.43
  -2  -8  26    0.38    0.33
   2  -8 -26    0.09    0.31
   2   8 -26    0.35    0.39
   1  -8 -26    1.84    0.36
  -1  -8  26    1.64    0.36
   1   8 -26    2.17    0.39
   0  -8  26   -0.13    0.30
   0  -8 -26   -0.34    0.26
   1  -8  26    1.38    0.37
  -1  -8 -26    0.35    0.34
   1   8  26    0.88    0.32
  -2  -8 -26    0.46    0.37
   2  -8  26   -0.27    0.29
   2  -8  26    0.09    0.35
   2   8  26   -0.25    0.30
   3  -8  26   -0.04    0.41
   3  -8  26    0.35    0.33
  -3  -8 -26    0.19    0.44
   3   8  26   -0.15    0.35
   4  -8  26    5.35    0.89
   4  -8  26    4.69    0.62
  -4  -8 -26    6.34    0.80
   4   8  26    4.76    0.72
  -4  -9  26    0.29    0.41
   4  -9 -26    0.93    0.37
   4   9 -26    1.14    0.52
  -3  -9  26    0.77    0.38
   3  -9 -26    0.39    0.31
   3   9 -26   -0.22    0.45
   2  -9 -26    0.63    0.32
  -2  -9  26    0.35    0.36
   2   9 -26    0.58    0.41
   1  -9 -26   -0.42    0.30
  -1  -9  26   -0.05    0.35
   1   9 -26   -0.16    0.37
   0  -9 -26    0.70    0.34
   0  -9  26   -0.10    0.31
  -1  -9 -26    1.48    0.40
   1  -9  26    1.91    0.40
   2  -9  26   -0.37    0.33
  -2  -9 -26    0.05    0.41
   2   9  26   -0.12    0.32
  -3  -9 -26   10.07    0.94
   3  -9  26   10.77    0.79
   3  -9  26    8.58    0.93
   3   9  26    8.22    0.86
  -4 -10  26    0.48    0.44
   3 -10 -26    4.51    0.56
  -3 -10  26    5.38    0.70
   3  10 -26    3.54    0.58
   2 -10 -26    2.34    0.41
  -2 -10  26    3.03    0.47
   2  10 -26    2.73    0.51
  -1 -10  26    1.21    0.39
   1 -10 -26    0.93    0.37
   0 -10  26   -0.03    0.34
   0 -10 -26    0.34    0.36
   1 -10  26    1.06    0.38
  -1 -10 -26    1.11    0.41
   2 -10  26    0.16    0.35
  -2 -10 -26    0.69    0.45
   2  10  26    0.08    0.35
  -3 -11  26    1.23    0.46
  -2 -11  26    0.05    0.40
   2 -11 -26    0.02    0.35
   2  11 -26    0.02    0.48
   1 -11 -26    0.48    0.34
  -1 -11  26    0.41    0.40
   0 -11  26   -0.11    0.34
   0 -11 -26   -0.68    0.36
  -1 -11 -26    1.09    0.42
   1 -11  26    2.31    0.48
   6   0 -27    0.14    0.38
   5   0 -27    1.95    0.41
   4   0 -27    0.35    0.31
   3   0 -27    3.33    0.48
  -2   0  27    0.08    0.28
   2   0 -27   -0.11    0.27
  -1   0  27    3.65    0.48
   1   0 -27    3.20    0.45
   0   0  27    0.28    0.28
   0   0  27   -0.18    0.24
   0   0 -27    0.30    0.27
  -1   0 -27    0.59    0.29
   1   0  27    0.38    0.27
   1   0  27    0.18    0.27
   2   0  27   -0.09    0.27
  -2   0 -27    0.29    0.28
   2   0  27    0.36    0.29
   3   0  27    5.63    0.56
   3   0  27    4.90    0.61
   4   0  27    0.60    0.43
   4   0  27   -0.39    0.32
   5   0  27    2.29    0.47
   6  -1 -27    1.57    0.43
   6   1 -27    1.09    0.42
   5  -1 -27    0.75    0.38
   5   1 -27    1.20    0.37
   4  -1 -27    0.37    0.31
   4   1 -27    0.18    0.30
   3  -1 -27    0.94    0.30
   3   1 -27    0.64    0.29
   2  -1 -27    0.41    0.29
  -2  -1  27    0.53    0.31
   2   1 -27    0.69    0.29
  -1  -1  27    2.98    0.46
   1  -1 -27    3.68    0.45
  -1  -1  27    3.79    0.50
   1   1 -27    3.69    0.46
  -1   1  27    2.79    0.39
   0  -1 -27    4.09    0.48
   0  -1  27    5.12    0.51
   0  -1  27    3.66    0.47
   0   1  27    3.71    0.50
   0   1 -27    4.08    0.47
   0   1  27    4.35    0.49
   1  -1  27   10.47    0.72
  -1  -1 -27   10.73    0.70
   1  -1  27    9.42    0.70
   1   1  27    9.79    0.68
   1   1  27    9.81    0.72
  -1   1 -27   10.10    0.67
  -2  -1 -27    1.16    0.32
   2  -1  27    1.48    0.33
   2  -1  27    0.58    0.30
   2   1  27    1.10    0.31
   2   1  27    1.34    0.32
   3  -1  27    1.39    0.36
   3  -1  27    1.81    0.35
   3   1  27    1.18    0.35
   3   1  27    1.17    0.37
   4  -1  27    1.35    0.41
   4  -1  27    1.90    0.38
   4   1  27    1.23    0.38
   5  -1  27    0.12    0.40
   5   1  27    0.07    0.38
   6  -2 -27    0.93    0.39
   6   2 -27    1.12    0.45
   5  -2 -27    0.38    0.34
   5   2 -27    0.45    0.37
   4  -2 -27    4.26    0.55
   4   2 -27    4.77    0.58
   3  -2 -27    2.99    0.42
  -3  -2  27    1.73    0.37
   3   2 -27    1.87    0.37
   2  -2 -27    1.53    0.31
  -2  -2  27    2.14    0.36
   2   2 -27    1.39    0.33
   1  -2 -27    0.94    0.30
  -1  -2  27    1.49    0.32
  -1  -2  27    1.04    0.29
   1   2 -27    1.37    0.31
   0  -2  27    0.30    0.25
   0  -2 -27    0.63    0.28
   0  -2  27    0.72    0.29
   0   2 -27    0.83    0.29
   0   2  27    0.51    0.28
   0   2  27    0.86    0.29
   1  -2  27    0.29    0.25
   1  -2  27    0.85    0.29
  -1  -2 -27    0.95    0.31
   1   2  27    0.27    0.28
  -1   2 -27    0.78    0.30
   1   2  27    0.67    0.29
   2  -2  27    1.85    0.35
   2  -2  27    2.36    0.35
  -2  -2 -27    1.64    0.35
   2   2  27    1.98    0.34
   2   2  27    2.33    0.37
   3  -2  27   10.64    0.72
   3  -2  27    9.75    0.81
   3   2  27   10.79    0.80
   4  -2  27    0.72    0.40
   4  -2  27    0.62    0.36
   4   2  27    0.40    0.34
   6  -3 -27   -0.03    0.37
   6   3 -27    0.49    0.45
   5  -3 -27    0.61    0.36
   5   3 -27    1.62    0.42
   4  -3 -27    1.84    0.37
   4   3 -27    1.79    0.39
  -3  -3  27    1.35    0.37
   3  -3 -27    1.00    0.30
   3   3 -27    0.80    0.33
   2  -3 -27    0.69    0.28
  -2  -3  27    0.99    0.34
   2   3 -27    0.75    0.32
  -1  -3  27    1.47    0.35
  -1  -3  27    0.91    0.27
   1  -3 -27    0.82    0.30
   1   3 -27    1.61    0.33
   0  -3 -27    3.96    0.48
   0  -3  27    3.87    0.48
   0  -3  27    4.82    0.53
   0   3 -27    4.59    0.48
   0   3  27    3.70    0.53
   1  -3  27    0.04    0.26
   1  -3  27    0.41    0.29
  -1  -3 -27    0.05    0.29
   1   3  27   -0.25    0.26
   1   3  27    0.48    0.30
  -1   3 -27   -0.17    0.28
   2  -3  27    2.08    0.36
  -2  -3 -27    1.99    0.37
   2  -3  27    2.87    0.45
   2   3  27    2.01    0.38
   2   3  27    2.05    0.37
  -3  -3 -27    1.25    0.38
   3  -3  27    0.68    0.37
   3  -3  27    0.79    0.30
   3   3  27    1.00    0.33
   4  -3  27    0.63    0.34
   4  -3  27    0.75    0.40
   4   3  27    0.59    0.34
   5  -4 -27    1.30    0.38
   5   4 -27    1.33    0.43
  -4  -4  27    0.60    0.34
   4  -4 -27   -0.12    0.29
   4   4 -27    0.07    0.36
  -3  -4  27    0.16    0.33
   3  -4 -27    0.40    0.27
   3   4 -27   -0.04    0.33
   2  -4 -27    0.71    0.27
  -2  -4  27    0.30    0.33
   2   4 -27    1.22    0.33
  -1  -4  27    0.52    0.31
   1  -4 -27    0.40    0.28
   1   4 -27   -0.10    0.29
   0  -4 -27    0.42    0.28
   0  -4  27    0.38    0.30
   0  -4  27   -0.15    0.26
   0   4  27   -0.08    0.27
   0   4 -27   -0.01    0.27
   1  -4  27    6.10    0.58
  -1  -4 -27    5.67    0.59
   1  -4  27    5.27    0.53
   1   4  27    5.64    0.59
   2  -4  27    0.65    0.29
  -2  -4 -27    1.02    0.35
   2  -4  27    0.43    0.32
   2   4  27    0.44    0.31
  -3  -4 -27    0.21    0.36
   3  -4  27    0.05    0.34
   3  -4  27   -0.02    0.31
   3   4  27   -0.43    0.29
   4  -4  27    3.70    0.54
   4  -4  27    4.56    0.56
   4   4  27    3.36    0.58
   5  -5 -27    0.43    0.35
   5   5 -27    0.27    0.43
  -4  -5  27    2.18    0.44
   4  -5 -27    1.48    0.37
   4   5 -27    1.90    0.46
  -3  -5  27    3.02    0.52
   3  -5 -27    2.05    0.39
   3   5 -27    3.06    0.45
  -2  -5  27    0.70    0.34
   2  -5 -27    0.63    0.27
   2   5 -27    0.25    0.34
  -1  -5  27    4.25    0.56
   1  -5 -27    4.17    0.49
   1   5 -27    3.89    0.53
   0  -5  27    0.17    0.30
   0  -5  27   -0.31    0.40
   0  -5 -27    0.15    0.29
   0   5 -27    0.08    0.29
  -1  -5 -27    0.45    0.32
   1  -5  27    0.46    0.32
   1  -5  27    0.61    0.28
   1   5  27    0.25    0.31
   2  -5  27    1.05    0.36
  -2  -5 -27    1.24    0.38
   2  -5  27    0.72    0.32
   2   5  27    0.70    0.32
   3  -5  27    2.31    0.38
   3  -5  27    1.85    0.44
  -3  -5 -27    0.98    0.40
   3   5  27    1.52    0.37
   4  -5  27    0.10    0.42
   4  -5  27   -0.22    0.33
   4   5  27    0.72    0.37
   5  -6 -27    1.22    0.40
   5   6 -27    0.31    0.47
  -4  -6  27    2.56    0.48
   4  -6 -27    2.06    0.39
   4   6 -27    1.97    0.50
   3  -6 -27    0.83    0.34
  -3  -6  27    1.38    0.39
   3   6 -27    1.00    0.42
  -2  -6  27    1.69    0.38
   2  -6 -27    1.61    0.34
   2   6 -27    0.87    0.39
  -1  -6  27    0.97    0.34
   1  -6 -27    0.23    0.27
   1   6 -27    0.02    0.31
   0  -6 -27    0.05    0.30
   0  -6  27   -0.16    0.30
   0   6 -27    0.19    0.37
   1  -6  27    3.38    0.51
   1  -6  27    2.09    0.35
  -1  -6 -27    3.11    0.42
   1   6  27    2.09    0.38
   2  -6  27    0.53    0.33
   2  -6  27    0.38    0.35
  -2  -6 -27    0.55    0.38
   2   6  27    0.34    0.33
  -3  -6 -27    0.54    0.41
   3  -6  27    0.96    0.35
   3  -6  27    0.18    0.39
   3   6  27    0.95    0.36
   4  -6  27    0.77    0.38
   4  -6  27    0.09    0.45
   4   6  27    0.15    0.40
  -4  -7  27    0.53    0.38
   4  -7 -27    0.44    0.35
   4   7 -27    0.88    0.50
  -3  -7  27    0.51    0.38
   3  -7 -27    0.02    0.32
   3   7 -27    0.55    0.42
  -2  -7  27    7.73    0.72
   2  -7 -27    6.33    0.63
   2   7 -27    6.92    0.71
   1  -7 -27    4.15    0.54
  -1  -7  27    4.69    0.59
   1   7 -27    3.84    0.56
   0  -7 -27   -0.31    0.29
   0  -7  27   -0.02    0.31
   1  -7  27    1.25    0.32
  -1  -7 -27    1.01    0.35
   1   7  27    0.41    0.31
  -2  -7 -27    1.86    0.44
   2  -7  27    2.93    0.44
   2  -7  27    2.01    0.41
   2   7  27    1.54    0.39
  -3  -7 -27    1.75    0.49
   3  -7  27    1.34    0.45
   3  -7  27    1.95    0.40
   3   7  27    0.94    0.39
   4  -8 -27    0.72    0.38
  -4  -8  27    0.35    0.41
   4   8 -27    0.77    0.51
   3  -8 -27    1.09    0.37
  -3  -8  27    1.84    0.43
   3   8 -27    1.38    0.47
  -2  -8  27    1.14    0.38
   2  -8 -27    0.57    0.33
   2   8 -27    1.02    0.43
  -1  -8  27    0.69    0.35
   1  -8 -27    0.52    0.33
   1   8 -27    0.30    0.36
   0  -8 -27    1.00    0.37
   0  -8  27    0.83    0.37
  -1  -8 -27    2.08    0.43
   1  -8  27    1.67    0.40
   2  -8  27    1.38    0.38
   2  -8  27    0.45    0.47
  -2  -8 -27    1.10    0.43
   2   8  27    0.09    0.35
   3  -8  27    0.21    0.38
   3  -8  27   -0.05    0.42
  -3  -8 -27    0.53    0.48
   3   8  27   -0.20    0.38
   3  -9 -27    0.89    0.38
  -3  -9  27    1.47    0.48
   3   9 -27    1.37    0.49
  -2  -9  27    1.65    0.44
   2  -9 -27    1.35    0.38
   2   9 -27    1.73    0.47
   1  -9 -27    0.56    0.35
  -1  -9  27    0.26    0.35
   0  -9 -27    0.15    0.36
   0  -9  27    0.02    0.36
   1  -9  27   -0.13    0.32
  -1  -9 -27    0.05    0.41
   2  -9  27    2.28    0.43
  -2  -9 -27    2.01    0.51
   2   9  27    2.09    0.45
   2 -10 -27    0.75    0.37
  -2 -10  27    0.56    0.44
   2  10 -27    0.40    0.46
  -1 -10  27    2.48    0.48
   1 -10 -27    1.80    0.41
   0 -10 -27    0.35    0.38
   0 -10  27   -0.05    0.38
  -1 -10 -27    1.10    0.44
   1 -10  27    0.31    0.39
   5   0 -28   -0.46    0.36
   4   0 -28   -0.66    0.32
   3   0 -28    0.01    0.30
   2   0 -28    0.71    0.32
  -1   0  28    0.16    0.31
   1   0 -28   -0.42    0.27
   0   0  28    8.86    0.67
   0   0 -28    9.46    0.66
   0   0  28    8.74    0.69
   1   0  28   -0.08    0.26
  -1   0 -28   -0.19    0.28
   1   0  28    0.74    0.30
   2   0  28   -0.22    0.30
   2   0  28   -0.25    0.29
   3   0  28    0.15    0.34
   3   0  28    0.40    0.36
   4   0  28    2.79    0.48
   5  -1 -28    0.29    0.35
   5   1 -28   -0.20    0.34
   4  -1 -28    0.57    0.37
   4   1 -28    0.90    0.38
   3  -1 -28    6.04    0.59
   3   1 -28    6.66    0.61
  -2  -1  28    1.78    0.38
   2  -1 -28    2.43    0.37
   2   1 -28    2.29    0.37
  -1  -1  28    0.30    0.31
   1  -1 -28    0.97    0.31
  -1   1  28    0.45    0.31
   1   1 -28    0.54    0.30
   0  -1  28    1.73    0.33
   0  -1 -28    2.42    0.37
   0  -1  28    2.49    0.39
   0   1  28    2.26    0.36
   0   1 -28    2.50    0.36
   0   1  28    2.43    0.37
  -1  -1 -28    0.57    0.32
   1  -1  28    0.61    0.31
   1  -1  28    1.08    0.34
   1   1  28    0.96    0.33
  -1   1 -28    0.99    0.31
   1   1  28    0.61    0.31
  -2  -1 -28    0.28    0.37
   2  -1  28    0.83    0.31
   2  -1  28    0.11    0.30
   2   1  28    0.75    0.32
   2   1  28   -0.14    0.29
   3  -1  28    2.88    0.44
   3   1  28    2.37    0.42
   3   1  28    3.79    0.65
   4  -1  28    1.27    0.41
   4  -1  28    1.61    0.41
   4   1  28    0.73    0.35
   5  -2 -28    1.26    0.38
   5   2 -28    0.79    0.41
   4  -2 -28    0.04    0.34
   4   2 -28   -0.01    0.35
   3  -2 -28    2.97    0.42
   3   2 -28    3.09    0.45
   2  -2 -28    0.44    0.29
  -2  -2  28    0.80    0.34
   2   2 -28    0.79    0.32
   1  -2 -28    3.53    0.50
  -1  -2  28    2.80    0.48
   1   2 -28    3.31    0.51
   0  -2  28   12.96    0.86
   0  -2 -28   15.17    0.91
   0  -2  28   15.30    0.93
   0   2  28   13.28    0.88
   0   2  28   14.31    0.91
   0   2 -28   15.18    0.88
   1  -2  28    3.11    0.50
  -1  -2 -28    2.85    0.40
   1  -2  28    4.02    0.51
   1   2  28    2.37    0.39
   1   2  28    3.07    0.50
  -1   2 -28    2.79    0.45
   2  -2  28   -0.62    0.30
   2  -2  28   -0.17    0.29
  -2  -2 -28   -0.18    0.34
   2   2  28    0.14    0.34
   2   2  28    0.24    0.31
   3  -2  28    4.22    0.55
   3  -2  28    3.91    0.66
   3   2  28    4.17    0.62
   4  -2  28    4.23    0.60
   4  -2  28    2.75    0.51
   4   2  28    3.77    0.65
   5  -3 -28    4.66    0.63
   5   3 -28    4.94    0.69
   4  -3 -28   -0.12    0.32
   4   3 -28    1.00    0.40
   3  -3 -28    0.56    0.33
  -3  -3  28    0.73    0.36
   3   3 -28    0.29    0.35
   2  -3 -28    1.06    0.33
  -2  -3  28    2.07    0.40
   2   3 -28    1.64    0.35
  -1  -3  28    2.50    0.41
   1  -3 -28    2.33    0.37
   1   3 -28    1.78    0.36
   0  -3  28    9.84    0.72
   0  -3 -28   11.07    0.75
   0  -3  28   13.12    0.81
   0   3 -28   11.11    0.73
   0   3  28   10.23    0.79
  -1  -3 -28    1.15    0.35
   1  -3  28    1.64    0.34
   1  -3  28    1.14    0.31
   1   3  28    1.01    0.35
   2  -3  28    0.59    0.33
   2  -3  28    0.86    0.34
  -2  -3 -28    0.82    0.37
   2   3  28   -0.02    0.30
   3  -3  28    0.84    0.33
   3  -3  28    0.50    0.38
   3   3  28    0.62    0.36
   4  -3  28   -0.12    0.37
   4  -3  28    0.63    0.43
   4   3  28    0.04    0.36
   5  -4 -28    2.63    0.45
   5   4 -28    3.38    0.53
   4  -4 -28    0.15    0.33
   4   4 -28   -0.38    0.39
  -3  -4  28    0.29    0.37
   3  -4 -28    0.13    0.33
   3   4 -28    0.15    0.35
  -2  -4  28    2.35    0.42
   2  -4 -28    1.84    0.35
   2   4 -28    1.90    0.39
   1  -4 -28    0.89    0.32
  -1  -4  28    0.56    0.34
   1   4 -28    0.52    0.32
   0  -4  28    4.31    0.53
   0  -4 -28    5.68    0.57
   0  -4  28    6.02    0.60
   0   4  28    4.49    0.59
   0   4 -28    5.65    0.55
   1  -4  28    0.74    0.32
  -1  -4 -28    0.73    0.34
   1  -4  28    0.63    0.29
   1   4  28    0.60    0.31
   2  -4  28    0.15    0.33
  -2  -4 -28    0.33    0.39
   2  -4  28    0.37    0.33
   2   4  28   -0.23    0.30
   3  -4  28    2.15    0.46
   3  -4  28    2.40    0.41
   3   4  28    2.08    0.43
  -4  -5  28   -0.08    0.37
   4  -5 -28    0.09    0.33
   4   5 -28   -0.01    0.43
  -3  -5  28    0.18    0.36
   3  -5 -28    0.58    0.34
   3   5 -28    0.40    0.38
   2  -5 -28    0.84    0.33
  -2  -5  28    0.25    0.36
   2   5 -28    0.23    0.34
   1  -5 -28    0.55    0.30
  -1  -5  28    0.43    0.32
   1   5 -28    0.14    0.32
   0  -5  28    0.76    0.33
   0  -5 -28    1.70    0.36
  -1  -5 -28    1.08    0.37
   1  -5  28    1.50    0.32
   1  -5  28    1.20    0.37
   1   5  28    0.92    0.35
   2  -5  28    5.01    0.56
   2  -5  28    4.11    0.62
  -2  -5 -28    4.18    0.52
   2   5  28    3.21    0.47
  -3  -5 -28    0.46    0.42
   3  -5  28   -0.42    0.34
   3  -5  28   -0.21    0.39
   3   5  28    0.33    0.35
  -4  -6  28    3.98    0.63
   4  -6 -28    2.32    0.43
   4   6 -28    2.63    0.54
   3  -6 -28   -0.22    0.31
  -3  -6  28    0.45    0.39
   3   6 -28    0.13    0.39
   2  -6 -28    1.24    0.36
  -2  -6  28    1.49    0.40
   2   6 -28    1.05    0.39
   1  -6 -28    1.85    0.39
  -1  -6  28    2.68    0.45
   1   6 -28    2.16    0.41
   0  -6  28    0.11    0.32
   0  -6 -28   -0.36    0.32
   1  -6  28   -0.30    0.33
  -1  -6 -28    0.65    0.36
   1   6  28   -0.38    0.30
   2  -6  28   13.97    0.89
  -2  -6 -28   12.15    0.96
   2  -6  28   12.18    0.93
   2   6  28   13.75    0.96
  -3  -6 -28    0.98    0.47
   3  -6  28    0.92    0.39
   3  -6  28   -0.51    0.41
   3   6  28   -0.21    0.35
  -4  -7  28    0.02    0.41
  -3  -7  28    0.31    0.38
   3  -7 -28   -0.31    0.31
   3   7 -28    0.53    0.44
  -2  -7  28    1.00    0.38
   2  -7 -28    0.13    0.35
   2   7 -28    0.03    0.40
   1  -7 -28    4.13    0.50
   1   7 -28    4.53    0.62
   0  -7 -28   -0.37    0.34
   0  -7  28   -0.23    0.34
  -1  -7 -28    2.86    0.46
   1  -7  28    3.70    0.55
  -2  -7 -28    1.13    0.43
   2  -7  28   -0.15    0.38
   2  -7  28    0.02    0.36
   2   7  28   -0.22    0.36
   3  -8 -28    2.43    0.44
  -3  -8  28    2.59    0.54
   3   8 -28    2.89    0.56
   2  -8 -28    2.92    0.44
  -2  -8  28    4.71    0.68
   2   8 -28    3.10    0.52
  -1  -8  28    0.50    0.36
   1  -8 -28    0.71    0.37
   0  -8  28    0.92    0.39
   0  -8 -28    0.47    0.39
   1  -8  28    5.98    0.66
  -1  -8 -28    5.23    0.74
   2  -8  28    3.52    0.50
  -2  -8 -28    3.57    0.58
   2   8  28    2.68    0.49
  -2  -9  28    6.11    0.77
   2  -9 -28    5.61    0.67
   2   9 -28    5.01    0.64
   1  -9 -28   -0.29    0.35
  -1  -9  28    0.33    0.43
   0  -9 -28    0.80    0.41
   0  -9  28    0.86    0.42
   4   0 -29    0.13    0.34
   3   0 -29    0.41    0.35
   2   0 -29   -0.23    0.32
  -1   0  29    0.97    0.36
   1   0 -29    1.49    0.35
   0   0  29    0.44    0.32
   0   0  29   -0.03    0.29
   0   0 -29    0.15    0.32
   1   0  29    0.77    0.33
  -1   0 -29    0.74    0.36
   1   0  29    0.89    0.34
   2   0  29    0.23    0.32
   2   0  29    0.56    0.36
   3   0  29    1.28    0.42
   3   0  29    0.67    0.37
   4  -1 -29    0.79    0.37
   4   1 -29    0.20    0.37
   3  -1 -29    1.71    0.43
   3   1 -29    2.93    0.44
   2  -1 -29    0.22    0.32
  -2  -1  29    0.24    0.34
   2   1 -29    0.01    0.33
  -1  -1  29    0.50    0.34
   1  -1 -29    0.13    0.32
   1   1 -29    0.61    0.31
   0  -1  29    1.73    0.36
   0  -1  29    0.72    0.31
   0  -1 -29    1.09    0.34
   0   1 -29    0.38    0.32
   0   1  29    1.10    0.36
   0   1  29    0.30    0.31
  -1  -1 -29    2.50    0.41
   1  -1  29    2.22    0.40
   1  -1  29    1.97    0.36
   1   1  29    2.08    0.38
   1   1  29    2.53    0.40
   2  -1  29    3.81    0.48
   2  -1  29    2.54    0.42
   2   1  29    2.89    0.43
   2   1  29    4.14    0.59
   3  -1  29    0.61    0.40
   3  -1  29    0.12    0.37
   3   1  29    0.33    0.37
   4  -2 -29    3.92    0.59
   4   2 -29    3.85    0.52
   3  -2 -29    2.08    0.41
   3   2 -29    2.06    0.42
   2  -2 -29    0.17    0.31
  -2  -2  29    0.18    0.34
   2   2 -29   -0.35    0.33
   1  -2 -29    2.12    0.39
  -1  -2  29    2.15    0.42
   1   2 -29    2.70    0.40
   0  -2 -29    1.56    0.36
   0  -2  29    1.02    0.32
   0   2 -29    1.11    0.34
   0   2  29    1.17    0.34
  -1  -2 -29    2.23    0.41
   1  -2  29    2.19    0.41
   1  -2  29    2.26    0.38
   1   2  29    2.37    0.41
   1   2  29    2.38    0.40
   2  -2  29    1.91    0.38
   2  -2  29    1.45    0.38
   2   2  29    1.13    0.36
   3  -2  29    1.88    0.43
   3  -2  29    0.70    0.39
   3   2  29    1.17    0.40
   4  -3 -29    1.07    0.39
   4   3 -29    1.53    0.44
   3  -3 -29    1.95    0.39
  -3  -3  29    1.94    0.43
   3   3 -29    2.28    0.46
  -2  -3  29    1.26    0.40
   2  -3 -29    1.55    0.38
   2   3 -29    1.29    0.39
   1  -3 -29    0.18    0.31
  -1  -3  29   -0.70    0.32
   1   3 -29    0.41    0.33
   0  -3  29    2.06    0.37
   0  -3 -29    1.51    0.37
   0   3  29    0.71    0.35
   0   3 -29    1.53    0.35
  -1  -3 -29    1.01    0.37
   1  -3  29    0.67    0.32
   1   3  29    0.51    0.34
   2  -3  29    0.76    0.36
  -2  -3 -29    0.86    0.40
   2  -3  29    0.77    0.36
   2   3  29   -0.04    0.34
   3  -3  29    0.10    0.39
   3  -3  29    0.26    0.38
   3   3  29    0.34    0.35
   4  -4 -29    0.29    0.36
   4   4 -29   -0.40    0.43
   3  -4 -29   -0.07    0.34
  -3  -4  29    0.64    0.37
   3   4 -29    1.06    0.40
   2  -4 -29    0.84    0.36
  -2  -4  29    0.98    0.39
   2   4 -29    1.20    0.38
  -1  -4  29    3.98    0.57
   1  -4 -29    4.45    0.56
   1   4 -29    3.95    0.58
   0  -4 -29    0.53    0.34
   0  -4  29    0.21    0.34
   1  -4  29    8.26    0.70
   1  -4  29   10.32    0.76
  -1  -4 -29    8.98    0.74
   1   4  29    8.03    0.77
  -2  -4 -29    0.41    0.40
   2  -4  29   -0.38    0.34
   2   4  29   -0.41    0.35
   3  -5 -29    0.07    0.35
  -3  -5  29    0.90    0.41
   3   5 -29    0.48    0.40
  -2  -5  29    3.78    0.58
   2  -5 -29    4.06    0.59
   2   5 -29    3.86    0.51
  -1  -5  29    1.09    0.40
   1  -5 -29    0.46    0.36
   1   5 -29    0.11    0.36
   0  -5  29    2.70    0.45
   0  -5 -29    1.92    0.40
   1  -5  29    0.72    0.38
  -1  -5 -29    1.51    0.40
   1   5  29    0.58    0.37
   2  -5  29    7.46    0.68
   2  -5  29    4.86    0.68
  -2  -5 -29    6.15    0.74
   2   5  29    5.57    0.70
  -3  -6  29    1.94    0.50
   3  -6 -29    1.99    0.42
   3   6 -29    1.47    0.49
   2  -6 -29    1.65    0.38
  -2  -6  29    1.13    0.41
   2   6 -29    1.07    0.42
   1  -6 -29   -0.16    0.35
  -1  -6  29   -0.03    0.36
   1   6 -29    0.06    0.35
   0  -6  29   -0.20    0.36
   0  -6 -29    0.76    0.41
  -1  -6 -29    0.57    0.40
   1  -6  29    0.27    0.39
   1   6  29    0.30    0.35
   2  -6  29    2.18    0.43
  -2  -6 -29    1.22    0.47
   2  -6  29    1.14    0.40
   2   6  29    1.37    0.42
  -2  -7  29    2.79    0.50
   2  -7 -29    2.51    0.43
   2   7 -29    2.32    0.48
   1  -7 -29    0.48    0.38
  -1  -7  29    0.99    0.40
   0  -7  29    1.88    0.43
   0  -7 -29    0.98    0.43
   1  -7  29    0.49    0.38
  -1  -7 -29    0.45    0.42
  -1  -8  29    2.56    0.51
   3   0 -30    0.08    0.40
   2   0 -30    4.34    0.60
  -1   0  30    0.21    0.37
   1   0 -30   -0.21    0.33
   0   0  30   11.87    0.84
   0   0 -30   12.04    0.81
   0   0  30   10.22    0.82
   1   0  30    0.19    0.36
   2   0  30    0.82    0.37
   2   0  30    1.21    0.43
   3  -1 -30    0.53    0.40
   3   1 -30    0.34    0.41
  -2  -1  30    1.41    0.42
   2  -1 -30    0.79    0.39
   2   1 -30    1.40    0.38
  -1  -1  30    0.34    0.37
   1  -1 -30    0.80    0.36
   1   1 -30    1.14    0.38
   0  -1 -30    2.79    0.42
   0  -1  30    2.10    0.39
   0  -1  30    3.27    0.47
   0   1  30    3.50    0.59
   0   1 -30    1.83    0.40
   0   1  30    2.59    0.41
   1  -1  30    1.08    0.39
   1  -1  30   -0.25    0.32
  -1  -1 -30    0.59    0.38
   1   1  30    0.14    0.37
   1   1  30   -0.11    0.34
   2  -1  30    0.20    0.39
   2  -1  30   -0.59    0.34
   2   1  30    0.54    0.40
   2   1  30   -0.43    0.34
   3  -2 -30    1.75    0.41
   3   2 -30    1.87    0.45
  -2  -2  30    2.63    0.46
   2  -2 -30    1.89    0.44
   2   2 -30    1.88    0.42
  -1  -2  30    4.21    0.63
   1  -2 -30    4.97    0.61
   1   2 -30    3.97    0.60
   0  -2  30    5.41    0.61
   0  -2  30    3.97    0.59
   0  -2 -30    4.89    0.60
   0   2  30    3.70    0.63
   0   2 -30    4.20    0.58
   1  -2  30    0.94    0.35
   1  -2  30    1.84    0.41
  -1  -2 -30    1.29    0.40
   1   2  30    1.48    0.40
   1   2  30    1.62    0.41
   2  -2  30   -0.11    0.35
   2  -2  30    0.51    0.40
   2   2  30    0.00    0.38
   3  -3 -30    0.90    0.40
  -3  -3  30    1.47    0.43
   3   3 -30    1.22    0.44
   2  -3 -30    0.38    0.39
  -2  -3  30    0.42    0.36
   2   3 -30    0.11    0.37
   1  -3 -30    1.32    0.39
  -1  -3  30    1.69    0.44
   1   3 -30    1.62    0.39
   0  -3 -30   -0.06    0.34
   0  -3  30   -0.04    0.38
   1  -3  30    0.24    0.37
   1  -3  30   -0.50    0.32
  -1  -3 -30    0.03    0.39
   1   3  30   -0.55    0.34
   2  -3  30    0.28    0.38
   2  -4 -30    4.32    0.53
  -2  -4  30    3.91    0.56
   2   4 -30    3.47    0.49
   1  -4 -30    0.88    0.41
  -1  -4  30    1.05    0.40
   1   4 -30   -0.01    0.36
   0  -4 -30    0.41    0.37
   0  -4  30    0.75    0.39
  -1  -4 -30    0.09    0.38
   1  -4  30   -0.08    0.38
   1  -4  30   -0.10    0.39
   1   4  30   -0.32    0.35
  -2  -5  30    1.84    0.45
   2  -5 -30    1.40    0.40
   2   5 -30    0.77    0.41
   1  -5 -30    1.84    0.44
  -1  -5  30    2.41    0.48
   1   5 -30    1.52    0.44
   0  -5 -30    1.00    0.43
   0  -5  30    1.50    0.42
   1  -5  30    0.43    0.39
  -1  -6  30    3.86    0.56
  -1   0  31    0.98    0.44
   1   0 -31   -0.40    0.36
   0   0  31    0.12    0.38
   0   0 -31    0.44    0.38
   0   0  31    0.11    0.35
   1  -1 -31    0.09    0.37
  -1  -1  31    0.20    0.40
   1   1 -31    0.28    0.38
   0  -1  31   -0.16    0.34
   0  -1  31    0.56    0.40
   0  -1 -31   -0.86    0.35
   0   1  31   -0.33    0.36
   0   1  31    1.15    0.42
   0   1 -31   -0.15    0.38
   1  -2 -31    0.23    0.42
  -1  -2  31    0.85    0.41
   1   2 -31    0.14    0.37
   0  -2  31    0.26    0.41
   0   0   0    0.00    0.00
;
_shelx_hkl_checksum              10931
_shelx_shelxl_version_number     2014/7
_olex2_submission_special_instructions 'No special instructions were received'
loop_
_space_group_symop_operation_xyz
'x, y, z'
'-x+1/2, y+1/2, -z+1/2'
'-x, -y, -z'
'x-1/2, -y-1/2, z-1/2'
loop_
_atom_site_label
_atom_site_type_symbol
_atom_site_fract_x
_atom_site_fract_y
_atom_site_fract_z
_atom_site_U_iso_or_equiv
_atom_site_adp_type
_atom_site_occupancy
_atom_site_site_symmetry_order
_atom_site_calc_flag
_atom_site_refinement_flags_posn
C1 C -0.3838(2) 0.59536(12) 0.16526(9) 0.0348(4) Uani 1 1 d .
C2 C -0.4809(3) 0.65008(14) 0.19145(11) 0.0476(5) Uani 1 1 d .
H2 H -0.4426 0.6810 0.2228 0.057 Uiso 1 1 calc R
C3 C -0.6367(3) 0.65840(15) 0.17039(13) 0.0553(6) Uani 1 1 d .
H3 H -0.7028 0.6956 0.1876 0.066 Uiso 1 1 calc R
C4 C -0.6946(3) 0.61245(16) 0.12443(11) 0.0526(6) Uani 1 1 d .
H4 H -0.7993 0.6191 0.1108 0.063 Uiso 1 1 calc R
C5 C -0.5993(2) 0.55664(15) 0.09824(10) 0.0449(5) Uani 1 1 d .
H5 H -0.6394 0.5246 0.0677 0.054 Uiso 1 1 calc R
C6 C -0.4422(2) 0.54926(12) 0.11842(8) 0.0338(4) Uani 1 1 d .
C7 C -0.3138(2) 0.49889(11) 0.09826(8) 0.0313(4) Uani 1 1 d .
C8 C -0.3108(2) 0.44376(13) 0.05343(8) 0.0376(4) Uani 1 1 d .
H8 H -0.4018 0.4334 0.0303 0.045 Uiso 1 1 calc R
C9 C -0.1706(3) 0.40412(13) 0.04336(9) 0.0389(4) Uani 1 1 d .
H9 H -0.1683 0.3670 0.0131 0.047 Uiso 1 1 calc R
C10 C -0.0326(2) 0.41844(11) 0.07749(8) 0.0332(4) Uani 1 1 d .
C11 C -0.0379(2) 0.47353(12) 0.12343(8) 0.0330(4) Uani 1 1 d .
H11 H 0.0523 0.4830 0.1472 0.040 Uiso 1 1 calc R
C12 C -0.1774(2) 0.51374(11) 0.13337(8) 0.0299(4) Uani 1 1 d .
C13 C -0.2109(2) 0.57541(12) 0.17996(8) 0.0326(4) Uani 1 1 d .
C14 C -0.1899(3) 0.53549(15) 0.23912(9) 0.0468(5) Uani 1 1 d .
H14A H -0.2536 0.4865 0.2400 0.070 Uiso 1 1 calc GR
H14B H -0.2222 0.5736 0.2676 0.070 Uiso 1 1 calc GR
H14C H -0.0807 0.5212 0.2469 0.070 Uiso 1 1 calc GR
C15 C -0.1076(3) 0.65258(13) 0.17700(10) 0.0439(5) Uani 1 1 d .
H15A H 0.0010 0.6381 0.1859 0.066 Uiso 1 1 calc GR
H15B H -0.1404 0.6926 0.2042 0.066 Uiso 1 1 calc GR
H15C H -0.1186 0.6755 0.1391 0.066 Uiso 1 1 calc GR
C16 C 0.1153(2) 0.37509(12) 0.06507(8) 0.0340(4) Uani 1 1 d .
C17 C 0.1545(2) 0.36364(13) 0.00838(8) 0.0372(4) Uani 1 1 d .
H17 H 0.0887 0.3854 -0.0211 0.045 Uiso 1 1 calc R
C18 C 0.2885(2) 0.32083(12) -0.00494(8) 0.0356(4) Uani 1 1 d .
H18 H 0.3123 0.3133 -0.0429 0.043 Uiso 1 1 calc R
C19 C 0.3871(2) 0.28918(11) 0.03919(8) 0.0301(4) Uani 1 1 d .
C20 C 0.3527(2) 0.30215(11) 0.09632(8) 0.0318(4) Uani 1 1 d .
C21 C 0.2182(2) 0.34435(12) 0.10915(8) 0.0358(4) Uani 1 1 d .
H21 H 0.1956 0.3525 0.1472 0.043 Uiso 1 1 calc R
C22 C 0.5318(2) 0.24079(11) 0.03804(8) 0.0306(4) Uani 1 1 d .
C23 C 0.6152(2) 0.21270(12) -0.00742(8) 0.0356(4) Uani 1 1 d .
H23 H 0.5786 0.2229 -0.0450 0.043 Uiso 1 1 calc R
C24 C 0.7536(2) 0.16930(13) 0.00433(8) 0.0376(4) Uani 1 1 d .
H24 H 0.8099 0.1503 -0.0260 0.045 Uiso 1 1 calc R
C25 C 0.8119(2) 0.15299(12) 0.06024(8) 0.0348(4) Uani 1 1 d .
C26 C 0.7243(2) 0.18040(12) 0.10542(8) 0.0349(4) Uani 1 1 d .
H26 H 0.7598 0.1695 0.1431 0.042 Uiso 1 1 calc R
C27 C 0.5857(2) 0.22343(11) 0.09447(8) 0.0312(4) Uani 1 1 d .
C28 C 0.4757(2) 0.26082(12) 0.13684(7) 0.0318(4) Uani 1 1 d .
C29 C 0.3974(3) 0.19491(13) 0.17254(9) 0.0428(5) Uani 1 1 d .
H29A H 0.3358 0.1587 0.1476 0.064 Uiso 1 1 calc GR
H29B H 0.3298 0.2210 0.1987 0.064 Uiso 1 1 calc GR
H29C H 0.4776 0.1637 0.1937 0.064 Uiso 1 1 calc GR
C30 C 0.5639(3) 0.32208(14) 0.17670(9) 0.0439(5) Uani 1 1 d .
H30A H 0.6393 0.2930 0.2015 0.066 Uiso 1 1 calc GR
H30B H 0.4897 0.3502 0.1993 0.066 Uiso 1 1 calc GR
H30C H 0.6182 0.3615 0.1543 0.066 Uiso 1 1 calc GR
C31 C 0.9638(2) 0.10851(12) 0.07036(8) 0.0350(4) Uani 1 1 d .
C32 C 1.0876(3) 0.12330(13) 0.03484(9) 0.0409(5) Uani 1 1 d .
H32 H 1.0731 0.1615 0.0053 0.049 Uiso 1 1 calc R
C33 C 1.2304(3) 0.08302(13) 0.04225(9) 0.0406(5) Uani 1 1 d .
H33 H 1.3114 0.0937 0.0181 0.049 Uiso 1 1 calc R
C34 C 1.2512(2) 0.02622(12) 0.08641(8) 0.0336(4) Uani 1 1 d .
C35 C 1.1294(2) 0.01068(11) 0.12267(8) 0.0322(4) Uani 1 1 d .
C36 C 0.9868(2) 0.05176(12) 0.11507(8) 0.0348(4) Uani 1 1 d .
H36 H 0.9064 0.0417 0.1396 0.042 Uiso 1 1 calc R
C37 C 1.3883(2) -0.02377(12) 0.10503(9) 0.0346(4) Uani 1 1 d .
C38 C 1.5377(2) -0.02909(14) 0.08406(10) 0.0429(5) Uani 1 1 d .
H38 H 1.5653 0.0038 0.0536 0.051 Uiso 1 1 calc R
C39 C 1.6448(3) -0.08419(15) 0.10938(11) 0.0499(6) Uani 1 1 d .
H39 H 1.7451 -0.0891 0.0955 0.060 Uiso 1 1 calc R
C40 C 1.6047(3) -0.13197(15) 0.15504(12) 0.0516(6) Uani 1 1 d .
H40 H 1.6779 -0.1692 0.1713 0.062 Uiso 1 1 calc R
C41 C 1.4569(3) -0.12538(14) 0.17706(11) 0.0465(5) Uani 1 1 d .
H41 H 1.4311 -0.1571 0.2083 0.056 Uiso 1 1 calc R
C42 C 1.3486(2) -0.07107(12) 0.15192(9) 0.0355(4) Uani 1 1 d .
C43 C 1.1809(2) -0.05221(12) 0.16835(9) 0.0345(4) Uani 1 1 d .
C44 C 1.0770(3) -0.12921(13) 0.16543(11) 0.0463(5) Uani 1 1 d .
H44A H 0.9712 -0.1148 0.1742 0.069 Uiso 1 1 calc GR
H44B H 1.1187 -0.1691 0.1927 0.069 Uiso 1 1 calc GR
H44C H 1.0758 -0.1522 0.1276 0.069 Uiso 1 1 calc GR
C45 C 1.1837(3) -0.01385(15) 0.22833(10) 0.0494(5) Uani 1 1 d .
H45A H 1.2484 0.0348 0.2293 0.074 Uiso 1 1 calc GR
H45B H 1.2265 -0.0529 0.2560 0.074 Uiso 1 1 calc GR
H45C H 1.0780 0.0005 0.2373 0.074 Uiso 1 1 calc GR
loop_
_atom_site_aniso_label
_atom_site_aniso_U_11
_atom_site_aniso_U_22
_atom_site_aniso_U_33
_atom_site_aniso_U_23
_atom_site_aniso_U_13
_atom_site_aniso_U_12
C1 0.0292(9) 0.0294(9) 0.0459(10) 0.0037(8) 0.0038(8) 0.0014(7)
C2 0.0395(11) 0.0367(11) 0.0672(15) -0.0065(10) 0.0075(10) 0.0038(9)
C3 0.0368(11) 0.0444(13) 0.0858(18) 0.0011(12) 0.0134(12) 0.0094(10)
C4 0.0288(10) 0.0585(15) 0.0703(16) 0.0138(12) 0.0021(10) 0.0064(10)
C5 0.0313(10) 0.0556(13) 0.0474(12) 0.0060(10) -0.0020(9) -0.0015(9)
C6 0.0292(9) 0.0333(10) 0.0389(10) 0.0085(8) 0.0014(7) 0.0000(7)
C7 0.0295(9) 0.0302(9) 0.0337(9) 0.0044(7) -0.0014(7) -0.0006(7)
C8 0.0346(10) 0.0412(11) 0.0361(10) -0.0019(8) -0.0060(8) -0.0037(8)
C9 0.0438(11) 0.0357(10) 0.0365(10) -0.0074(8) -0.0035(8) -0.0013(9)
C10 0.0370(10) 0.0267(9) 0.0353(9) 0.0006(7) -0.0015(8) 0.0045(7)
C11 0.0313(9) 0.0306(9) 0.0358(9) -0.0016(7) -0.0076(7) 0.0037(7)
C12 0.0309(9) 0.0265(8) 0.0318(8) -0.0001(7) -0.0019(7) 0.0009(7)
C13 0.0302(9) 0.0291(9) 0.0383(9) -0.0035(7) 0.0007(7) 0.0028(7)
C14 0.0493(12) 0.0537(13) 0.0370(10) -0.0011(10) -0.0015(9) 0.0049(11)
C15 0.0368(10) 0.0375(11) 0.0572(13) -0.0108(10) 0.0015(9) -0.0039(9)
C16 0.0386(10) 0.0273(9) 0.0358(9) -0.0010(7) -0.0009(8) 0.0050(8)
C17 0.0418(11) 0.0366(10) 0.0326(9) 0.0047(8) -0.0041(8) 0.0072(8)
C18 0.0429(11) 0.0374(10) 0.0264(8) 0.0016(7) 0.0014(8) 0.0049(8)
C19 0.0359(9) 0.0252(8) 0.0293(8) 0.0005(7) 0.0016(7) 0.0023(7)
C20 0.0400(10) 0.0262(9) 0.0288(8) 0.0013(7) -0.0006(7) 0.0064(7)
C21 0.0446(11) 0.0328(10) 0.0299(9) -0.0018(7) 0.0015(8) 0.0102(8)
C22 0.0366(9) 0.0251(8) 0.0300(8) -0.0006(7) 0.0007(7) 0.0015(7)
C23 0.0425(10) 0.0368(10) 0.0273(8) -0.0020(7) 0.0001(8) 0.0037(8)
C24 0.0411(11) 0.0381(10) 0.0341(9) -0.0040(8) 0.0072(8) 0.0046(8)
C25 0.0376(10) 0.0283(9) 0.0387(10) 0.0018(8) 0.0044(8) 0.0054(8)
C26 0.0426(10) 0.0327(9) 0.0295(9) 0.0037(7) 0.0018(8) 0.0092(8)
C27 0.0390(10) 0.0257(9) 0.0288(8) 0.0006(7) 0.0028(7) 0.0056(7)
C28 0.0381(10) 0.0300(9) 0.0273(8) 0.0015(7) 0.0020(7) 0.0099(8)
C29 0.0526(12) 0.0386(11) 0.0374(10) 0.0070(9) 0.0053(9) 0.0051(10)
C30 0.0551(13) 0.0405(11) 0.0356(10) -0.0040(9) -0.0012(9) 0.0063(10)
C31 0.0362(10) 0.0296(9) 0.0395(10) -0.0002(8) 0.0052(8) 0.0048(8)
C32 0.0442(11) 0.0365(10) 0.0428(11) 0.0080(9) 0.0087(9) 0.0050(9)
C33 0.0384(10) 0.0430(11) 0.0418(10) 0.0029(9) 0.0131(9) 0.0005(9)
C34 0.0311(9) 0.0309(9) 0.0394(10) -0.0041(8) 0.0054(8) 0.0007(7)
C35 0.0322(9) 0.0269(9) 0.0378(9) -0.0005(7) 0.0040(7) 0.0010(7)
C36 0.0332(9) 0.0320(9) 0.0402(10) 0.0025(8) 0.0097(8) 0.0028(8)
C37 0.0307(9) 0.0309(9) 0.0421(10) -0.0067(8) 0.0016(8) -0.0007(8)
C38 0.0321(10) 0.0467(12) 0.0502(12) -0.0060(10) 0.0056(9) -0.0001(9)
C39 0.0274(10) 0.0558(14) 0.0662(15) -0.0098(12) 0.0012(10) 0.0044(9)
C40 0.0352(11) 0.0451(13) 0.0733(16) -0.0001(12) -0.0072(11) 0.0082(10)
C41 0.0387(11) 0.0378(11) 0.0625(14) 0.0064(10) -0.0021(10) 0.0020(9)
C42 0.0296(9) 0.0286(9) 0.0482(11) -0.0043(8) 0.0010(8) 0.0006(7)
C43 0.0302(9) 0.0305(9) 0.0428(10) 0.0037(8) 0.0038(8) 0.0027(7)
C44 0.0377(11) 0.0365(11) 0.0648(14) 0.0102(10) 0.0041(10) -0.0023(9)
C45 0.0532(13) 0.0521(13) 0.0432(11) 0.0023(10) 0.0069(10) 0.0051(11)
loop_
_atom_type_symbol
_atom_type_description
_atom_type_scat_dispersion_real
_atom_type_scat_dispersion_imag
_atom_type_scat_source
C C 0.0033 0.0016 'International Tables Vol C Tables 4.2.6.8 and 6.1.1.4'
H H 0.0000 0.0000 'International Tables Vol C Tables 4.2.6.8 and 6.1.1.4'
loop_
_geom_angle_atom_site_label_1
_geom_angle_atom_site_label_2
_geom_angle_atom_site_label_3
_geom_angle
C2 C1 C6 120.15(19)
C2 C1 C13 128.98(19)
C6 C1 C13 110.87(17)
C1 C2 H2 120.5
C1 C2 C3 119.0(2)
C3 C2 H2 120.5
C2 C3 H3 119.6
C4 C3 C2 120.9(2)
C4 C3 H3 119.6
C3 C4 H4 119.6
C3 C4 C5 120.8(2)
C5 C4 H4 119.6
C4 C5 H5 120.7
C4 C5 C6 118.6(2)
C6 C5 H5 120.7
C1 C6 C7 108.54(16)
C5 C6 C1 120.57(19)
C5 C6 C7 130.9(2)
C8 C7 C6 130.94(17)
C8 C7 C12 120.44(18)
C12 C7 C6 108.61(16)
C7 C8 H8 120.5
C7 C8 C9 119.03(18)
C9 C8 H8 120.5
C8 C9 H9 119.2
C8 C9 C10 121.61(18)
C10 C9 H9 119.2
C9 C10 C11 118.75(18)
C9 C10 C16 119.92(17)
C11 C10 C16 121.33(17)
C10 C11 H11 120.1
C12 C11 C10 119.82(17)
C12 C11 H11 120.1
C7 C12 C13 110.61(16)
C11 C12 C7 120.34(17)
C11 C12 C13 129.05(16)
C1 C13 C14 110.75(17)
C1 C13 C15 111.21(16)
C12 C13 C1 101.32(15)
C12 C13 C14 110.74(16)
C12 C13 C15 111.98(16)
C14 C13 C15 110.53(17)
C13 C14 H14A 109.5
C13 C14 H14B 109.5
C13 C14 H14C 109.5
H14A C14 H14B 109.5
H14A C14 H14C 109.5
H14B C14 H14C 109.5
C13 C15 H15A 109.5
C13 C15 H15B 109.5
C13 C15 H15C 109.5
H15A C15 H15B 109.5
H15A C15 H15C 109.5
H15B C15 H15C 109.5
C17 C16 C10 120.04(17)
C17 C16 C21 118.54(18)
C21 C16 C10 121.41(17)
C16 C17 H17 119.2
C18 C17 C16 121.67(17)
C18 C17 H17 119.2
C17 C18 H18 120.5
C17 C18 C19 118.96(17)
C19 C18 H18 120.5
C18 C19 C20 120.31(17)
C18 C19 C22 130.95(17)
C20 C19 C22 108.73(16)
C19 C20 C28 110.79(16)
C21 C20 C19 120.27(17)
C21 C20 C28 128.88(17)
C16 C21 H21 119.9
C20 C21 C16 120.19(17)
C20 C21 H21 119.9
C23 C22 C19 131.13(17)
C23 C22 C27 120.27(17)
C27 C22 C19 108.60(16)
C22 C23 H23 120.7
C24 C23 C22 118.64(17)
C24 C23 H23 120.7
C23 C24 H24 118.9
C23 C24 C25 122.14(18)
C25 C24 H24 118.9
C24 C25 C26 118.29(18)
C24 C25 C31 119.84(18)
C26 C25 C31 121.87(18)
C25 C26 H26 119.8
C27 C26 C25 120.31(17)
C27 C26 H26 119.8
C22 C27 C28 110.80(16)
C26 C27 C22 120.32(17)
C26 C27 C28 128.84(16)
C20 C28 C27 101.07(14)
C20 C28 C29 110.15(17)
C20 C28 C30 112.71(16)
C27 C28 C29 112.19(16)
C27 C28 C30 111.09(17)
C30 C28 C29 109.45(16)
C28 C29 H29A 109.5
C28 C29 H29B 109.5
C28 C29 H29C 109.5
H29A C29 H29B 109.5
H29A C29 H29C 109.5
H29B C29 H29C 109.5
C28 C30 H30A 109.5
C28 C30 H30B 109.5
C28 C30 H30C 109.5
H30A C30 H30B 109.5
H30A C30 H30C 109.5
H30B C30 H30C 109.5
C32 C31 C25 119.78(18)
C32 C31 C36 118.80(18)
C36 C31 C25 121.43(18)
C31 C32 H32 119.1
C33 C32 C31 121.89(19)
C33 C32 H32 119.1
C32 C33 H33 120.6
C32 C33 C34 118.77(19)
C34 C33 H33 120.6
C33 C34 C35 120.39(18)
C33 C34 C37 130.85(18)
C35 C34 C37 108.74(17)
C34 C35 C43 110.87(16)
C36 C35 C34 120.42(18)
C36 C35 C43 128.70(17)
C31 C36 H36 120.1
C35 C36 C31 119.73(18)
C35 C36 H36 120.1
C38 C37 C34 130.9(2)
C38 C37 C42 120.76(19)
C42 C37 C34 108.34(17)
C37 C38 H38 120.7
C39 C38 C37 118.6(2)
C39 C38 H38 120.7
C38 C39 H39 119.7
C40 C39 C38 120.7(2)
C40 C39 H39 119.7
C39 C40 H40 119.5
C39 C40 C41 120.9(2)
C41 C40 H40 119.5
C40 C41 H41 120.5
C42 C41 C40 118.9(2)
C42 C41 H41 120.5
C37 C42 C43 111.08(17)
C41 C42 C37 120.08(19)
C41 C42 C43 128.8(2)
C35 C43 C42 100.94(15)
C35 C43 C44 112.10(17)
C35 C43 C45 111.03(17)
C42 C43 C44 111.58(17)
C42 C43 C45 110.35(17)
C44 C43 C45 110.52(18)
C43 C44 H44A 109.5
C43 C44 H44B 109.5
C43 C44 H44C 109.5
H44A C44 H44B 109.5
H44A C44 H44C 109.5
H44B C44 H44C 109.5
C43 C45 H45A 109.5
C43 C45 H45B 109.5
C43 C45 H45C 109.5
H45A C45 H45B 109.5
H45A C45 H45C 109.5
H45B C45 H45C 109.5
loop_
_geom_bond_atom_site_label_1
_geom_bond_atom_site_label_2
_geom_bond_distance
C1 C2 1.377(3)
C1 C6 1.392(3)
C1 C13 1.519(3)
C2 H2 0.9300
C2 C3 1.387(3)
C3 H3 0.9300
C3 C4 1.374(4)
C4 H4 0.9300
C4 C5 1.379(3)
C5 H5 0.9300
C5 C6 1.391(3)
C6 C7 1.459(3)
C7 C8 1.379(3)
C7 C12 1.398(2)
C8 H8 0.9300
C8 C9 1.382(3)
C9 H9 0.9300
C9 C10 1.395(3)
C10 C11 1.400(3)
C10 C16 1.479(3)
C11 H11 0.9300
C11 C12 1.380(3)
C12 C13 1.518(3)
C13 C14 1.528(3)
C13 C15 1.530(3)
C14 H14A 0.9600
C14 H14B 0.9600
C14 H14C 0.9600
C15 H15A 0.9600
C15 H15B 0.9600
C15 H15C 0.9600
C16 C17 1.398(3)
C16 C21 1.402(3)
C17 H17 0.9300
C17 C18 1.381(3)
C18 H18 0.9300
C18 C19 1.387(3)
C19 C20 1.400(2)
C19 C22 1.456(3)
C20 C21 1.376(3)
C20 C28 1.522(2)
C21 H21 0.9300
C22 C23 1.387(3)
C22 C27 1.399(2)
C23 H23 0.9300
C23 C24 1.381(3)
C24 H24 0.9300
C24 C25 1.395(3)
C25 C26 1.399(3)
C25 C31 1.481(3)
C26 H26 0.9300
C26 C27 1.376(3)
C27 C28 1.525(3)
C28 C29 1.530(3)
C28 C30 1.526(3)
C29 H29A 0.9600
C29 H29B 0.9600
C29 H29C 0.9600
C30 H30A 0.9600
C30 H30B 0.9600
C30 H30C 0.9600
C31 C32 1.396(3)
C31 C36 1.397(3)
C32 H32 0.9300
C32 C33 1.376(3)
C33 H33 0.9300
C33 C34 1.387(3)
C34 C35 1.396(3)
C34 C37 1.461(3)
C35 C36 1.381(3)
C35 C43 1.521(3)
C36 H36 0.9300
C37 C38 1.386(3)
C37 C42 1.395(3)
C38 H38 0.9300
C38 C39 1.381(3)
C39 H39 0.9300
C39 C40 1.378(4)
C40 H40 0.9300
C40 C41 1.385(3)
C41 H41 0.9300
C41 C42 1.377(3)
C42 C43 1.523(3)
C43 C44 1.526(3)
C43 C45 1.533(3)
C44 H44A 0.9600
C44 H44B 0.9600
C44 H44C 0.9600
C45 H45A 0.9600
C45 H45B 0.9600
C45 H45C 0.9600
loop_
_geom_torsion_atom_site_label_1
_geom_torsion_atom_site_label_2
_geom_torsion_atom_site_label_3
_geom_torsion_atom_site_label_4
_geom_torsion
C1 C2 C3 C4 0.6(4)
C1 C6 C7 C8 -179.5(2)
C1 C6 C7 C12 0.7(2)
C2 C1 C6 C5 -1.3(3)
C2 C1 C6 C7 178.19(19)
C2 C1 C13 C12 -177.9(2)
C2 C1 C13 C14 64.6(3)
C2 C1 C13 C15 -58.7(3)
C2 C3 C4 C5 0.3(4)
C3 C4 C5 C6 -1.6(4)
C4 C5 C6 C1 2.1(3)
C4 C5 C6 C7 -177.2(2)
C5 C6 C7 C8 -0.2(4)
C5 C6 C7 C12 -180.0(2)
C6 C1 C2 C3 -0.1(3)
C6 C1 C13 C12 2.1(2)
C6 C1 C13 C14 -115.46(19)
C6 C1 C13 C15 121.21(18)
C6 C7 C8 C9 179.5(2)
C6 C7 C12 C11 -179.97(17)
C6 C7 C12 C13 0.7(2)
C7 C8 C9 C10 0.1(3)
C7 C12 C13 C1 -1.6(2)
C7 C12 C13 C14 115.89(18)
C7 C12 C13 C15 -120.25(18)
C8 C7 C12 C11 0.2(3)
C8 C7 C12 C13 -179.11(17)
C8 C9 C10 C11 0.9(3)
C8 C9 C10 C16 -179.65(19)
C9 C10 C11 C12 -1.4(3)
C9 C10 C16 C17 39.8(3)
C9 C10 C16 C21 -139.8(2)
C10 C11 C12 C7 0.9(3)
C10 C11 C12 C13 -179.97(18)
C10 C16 C17 C18 -177.58(19)
C10 C16 C21 C20 178.11(18)
C11 C10 C16 C17 -140.7(2)
C11 C10 C16 C21 39.6(3)
C11 C12 C13 C1 179.12(19)
C11 C12 C13 C14 -63.3(3)
C11 C12 C13 C15 60.5(3)
C12 C7 C8 C9 -0.7(3)
C13 C1 C2 C3 179.9(2)
C13 C1 C6 C5 178.79(18)
C13 C1 C6 C7 -1.8(2)
C16 C10 C11 C12 179.18(18)
C16 C17 C18 C19 -0.6(3)
C17 C16 C21 C20 -1.6(3)
C17 C18 C19 C20 -1.4(3)
C17 C18 C19 C22 178.5(2)
C18 C19 C20 C21 1.9(3)
C18 C19 C20 C28 179.21(17)
C18 C19 C22 C23 0.8(4)
C18 C19 C22 C27 -179.4(2)
C19 C20 C21 C16 -0.4(3)
C19 C20 C28 C27 0.6(2)
C19 C20 C28 C29 -118.19(18)
C19 C20 C28 C30 119.26(19)
C19 C22 C23 C24 178.15(19)
C19 C22 C27 C26 -177.91(17)
C19 C22 C27 C28 0.0(2)
C20 C19 C22 C23 -179.3(2)
C20 C19 C22 C27 0.5(2)
C21 C16 C17 C18 2.1(3)
C21 C20 C28 C27 177.6(2)
C21 C20 C28 C29 58.8(3)
C21 C20 C28 C30 -63.8(3)
C22 C19 C20 C21 -177.97(18)
C22 C19 C20 C28 -0.7(2)
C22 C23 C24 C25 0.0(3)
C22 C27 C28 C20 -0.3(2)
C22 C27 C28 C29 116.99(18)
C22 C27 C28 C30 -120.14(18)
C23 C22 C27 C26 1.9(3)
C23 C22 C27 C28 179.72(18)
C23 C24 C25 C26 1.3(3)
C23 C24 C25 C31 -177.99(19)
C24 C25 C26 C27 -1.0(3)
C24 C25 C31 C32 37.0(3)
C24 C25 C31 C36 -143.1(2)
C25 C26 C27 C22 -0.5(3)
C25 C26 C27 C28 -177.96(19)
C25 C31 C32 C33 -179.5(2)
C25 C31 C36 C35 179.12(18)
C26 C25 C31 C32 -142.3(2)
C26 C25 C31 C36 37.6(3)
C26 C27 C28 C20 177.3(2)
C26 C27 C28 C29 -65.4(3)
C26 C27 C28 C30 57.5(3)
C27 C22 C23 C24 -1.6(3)
C28 C20 C21 C16 -177.14(19)
C31 C25 C26 C27 178.28(18)
C31 C32 C33 C34 -0.1(3)
C32 C31 C36 C35 -1.0(3)
C32 C33 C34 C35 -0.3(3)
C32 C33 C34 C37 -178.6(2)
C33 C34 C35 C36 -0.1(3)
C33 C34 C35 C43 -178.78(18)
C33 C34 C37 C38 0.0(4)
C33 C34 C37 C42 179.8(2)
C34 C35 C36 C31 0.8(3)
C34 C35 C43 C42 -1.0(2)
C34 C35 C43 C44 -119.84(19)
C34 C35 C43 C45 116.01(19)
C34 C37 C38 C39 -178.2(2)
C34 C37 C42 C41 178.57(19)
C34 C37 C42 C43 -1.9(2)
C35 C34 C37 C38 -178.5(2)
C35 C34 C37 C42 1.3(2)
C36 C31 C32 C33 0.7(3)
C36 C35 C43 C42 -179.5(2)
C36 C35 C43 C44 61.6(3)
C36 C35 C43 C45 -62.5(3)
C37 C34 C35 C36 178.58(17)
C37 C34 C35 C43 -0.1(2)
C37 C38 C39 C40 -0.9(3)
C37 C42 C43 C35 1.8(2)
C37 C42 C43 C44 121.02(19)
C37 C42 C43 C45 -115.70(19)
C38 C37 C42 C41 -1.6(3)
C38 C37 C42 C43 177.84(18)
C38 C39 C40 C41 -0.7(4)
C39 C40 C41 C42 1.1(4)
C40 C41 C42 C37 0.0(3)
C40 C41 C42 C43 -179.4(2)
C41 C42 C43 C35 -178.8(2)
C41 C42 C43 C44 -59.6(3)
C41 C42 C43 C45 63.7(3)
C42 C37 C38 C39 2.1(3)
C43 C35 C36 C31 179.18(19)
loop_
_twin_individual_id
_twin_individual_mass_fraction_refined
1 0.9605(8)
2 0.0395(8)
