#------------------------------------------------------------------------------
#$Date: 2016-04-05 22:23:06 +0300 (Tue, 05 Apr 2016) $
#$Revision: 181782 $
#$URL: svn://www.crystallography.net/cod/cif/7/15/49/7154990.cif $
#------------------------------------------------------------------------------
#
# This file is available in the Crystallography Open Database (COD),
# http://www.crystallography.net/
#
# All data on this site have been placed in the public domain by the
# contributors.
#
data_7154990
loop_
_publ_author_name
'van de Wouw, H. L.'
'Lee, J. Y.'
'Siegler, M. A.'
'Klausen, R. S.'
_publ_section_title
;
 Innocent BN bond substitution in anthracene derivatives.
;
_journal_issue                   12
_journal_name_full               'Organic &amp; biomolecular chemistry'
_journal_page_first              3256
_journal_page_last               3263
_journal_paper_doi               10.1039/c5ob02309b
_journal_volume                  14
_journal_year                    2016
_chemical_formula_moiety         'C20 H14'
_chemical_formula_sum            'C20 H14'
_chemical_formula_weight         254.31
_chemical_name_systematic
;
 ?
;
_space_group_crystal_system      monoclinic
_space_group_IT_number           14
_space_group_name_Hall           '-P 2yn'
_space_group_name_H-M_alt        'P 1 21/n 1'
_symmetry_space_group_name_Hall  '-P 2yn'
_symmetry_space_group_name_H-M   'P 1 21/n 1'
_atom_sites_solution_hydrogens   geom
_atom_sites_solution_primary     direct
_atom_sites_solution_secondary   difmap
_audit_creation_method           SHELXL-2013
_audit_update_record
;
2015-11-05 deposited with the CCDC.
2016-02-23 downloaded from the CCDC.
;
_cell_angle_alpha                90
_cell_angle_beta                 94.099(3)
_cell_angle_gamma                90
_cell_formula_units_Z            4
_cell_length_a                   7.5423(2)
_cell_length_b                   5.9013(2)
_cell_length_c                   28.5913(9)
_cell_measurement_reflns_used    4139
_cell_measurement_temperature    110(2)
_cell_measurement_theta_max      71.70
_cell_measurement_theta_min      6.17
_cell_volume                     1269.33(7)
_computing_cell_refinement
;
CrysAlisPro, Agilent Technologies,
Version 1.171.36.32 (release 02-08-2013 CrysAlis171 .NET)
(compiled Aug  2 2013,16:46:58)
;
_computing_data_collection
;
CrysAlisPro, Agilent Technologies,
Version 1.171.36.32 (release 02-08-2013 CrysAlis171 .NET)
(compiled Aug  2 2013,16:46:58)
;
_computing_data_reduction
;
CrysAlisPro, Agilent Technologies,
Version 1.171.36.32 (release 02-08-2013 CrysAlis171 .NET)
(compiled Aug  2 2013,16:46:58)
;
_computing_molecular_graphics    'SHELXTL v6.10 (Sheldrick, 2008)'
_computing_publication_material  'SHELXTL v6.10 (Sheldrick, 2008)'
_computing_structure_refinement  'SHELXL-2013 (Sheldrick, 2013)'
_computing_structure_solution    'SHELXS-2013 (Sheldrick, 2013)'
_diffrn_ambient_temperature      110(2)
_diffrn_measured_fraction_theta_full 0.999
_diffrn_measured_fraction_theta_max 1.000
_diffrn_measurement_device_type  'SuperNova, Dual, Cu at zero, Atlas'
_diffrn_measurement_method       '\w scans'
_diffrn_radiation_monochromator  mirror
_diffrn_radiation_source         'SuperNova (Cu) X-ray Source'
_diffrn_radiation_type           CuK\a
_diffrn_radiation_wavelength     1.54178
_diffrn_reflns_av_R_equivalents  0.0253
_diffrn_reflns_av_unetI/netI     0.0221
_diffrn_reflns_Laue_measured_fraction_full 0.999
_diffrn_reflns_Laue_measured_fraction_max 1.000
_diffrn_reflns_limit_h_max       9
_diffrn_reflns_limit_h_min       -8
_diffrn_reflns_limit_k_max       7
_diffrn_reflns_limit_k_min       -7
_diffrn_reflns_limit_l_max       34
_diffrn_reflns_limit_l_min       -35
_diffrn_reflns_number            8823
_diffrn_reflns_point_group_measured_fraction_full 0.999
_diffrn_reflns_point_group_measured_fraction_max 1.000
_diffrn_reflns_theta_full        67.679
_diffrn_reflns_theta_max         71.889
_diffrn_reflns_theta_min         3.099
_exptl_absorpt_coefficient_mu    0.569
_exptl_absorpt_correction_T_max  0.988
_exptl_absorpt_correction_T_min  0.855
_exptl_absorpt_correction_type   analytical
_exptl_absorpt_process_details
;
CrysAlisPro, Agilent Technologies,
Version 1.171.36.32 (release 02-08-2013 CrysAlis171 .NET)
(compiled Aug  2 2013,16:46:58)
Analytical numeric absorption correction using a multifaceted crystal
            model based on expressions derived by R.C. Clark & J.S. Reid.
(Clark, R. C. & Reid, J. S. (1995). Acta Cryst. A51, 887-897)
;
_exptl_crystal_colour            colorless
_exptl_crystal_density_diffrn    1.331
_exptl_crystal_description       plate
_exptl_crystal_F_000             536
_exptl_crystal_size_max          0.39
_exptl_crystal_size_mid          0.30
_exptl_crystal_size_min          0.02
_refine_diff_density_max         0.291
_refine_diff_density_min         -0.202
_refine_diff_density_rms         0.048
_refine_ls_extinction_method     none
_refine_ls_goodness_of_fit_ref   1.160
_refine_ls_hydrogen_treatment    constr
_refine_ls_matrix_type           full
_refine_ls_number_parameters     362
_refine_ls_number_reflns         2491
_refine_ls_number_restraints     829
_refine_ls_restrained_S_all      1.000
_refine_ls_R_factor_all          0.0653
_refine_ls_R_factor_gt           0.0616
_refine_ls_shift/su_max          0.000
_refine_ls_shift/su_mean         0.000
_refine_ls_structure_factor_coef Fsqd
_refine_ls_weighting_details
;
 w=1/[\s^2^(Fo^2^)+(0.0433P)^2^+1.3779P]
 where P=(Fo^2^+2Fc^2^)/3
;
_refine_ls_weighting_scheme      calc
_refine_ls_wR_factor_gt          0.1499
_refine_ls_wR_factor_ref         0.1518
_reflns_Friedel_coverage         0.000
_reflns_number_gt                2298
_reflns_number_total             2491
_reflns_threshold_expression     'I > 2\s(I)'
_cod_data_source_file            c5ob02309b2.cif
_cod_data_source_block           8a
_cod_depositor_comments
'Adding full bibliography for 7154985--7154990.cif.'
_cod_database_code               7154990
_shelx_space_group_comment
;
The symmetry employed for this shelxl refinement is uniquely defined
by the following loop, which should always be used as a source of
symmetry information in preference to the above space-group names.
They are only intended as comments.
;
_shelxl_version_number           2013-2
_shelx_res_file
;
TITL xs0356a in P2(1)/n
CELL 1.54178   7.5423   5.9013  28.5913  90.000  94.099  90.000
ZERR    4.00   0.0002   0.0002   0.0009   0.000   0.003   0.000
LATT  1
SYMM 0.5-X, 0.5+Y, 0.5-Z
SFAC C H
UNIT 80 56

TEMP -163

ACTA
HTAB
BOND
BOND $H
CONF
WPDB

L.S. 6
FMAP 2
PLAN 10
OMIT -2 143.8

rem restraints
SIMU 0.01 C1 > C20'

WGHT    0.043300    1.377900
FVAR       7.32886   0.87279
PART 1
C1    1    0.987571    0.441785    0.280514    21.00000    0.01736    0.01718 =
         0.02752    0.00135    0.00045    0.00008
C2    1    0.965373    0.592695    0.317180    21.00000    0.01823    0.01721 =
         0.02833    0.00087   -0.00042    0.00259
AFIX  43
H2    2    0.903665    0.730904    0.310855    21.00000   -1.20000
AFIX   0
C3    1    1.031801    0.545248    0.362980    21.00000    0.01991    0.01733 =
         0.02684   -0.00246    0.00132    0.00108
C4    1    1.011828    0.699809    0.400897    21.00000    0.02258    0.02306 =
         0.02626   -0.00234   -0.00089    0.00067
AFIX  43
H4    2    0.950800    0.838954    0.395126    21.00000   -1.20000
AFIX   0
C5    1    1.079315    0.649436    0.445067    21.00000    0.02487    0.02717 =
         0.02707   -0.00334   -0.00119   -0.00055
AFIX  43
H5    2    1.064196    0.753180    0.469875    21.00000   -1.20000
AFIX   0
C6    1    1.172250    0.442993    0.454443    21.00000    0.02805    0.02992 =
         0.02682    0.00260   -0.00312    0.00079
AFIX  43
H6    2    1.219588    0.410408    0.485397    21.00000   -1.20000
AFIX   0
C7    1    1.193948    0.291195    0.419262    21.00000    0.02460    0.02708 =
         0.02748    0.00235   -0.00241    0.00099
AFIX  43
H7    2    1.256531    0.153958    0.425964    21.00000   -1.20000
AFIX   0
C8    1    1.123725    0.336431    0.372602    21.00000    0.01775    0.02135 =
         0.02691    0.00380   -0.00114    0.00080
C9    1    1.141370    0.181414    0.336237    21.00000    0.01895    0.01767 =
         0.03227    0.00303    0.00191    0.00208
AFIX  43
H9    2    1.199454    0.040903    0.342749    21.00000   -1.20000
AFIX   0
C10   1    1.075010    0.229924    0.290561    21.00000    0.01765    0.01580 =
         0.03088    0.00175    0.00276   -0.00008
C11   1    1.094711    0.077668    0.252704    21.00000    0.02103    0.01395 =
         0.03379    0.00218    0.00405   -0.00028
AFIX  43
H11   2    1.144101   -0.068247    0.258936    21.00000   -1.20000
AFIX   0
C12   1    1.044013    0.137273    0.207627    21.00000    0.02158    0.01532 =
         0.03100   -0.00164    0.00361   -0.00109
AFIX  43
H12   2    1.062153    0.033152    0.183082    21.00000   -1.20000
AFIX   0
C13   1    0.963634    0.353913    0.196163    21.00000    0.01573    0.01882 =
         0.02801   -0.00016    0.00030   -0.00106
C14   1    0.933767    0.496484    0.233017    21.00000    0.01826    0.01527 =
         0.02981   -0.00133   -0.00071    0.00073
AFIX  43
H14   2    0.875064    0.636589    0.226507    21.00000   -1.20000
AFIX   0
C15   1    0.922298    0.418376    0.146189    21.00000    0.01721    0.01883 =
         0.02861   -0.00210   -0.00088   -0.00293
C16   1    0.974068    0.281726    0.109512    21.00000    0.02478    0.02485 =
         0.02742   -0.00209   -0.00133    0.00093
AFIX  43
H16   2    1.036494    0.144871    0.116715    21.00000   -1.20000
AFIX   0
C17   1    0.936411    0.341321    0.062865    21.00000    0.02832    0.03106 =
         0.02727   -0.00455   -0.00043    0.00060
AFIX  43
H17   2    0.971962    0.244691    0.038661    21.00000   -1.20000
AFIX   0
C18   1    0.846910    0.541816    0.051495    21.00000    0.02687    0.03095 =
         0.02570    0.00130   -0.00050   -0.00196
AFIX  43
H18   2    0.820572    0.582472    0.019605    21.00000   -1.20000
AFIX   0
C19   1    0.796398    0.681965    0.087082    21.00000    0.02487    0.02700 =
         0.02818    0.00339   -0.00001    0.00161
AFIX  43
H19   2    0.736611    0.820336    0.079561    21.00000   -1.20000
AFIX   0
C20   1    0.832911    0.620833    0.133855    21.00000    0.02471    0.02356 =
         0.02541   -0.00039    0.00005   -0.00030
AFIX  43
H20   2    0.796620    0.718033    0.157876    21.00000   -1.20000
AFIX   0

PART 2
SAME C1 > C20
C1'   1    0.949072    0.434039    0.227173   -21.00000    0.01996    0.01532 =
         0.03109    0.00124    0.00103   -0.00081
C2'   1    0.884146    0.587026    0.193790   -21.00000    0.01886    0.02037 =
         0.02981    0.00405    0.00203   -0.00318
AFIX  43
H2'   2    0.838230    0.728580    0.203144   -21.00000   -1.20000
AFIX   0
C3'   1    0.885811    0.534160    0.146286   -21.00000    0.01992    0.02214 =
         0.02639    0.00251    0.00055    0.00033
C4'   1    0.818918    0.690771    0.111274   -21.00000    0.02264    0.02562 =
         0.02139    0.00274    0.00296   -0.00042
AFIX  43
H4'   2    0.770895    0.830927    0.120737   -21.00000   -1.20000
AFIX   0
C5'   1    0.822110    0.644809    0.064918   -21.00000    0.02727    0.02716 =
         0.02672   -0.00166    0.00105    0.00027
AFIX  43
H5'   2    0.779563    0.752451    0.042091   -21.00000   -1.20000
AFIX   0
C6'   1    0.890170    0.432959    0.051113   -21.00000    0.02638    0.02728 =
         0.02666   -0.00031   -0.00167    0.00221
AFIX  43
H6'   2    0.888386    0.395621    0.018762   -21.00000   -1.20000
AFIX   0
C7'   1    0.957822    0.283065    0.083675   -21.00000    0.02598    0.02737 =
         0.02694    0.00059    0.00032    0.00237
AFIX  43
H7'   2    1.008194    0.145658    0.073490   -21.00000   -1.20000
AFIX   0
C8'   1    0.955578    0.325274    0.132290   -21.00000    0.02217    0.02311 =
         0.02438   -0.00217    0.00044    0.00003
C9'   1    1.023507    0.170185    0.165858   -21.00000    0.02299    0.02251 =
         0.02934   -0.00201    0.00226   -0.00224
AFIX  43
H9'   2    1.071471    0.029848    0.156480   -21.00000   -1.20000
AFIX   0
C10'  1    1.020146    0.223306    0.212963   -21.00000    0.01830    0.01708 =
         0.03203   -0.00494    0.00156   -0.00031
C11'  1    1.101451    0.080821    0.248573   -21.00000    0.01934    0.01658 =
         0.03223   -0.00412    0.00516    0.00035
AFIX  43
H11'  2    1.155165   -0.056536    0.239561   -21.00000   -1.20000
AFIX   0
C12'  1    1.105286    0.133838    0.295222   -21.00000    0.02031    0.02028 =
         0.03547    0.00250    0.00592    0.00056
AFIX  43
H12'  2    1.147063    0.025242    0.317936   -21.00000   -1.20000
AFIX   0
C13'  1    1.046485    0.353141    0.310268   -21.00000    0.02102    0.01962 =
         0.03444    0.00150    0.00089    0.00168
C14'  1    0.967377    0.487154    0.275637   -21.00000    0.01886    0.01569 =
         0.03426    0.00433    0.00185    0.00183
AFIX  43
H14'  2    0.920601    0.628317    0.284934   -21.00000   -1.20000
AFIX   0
C15'  1    1.076289    0.423822    0.360814   -21.00000    0.02031    0.01810 =
         0.02700    0.00166   -0.00079    0.00192
C16'  1    1.177806    0.294639    0.392117   -21.00000    0.02173    0.02000 =
         0.02601    0.00055   -0.00294    0.00317
AFIX  43
H16'  2    1.233614    0.162515    0.381140   -21.00000   -1.20000
AFIX   0
C17'  1    1.202048    0.349104    0.438944   -21.00000    0.02471    0.02405 =
         0.02660    0.00013   -0.00315    0.00550
AFIX  43
H17'  2    1.266055    0.249628    0.460121   -21.00000   -1.20000
AFIX   0
C18'  1    1.133282    0.548042    0.454966   -21.00000    0.02542    0.02351 =
         0.02485   -0.00134   -0.00159    0.00131
AFIX  43
H18'  2    1.158055    0.593622    0.486626   -21.00000   -1.20000
AFIX   0
C19'  1    1.028505    0.679866    0.424691   -21.00000    0.02637    0.02033 =
         0.02571   -0.00247   -0.00346    0.00391
AFIX  43
H19'  2    0.973085    0.811739    0.435915   -21.00000   -1.20000
AFIX   0
C20'  1    1.003356    0.621132    0.377816   -21.00000    0.02124    0.01726 =
         0.02471    0.00028   -0.00014    0.00252
AFIX  43
H20'  2    0.935020    0.717394    0.356881   -21.00000   -1.20000

AFIX   0
HKLF 4

REM  xs0356a in P2(1)/n
REM R1 =  0.0616 for    2298 Fo > 4sig(Fo)  and  0.0653 for all    2491 data
REM    362 parameters refined using    829 restraints

END

WGHT      0.0390      1.4072

REM No hydrogen bonds found for HTAB generation

REM Highest difference peak  0.291,  deepest hole -0.202,  1-sigma level  0.048
Q1    1   0.8598  0.8191  0.1644  11.00000  0.05    0.29
Q2    1   0.9307  0.8454  0.2961  11.00000  0.05    0.26
Q3    1   0.9027  0.7701  0.2146  11.00000  0.05    0.25
Q4    1   0.8918 -0.0648  0.2518  11.00000  0.05    0.24
Q5    1   1.0385  0.5044  0.2665  11.00000  0.05    0.19
Q6    1   1.0165  0.5449  0.2244  11.00000  0.05    0.18
Q7    1   1.0163  0.7789  0.2913  11.00000  0.05    0.16
Q8    1   0.9498  0.7324  0.5074  11.00000  0.05    0.15
Q9    1   0.9431  0.3850  0.1685  11.00000  0.05    0.14
Q10   1   1.0620 -0.2545  0.1738  11.00000  0.05    0.14
;
_shelx_res_checksum              74211
_shelx_hkl_file
;
   0   0   2 148306. 2062.81   2
   0   0   3 72.9295 25.1094   2
   0   0   4 127001. 1859.19  22
   0   0   4 126796. 1901.02   2
   0   0   5-5.79733 36.9947  22
   0   0   5 48.9246 44.1656   2
   0   0   6 206830. 3021.27  22
   0   0   6 206992. 3074.75   2
   0   0   7 13.7959 76.0660   2
   0   0   7 30.1230 52.3478  22
   0   0   8 44104.2 934.996  22
   0   0   8 44026.0 988.639   2
   0   0   8 44683.9 832.036   3
   0   0  -8 46237.0 1094.20  20
   0   0  -9 130.151 85.0435  20
   0   0   9 32.5820 59.0373  22
   0   0   9 31.4650 54.5590   2
   0   0   9 66.9337 39.3464   3
   0   0  10 30694.4 688.773   3
   0   0  10 30759.8 808.634  22
   0   0  10 31224.6 847.781   2
   0   0 -10 30993.2 961.296  20
   0   0  11 7.53201 67.8289   2
   0   0  11 12.8237 56.6131  22
   0   0 -11-28.8165 82.6719  20
   0   0  11 29.4913 38.5835   3
   0   0 -12 89746.6 2019.95  20
   0   0  12 91112.5 1778.64  22
   0   0  12 88559.7 1572.28   3
   0   0  12 89535.6 1842.73   2
   0   0  13 26.9979 67.3498   2
   0   0  13 218.579 94.3545  22
   0   0 -13 81.9869 95.6838  20
   0   0  13 126.920 62.7444   3
   0   0 -14 28949.3 1121.29  20
   0   0  14 29169.3 764.580   3
   0   0  14 29480.3 980.447   2
   0   0  14 29884.6 939.550  22
   0   0  15 179.178 108.263   2
   0   0 -15 117.000 133.068  20
   0   0  15 107.087 86.8618  22
   0   0  16 7271.58 493.212  22
   0   0 -16 8083.10 625.645  20
   0   0  16 7326.89 513.183   2
   0   0 -17-22.9495 94.5073  20
   0   0  17 38.5705 89.1615  22
   0   0  17 42.4030 89.6301   2
   0   0  18 146.953 96.5110  22
   0   0  18 307.523 155.483   2
   0   0 -18 187.922 123.632  20
   0   0  19-32.3455 95.6779   2
   0   0  19 180.166 122.463  22
   0   0 -19 27.0057 116.622  20
   0   0  20 17009.0 940.368   2
   0   0  20 18160.0 908.479  22
   0   0 -20 17283.5 1114.45  20
   0   0  21 120.523 105.293   2
   0   0 -21 113.541 165.248  20
   0   0 -22 9171.97 850.108  20
   0   0  22 8982.38 371.797   7
   0   0  22 8883.35 687.421   2
   0   0  23 102.759 54.1600  13
   0   0 -23 223.993 181.118   1
   0   0  23 190.818 84.1757   7
   0   0 -23-66.4924 167.171  20
   0   0 -24 1982.74 377.545   1
   0   0  24 2041.94 185.434   7
   0   0  24 1988.87 173.108  13
   0   0 -24 1378.52 327.428  20
   0   0  25 317.195 89.3094   7
   0   0  25 287.795 94.0862  13
   0   0  26 13768.8 515.391   7
   0   0  26 13931.1 476.619  13
   0   0  27 4.50360 59.4299  13
   0   0  27-61.2313 73.1558   7
   0   0  28 726.540 110.825  13
   0   0  28 513.954 106.672   7
   0   0  29 77.4282 49.2178  13
   0   0  29-61.8124 75.7137   7
   0   0  30 1004.69 134.863   7
   0   0  30 1066.69 120.651  13
   0   0  31 65.2335 46.4929  13
   0   0  31-9.89979 56.0290   7
   0   0  32 2175.39 174.257   7
   0   0  32 2233.35 147.083  13
   0   0  33 21.8071 36.4442  13
   0   0  34 1188.35 82.9173  13
   0   0 -35 1.49974 30.7522   4
   0  -1   0-6.81112 28.8606   1
   0  -1   0-41.5124 30.7843  19
   0  -1   0 43.2634 70.6154  18
   0   1   0-8.12997 28.8455  22
   0   1   1 172.396 45.9399  22
   0  -1   1 158.701 63.0839  18
   0  -1  -1 191.522 80.4933  18
   0  -1  -1 136.501 32.3053  19
   0  -1  -1 155.843 41.9655   1
   0  -1   1 91.1945 31.4739   1
   0   1  -1 163.861 37.7458   3
   0   1  -1 176.872 29.5143  22
   0  -1   1 193.603 46.8939  19
   0   1  -2 194.947 37.2425   3
   0   1  -2 172.283 19.9238  22
   0  -1  -2 189.036 31.0620  19
   0  -1   2 227.929 35.5687   1
   0  -1   2 178.011 76.7335  18
   0   1   2 189.005 45.2142  22
   0   1  -2 252.708 56.2135  21
   0  -1  -2 162.613 63.2286  18
   0   1  -3 172.910 35.9406   3
   0   1   3 163.314 65.0516  22
   0   1   3 190.486 69.6023  21
   0   1  -3 158.144 58.4472  21
   0  -1  -3 204.724 70.8925  18
   0  -1  -3 216.276 43.1419  19
   0  -1   3 151.818 75.8778  18
   0   1   4 871.291 107.140  21
   0  -1  -4 945.702 119.040  18
   0  -1   4 954.214 132.574  18
   0   1  -4 947.257 106.608  21
   0   1  -4 708.658 50.9740   3
   0  -1  -5 4984.73 276.879  18
   0   1   5 5024.58 255.636  21
   0  -1   5 4413.81 277.502   2
   0   1  -5 4600.09 232.391  21
   0  -1   5 4808.93 296.385  18
   0   1   5 4414.41 208.439   2
   0   1   6 8729.51 345.228  21
   0   1  -6 9417.28 442.342  20
   0   1   6 8803.23 317.291   2
   0  -1   6 9412.43 406.911   2
   0  -1   6 9488.73 435.500  18
   0   1  -6 9361.06 333.403  21
   0   1   7 1564.63 151.401  21
   0  -1   7 1570.01 191.296  18
   0   1  -7 1646.40 135.569  21
   0  -1  -7 1629.22 206.796  20
   0   1  -7 1583.38 196.254  20
   0   1   7 1592.56 149.119   2
   0   1   7 1472.58 168.716  22
   0  -1   7 1647.66 198.614   2
   0  -1  -8 372.108 119.908  20
   0  -1   8 318.520 54.0473  22
   0   1   8 485.571 92.4878   2
   0   1  -8 316.299 112.532  20
   0   1  -8 454.544 77.2689  21
   0  -1   8 438.541 110.753   2
   0   1   8 320.883 75.4375  21
   0   1   8 448.554 112.096  22
   0  -1   8 459.835 124.246  18
   0  -1   9 3762.05 318.281  18
   0   1   9 3516.08 274.661  22
   0  -1  -9 3286.71 326.398  20
   0   1   9 3845.88 265.854   3
   0  -1   9 3744.49 189.745  22
   0  -1   9 3760.94 312.449   2
   0   1   9 3477.31 216.210  21
   0   1  -9 3540.73 194.557  21
   0   1  -9 3441.40 314.916  20
   0   1   9 3472.76 238.596   2
   0  -1 -10 399.640 150.926  20
   0   1  10 212.049 74.5186   2
   0   1  10 372.614 98.8623   3
   0   1  10 275.017 99.3999  22
   0  -1  10 266.974 113.827  18
   0  -1  10 324.688 67.4242  22
   0   1  10 265.974 68.0067  21
   0   1 -10 432.438 140.089  20
   0  -1  10 308.023 102.988   2
   0   1 -10 356.813 67.7340  21
   0  -1  11 1529.35 231.544   2
   0   1  11 1224.39 131.647  21
   0  -1  11 1243.87 207.561  18
   0   1 -11 1057.65 214.458  20
   0   1 -11 1284.48 107.932  21
   0   1  11 1422.57 185.090   3
   0   1  11 1403.76 173.773   2
   0  -1  11 1185.91 126.602  22
   0  -1 -11 1331.22 240.205  20
   0   1  11 1297.58 194.368  22
   0   1 -12 33223.8 1145.06  20
   0  -1  12 35128.4 1155.02  18
   0  -1  12 34433.1 1097.78   2
   0   1  12 33998.5 930.815   2
   0  -1 -12 32916.5 1204.17  20
   0  -1  12 34975.7 830.436  22
   0   1  12 34045.5 976.599   3
   0   1  12 32805.0 1030.48  22
   0   1  12 33010.2 764.226  21
   0   1  13 39855.7 1082.46   2
   0  -1  13 39808.7 1303.57  18
   0   1 -13 38699.0 1330.54  20
   0  -1  13 37768.7 1222.56   2
   0  -1  13 41219.2 971.004  22
   0   1  13 41205.0 1216.16  22
   0   1  13 40298.6 1130.63   3
   0  -1 -13 39936.3 1415.12  20
   0   1  14 36200.8 1054.31   2
   0   1  14 35599.1 1159.87  22
   0  -1  14 34697.7 1193.95   2
   0   1  14 35591.5 1054.62   3
   0  -1  14 35585.7 1241.78  18
   0   1 -14 37171.0 1309.10  20
   0  -1 -14 35517.6 1339.45  20
   0   1  15 1958.99 258.577   3
   0  -1 -15 2264.05 357.662  20
   0   1 -15 2278.63 338.610  20
   0  -1  15 2138.74 302.644   2
   0   1  15 2316.54 298.653  22
   0  -1  15 2250.24 319.547  18
   0   1  15 2202.94 259.960   2
   0   1  16 15201.3 699.826   2
   0   1  16 14118.1 668.268   3
   0  -1  16 14346.8 822.717  18
   0   1 -16 15121.5 882.337  20
   0  -1  16 15118.1 810.423   2
   0   1  16 15473.1 794.053  22
   0  -1 -16 15292.3 920.704  20
   0   1  17 267.829 162.641  22
   0  -1  17 497.549 189.786   2
   0  -1 -17 395.425 182.898  20
   0   1  17 461.027 153.560   3
   0  -1  17 99.5463 96.6764  18
   0   1  17 334.445 133.076   2
   0   1 -17 466.586 218.660  20
   0   1  18 790.083 198.145   3
   0  -1 -18 1359.99 312.281  20
   0   1  18 882.175 221.925  22
   0   1 -18 1306.05 282.691  20
   0   1  18 1121.69 222.189   2
   0  -1  18 1301.30 264.893   2
   0  -1  18 1200.93 278.861  18
   0   1  19 415.937 163.432   2
   0  -1 -19 241.313 191.998  20
   0   1 -19 417.430 204.874  20
   0  -1  19 605.094 221.393  18
   0   1  19 473.414 185.470  22
   0   1  20 3497.21 399.042   2
   0   1  20 3575.39 428.002  22
   0  -1 -20 3576.05 511.151  20
   0  -1  20 3426.76 427.650  18
   0   1 -20 3301.18 497.646  20
   0  -1 -21 4457.99 611.383  20
   0  -1 -21 3981.06 550.161   1
   0   1 -21 4939.36 618.510  20
   0   1  21 4221.53 502.446  22
   0   1  22 54292.6 1933.92  22
   0  -1  22 55379.6 1138.55   7
   0   1  22 55759.3 1146.50   7
   0  -1 -22 58495.6 2174.85   1
   0   1  22 54691.1 1114.31  13
   0  -1 -22 56371.5 2222.20  20
   0   1 -22 58951.1 1123.95  23
   0   1 -22 58329.0 2214.90  20
   0   1  23 30386.6 782.138   7
   0   1 -23 31281.1 752.912  23
   0   1  23 28928.8 1384.55  22
   0  -1 -23 30914.2 1637.00  20
   0  -1  23 30817.4 789.057   7
   0  -1 -23 30072.8 1574.96   1
   0   1  23 29756.6 766.846  13
   0   1 -23 32167.1 1634.21  20
   0   1  24 1280.09 147.623  13
   0   1  24 1105.90 148.137   7
   0   1 -24 1121.19 127.258  23
   0  -1  24 1037.21 147.270   7
   0  -1  25 3727.96 261.733   7
   0   1  25 3586.92 253.768   7
   0   1 -25 3635.16 234.794  23
   0   1  25 4174.64 253.382  13
   0   1  26 22272.2 634.201  13
   0  -1  26 21520.1 655.366   7
   0   1 -26 22613.8 622.274  23
   0   1  26 21025.6 644.863   7
   0   1  27 2904.28 231.677   7
   0   1 -27 2733.46 199.546  23
   0   1  27 2819.16 219.717  13
   0  -1  27 2733.47 230.629   7
   0  -1  28 1322.68 167.098   7
   0   1  28 1287.16 146.469  13
   0   1  28 1143.13 146.893   7
   0   1  29 120.430 75.7536   7
   0  -1  29 53.1008 67.2775   7
   0   1  29 107.768 64.2289  13
   0  -1  30 191.530 75.2262   7
   0   1  30 252.999 70.4039  13
   0   1  30 114.075 62.3724   7
   0   1  31 132.514 61.3625  13
   0  -1  31 174.324 70.9201   7
   0   1  32 1.51049 44.6586  13
   0  -1 -32-22.7030 47.1136   4
   0  -1 -33 61.3966 45.0591   4
   0   1  33 18.8316 37.8288  13
   0   1  34 92.3090 41.6770  13
   0  -1 -34 113.686 41.2199   4
   0   2   0 15472.8 528.660   3
   0  -2   0 15021.6 435.962   1
   0   2   0 15237.9 442.853  22
   0   2   0 14931.4 603.915  21
   0  -2   0 15440.4 648.770  18
   0  -2   1 53780.7 1367.75  18
   0   2  -1 53051.6 1279.08  21
   0  -2  -1 53589.4 1068.50   1
   0  -2  -1 54960.6 1343.45  18
   0   2  -1 53422.8 968.931  22
   0   2   1 55605.8 1074.21  22
   0  -2   1 49701.3 947.319   1
   0   2   1 54311.0 1173.63   3
   0   2   1 56026.0 1301.50  21
   0   2  -1 51729.5 1113.74   3
   0  -2  -2 46635.8 791.367  19
   0   2  -2 48473.1 996.079   3
   0   2   2 48344.5 1032.05  22
   0  -2  -2 49075.1 1240.60  18
   0  -2  -2 49703.3 1047.83   1
   0   2  -2 48004.6 1180.71  21
   0   2   2 47888.9 1107.28   3
   0  -2   2 45890.2 816.801   1
   0   2   2 48447.4 1196.54  21
   0   2  -2 48730.6 837.802  22
   0  -2   2 48709.1 1269.49  18
   0   2  -3 2882.70 195.600   3
   0  -2  -3 2774.45 117.119  19
   0   2   3 3224.43 268.114   3
   0   2   3 3344.79 294.497  21
   0   2   3 3244.59 240.045  22
   0  -2  -3 2798.99 265.371  18
   0   2  -3 2964.99 268.034  21
   0  -2  -3 3038.33 238.444   1
   0  -2   3 2713.77 298.927  18
   0   2   4 155998. 2670.34   3
   0   2   4 153794. 2722.07  21
   0  -2   4 154243. 2837.55  18
   0   2  -4 149515. 2665.66  21
   0  -2  -4 154958. 2605.34   1
   0  -2  -4 146415. 2154.91  19
   0   2  -4 152933. 2337.00   3
   0  -2  -4 155519. 2744.35  18
   0   2   4 155781. 2582.62  22
   0  -2  -5 305.085 110.092   1
   0   2  -5 326.913 119.204  21
   0   2   5 522.473 131.361  22
   0  -2   5 332.621 131.453  18
   0   2   5 576.233 130.279   3
   0  -2  -5 471.702 131.906  18
   0   2   5 439.289 145.320  21
   0  -2  -5 426.014 60.6838  19
   0   2  -5 463.451 74.4888   3
   0   2   6 22123.0 766.347  21
   0   2  -6 20203.2 461.472   3
   0   2   6 20487.7 744.400   3
   0  -2  -6 20832.9 763.826  18
   0  -2   6 21092.2 844.628  18
   0  -2  -6 20785.8 491.102  19
   0   2  -6 21998.7 737.988  21
   0   2   6 20607.6 721.644  22
   0   2  -6 21355.4 838.063  20
   0  -2  -6 20616.9 749.349   1
   0   2   7 574.438 103.798   2
   0   2   7 441.084 126.118   3
   0   2  -7 590.228 126.030  21
   0   2   7 519.147 131.209  22
   0  -2  -7 427.965 140.109  18
   0   2   7 621.973 147.861  21
   0  -2  -7 494.468 80.1757  19
   0  -2   7 554.879 163.235  18
   0  -2  -7 471.131 137.352   1
   0   2  -7 518.043 135.642  20
   0  -2   8 31452.0 1080.37  18
   0  -2  -8 29656.2 975.951  18
   0  -2  -8 28447.2 986.141   1
   0   2  -8 31135.0 905.874  21
   0  -2  -8 29158.1 713.498  19
   0   2   8 29570.9 748.146   2
   0   2   8 28673.0 934.271  22
   0   2   8 28936.7 940.072   3
   0   2   8 29456.6 921.544  21
   0   2  -8 31116.2 1078.83  20
   0   2   9 672.151 164.828  21
   0  -2   9 694.049 201.549  18
   0   2   9 747.775 118.504   2
   0  -2  -9 698.452 184.699   1
   0   2   9 860.043 175.766   3
   0   2  -9 925.440 224.137  20
   0   2   9 847.069 176.145  22
   0  -2  -9 603.558 100.803  19
   0   2  -9 889.979 171.779  21
   0   2  10 209269. 3744.27  22
   0  -2  10 214128. 3932.18  18
   0   2 -10 219425. 3536.54  21
   0   2  10 213061. 3727.94   3
   0  -2 -10 211175. 3369.04  19
   0   2  10 212142. 3586.98  21
   0   2 -10 213745. 3968.64  20
   0   2  10 210362. 3341.93   2
   0   2  11 6362.61 365.389   2
   0   2 -11 5915.67 508.948  20
   0   2  11 6036.72 408.801  21
   0   2 -11 5370.81 361.472  21
   0   2  11 6263.58 476.091   3
   0  -2 -11 6098.84 368.931  19
   0   2  11 6244.97 483.686  22
   0  -2  11 5324.37 481.812  18
   0   2  12 7780.76 457.197  21
   0   2  12 7308.17 514.292   3
   0   2 -12 7175.19 577.400  20
   0  -2  12 7251.39 565.865  18
   0   2  12 8084.61 551.607  22
   0   2  12 7591.43 404.914   2
   0   2  13 12916.7 716.382   3
   0   2 -13 11718.2 768.413  20
   0   2  13 11840.1 535.741   2
   0  -2 -13 12218.7 785.405   1
   0   2  13 12843.4 725.292  22
   0   2  13 12207.5 582.649  21
   0  -2  13 12285.0 763.718  18
   0  -2 -14 126.483 139.814   1
   0   2  14 476.708 185.846  22
   0   2 -14 115.272 150.243  20
   0   2  14 319.395 136.025   3
   0  -2  14 146.118 105.421  18
   0   2 -15 1718.81 328.841  20
   0  -2  15 1728.18 314.235  18
   0   2  15 1750.81 275.646   3
   0  -2 -15 1887.52 337.914   1
   0   2  15 1791.67 300.114  22
   0  -2  16 7324.91 635.199  18
   0  -2 -16 7580.87 675.032   1
   0   2 -16 7518.69 693.630  20
   0   2  16 8591.10 608.515   3
   0   2  16 7897.81 641.599  22
   0   2  17 256.394 164.462  22
   0  -2  17 21.2625 123.956  18
   0  -2 -17 91.6489 138.447   1
   0   2 -17 205.424 176.833  20
   0   2  17 121.306 108.215   3
   0   2  18 186.658 160.501  22
   0  -2  18 265.171 152.503  18
   0  -2 -18 63.7552 124.901   1
   0   2  18 28.4611 107.647   3
   0   2 -18 227.003 91.1857  20
   0  -2  19 2000.21 348.362  18
   0   2 -19 2189.06 408.688  20
   0  -2 -19 2341.76 440.787   1
   0   2  19 2452.33 370.286   3
   0   2  19 2123.08 370.274  22
   0   2  20 613.429 92.3486   8
   0  -2 -20 448.172 228.740   1
   0   2 -20 604.304 208.407  20
   0   2  20 651.735 232.452  22
   0   2  20 757.989 104.548  13
   0   2  20 446.045 126.785   3
   0  -2 -21 61.0252 108.830   1
   0   2  21 163.711 53.1601   8
   0   2  21 184.444 60.3489  13
   0  -2  21 202.191 66.8376   7
   0   2  21 263.073 180.836  22
   0   2 -21 4.32441 154.968  20
   0   2  21 281.358 79.4666   7
   0   2  22 31948.2 787.867  13
   0  -2 -22 30127.8 1627.16   1
   0   2  22 32281.5 729.989   8
   0   2  22 31295.0 776.295   7
   0  -2  22 34225.6 789.608   7
   0   2  22 32328.0 1529.72  22
   0   2  23 399.814 94.1328   8
   0   2  23 406.230 101.949  13
   0   2  23 315.812 108.141   7
   0  -2  23 522.000 105.729   7
   0  -2  24 6176.74 311.231   7
   0   2  24 6365.87 293.489   8
   0   2 -24 6915.15 325.806  23
   0   2  24 6514.84 323.869   7
   0   2  24 6783.73 330.079  13
   0   2  25 21029.4 565.065   8
   0   2 -25 20879.8 617.469  23
   0   2  25 22200.5 640.531  13
   0  -2  25 21769.7 634.451   7
   0   2  25 20320.4 622.427   7
   0   2  26 694.276 111.960   8
   0   2 -26 631.250 123.775  23
   0   2  26 506.517 110.046   7
   0  -2  26 613.751 125.765   7
   0   2  26 667.120 126.905  13
   0  -2 -27 4515.44 286.078   4
   0   2  27 4740.63 226.924   8
   0   2 -27 3956.92 237.470  23
   0   2  27 4351.70 261.216   7
   0   2  27 4896.68 273.234  13
   0  -2  27 4379.99 260.212   7
   0   2  28 177.867 82.5250  13
   0   2 -28 81.7446 56.1139  23
   0  -2 -28 209.642 77.9564   4
   0  -2  28 125.794 71.3498   7
   0  -2 -29 202.805 71.1572   4
   0  -2  29 206.382 78.0863   7
   0   2  29 126.128 69.2681  13
   0   2 -29 138.774 56.8077  23
   0  -2  30 1762.75 145.278   7
   0   2  30 2205.03 164.078  13
   0  -2 -30 2036.62 169.361   4
   0   2  31 200.680 64.4422  13
   0  -2 -31 227.003 66.3104   4
   0   2  32 287.706 60.6395  13
   0  -2 -32 409.944 70.9943   4
   0  -2 -33 581.957 72.2950   4
   0   2  33 486.024 70.0754  13
   0   3   0-7.97584 63.2774   3
   0  -3   0-52.1995 112.332  18
   0   3   0-51.9559 92.9975  21
   0   3   0-26.8203 53.5031  22
   0   3   1 739.647 129.064  22
   0   3   1 567.181 154.477   3
   0   3  -1 499.066 176.485  21
   0   3   1 639.845 177.994  21
   0  -3  -1 612.066 171.811  18
   0  -3   1 834.771 206.329  18
   0   3  -1 733.936 152.006   3
   0   3  -2 6557.75 397.103   3
   0   3   2 6013.58 358.857  22
   0   3  -2 6594.13 496.502  21
   0  -3  -2 6131.21 488.372  18
   0   3   2 6342.45 501.291  21
   0  -3   2 6773.59 537.771  18
   0   3   2 6018.34 422.416   3
   0   3   3 12920.2 730.836  21
   0   3   3 12743.4 578.272  22
   0  -3  -3 13376.0 742.709  18
   0  -3   3 13525.0 777.869  18
   0   3   3 12967.5 651.258   3
   0   3  -3 12361.3 532.076   3
   0   3  -3 13196.4 710.382  21
   0  -3  -4 46699.9 1250.99   1
   0   3   4 45969.5 1254.01  22
   0  -3   4 48722.5 1589.41  18
   0   3  -4 50089.4 1469.59  21
   0   3   4 49748.2 1404.85   3
   0  -3  -4 48315.6 1477.92  18
   0   3  -4 47953.4 1145.25   3
   0   3   4 48581.5 1505.70  21
   0   3   5 1221.32 253.988  21
   0   3  -5 1237.02 230.116  21
   0  -3  -5 1271.44 258.820  18
   0   3   5 1548.44 222.335  22
   0   3   5 1590.04 250.074   3
   0  -3   5 1574.70 271.599  18
   0  -3  -5 1392.14 217.474   1
   0  -3  -6 223.146 113.137   1
   0   3   6 18.8188 71.3954  22
   0   3   6 254.770 109.782   3
   0  -3  -6 330.068 116.004  18
   0   3   6 230.458 127.248  21
   0   3  -6 247.801 138.289  20
   0  -3   6 102.880 101.818  18
   0   3  -6 243.201 115.270  21
   0  -3  -7 3015.47 332.187   1
   0   3   7 4170.09 409.492   3
   0   3   7 3703.89 375.190  22
   0   3  -7 4138.22 460.863  20
   0  -3  -7 3925.09 405.329  18
   0  -3   7 3921.88 434.291  18
   0   3   7 3847.58 406.887  21
   0   3  -7 4096.81 398.164  21
   0  -3   8 394.478 158.856  18
   0  -3  -8 330.998 139.031  18
   0  -3  -8 501.484 169.890   1
   0   3   8 304.528 149.903  21
   0   3   8 334.576 141.724  22
   0   3  -8 365.125 158.147  21
   0   3  -8 405.338 180.180  20
   0   3   8 585.521 153.581   3
   0   3   9 1641.41 268.379  22
   0   3  -9 1624.55 299.395  20
   0   3  -9 1825.84 288.359  21
   0  -3  -9 1993.07 292.345   1
   0  -3   9 1660.19 320.149  18
   0   3   9 1914.61 290.692   3
   0   3   9 1935.98 293.892  21
   0   3  10 19981.4 942.169  22
   0   3  10 21200.0 988.013   3
   0   3 -10 20539.2 1085.84  20
   0  -3  10 20590.5 1071.93  18
   0   3  10 19960.3 937.996  21
   0  -3 -10 20228.4 979.778   1
   0   3 -10 22017.7 930.812  21
   0  -3 -11 2638.21 360.704   1
   0   3  11 3210.75 398.786   3
   0   3  11 2881.29 366.702  22
   0   3  11 2689.72 356.455  21
   0   3 -11 2116.81 282.404  21
   0  -3  11 2139.60 366.504  18
   0   3 -11 2335.08 368.409  20
   0   3  12 748.318 216.343   3
   0  -3 -12 628.757 198.924   1
   0  -3  12 364.195 143.427  18
   0   3  12 695.628 228.644  22
   0   3  12 713.257 197.365  21
   0   3 -12 467.404 185.942  20
   0  -3 -13-143.501 90.8610   1
   0   3  13-62.7901 91.9944  21
   0   3  13-124.647 109.728   3
   0   3  13 132.916 142.281  22
   0   3 -13 79.5783 103.834  20
   0  -3  13 198.175 121.295  18
   0  -3 -14 28.5609 110.060   1
   0  -3  14 213.539 172.089  18
   0   3  14 179.169 145.640   3
   0   3 -14 50.9230 104.052  20
   0   3  14 135.006 127.007  22
   0   3 -15 1475.35 349.823  20
   0  -3 -15 1222.70 307.947   1
   0   3  15 1250.02 239.165  22
   0  -3  15 1372.99 321.532  18
   0   3  15 1281.53 277.999   3
   0  -3 -16 21709.7 1241.53   1
   0  -3  16 23074.7 1243.89  18
   0   3 -16 24005.1 1302.39  20
   0   3  16 21954.8 1178.13  22
   0   3  16 22976.0 1167.45   3
   0   3 -17 6527.76 698.169  20
   0   3  17 6202.60 633.512  22
   0   3  17 6670.29 286.101   8
   0  -3 -17 7262.02 340.716   4
   0  -3 -17 6208.31 665.501   1
   0   3  17 6994.69 297.591  13
   0   3  17 6734.33 636.342   3
   0  -3  17 6267.20 320.597  15
   0  -3  17 6179.07 627.873  18
   0  -3 -18-84.5854 183.955   1
   0   3  18-5.99270 48.3383  13
   0   3 -18 218.407 197.636  20
   0  -3 -18 276.411 98.4410   4
   0   3  18-22.1366 55.2553   8
   0  -3  18-240.509 153.892  18
   0   3  18 56.2778 120.873  22
   0   3  18 178.967 101.890   3
   0   3  19 149.535 56.9452  13
   0   3  19-240.109 156.824   3
   0  -3 -19-45.4759 138.559   1
   0  -3 -19 85.9824 73.2463   4
   0   3  19-99.4462 117.153  22
   0   3 -19 20.0341 132.150  20
   0   3  19-2.46930 54.5353   8
   0  -3 -20 694.478 129.726   4
   0   3  20 732.314 107.657  13
   0   3  20 824.037 111.555   8
   0   3  21 1402.11 146.409  13
   0   3  21 1379.16 141.670   8
   0  -3 -21 1231.07 158.266   4
   0   3  22 127.003 73.2947   8
   0   3  22 116.385 61.4977  13
   0  -3 -22 198.945 95.3183   4
   0   3  23-51.0265 62.7134   8
   0  -3 -23 95.6194 78.7403   4
   0   3  23 144.249 74.9172  13
   0  -3 -24 527.018 107.590   4
   0   3  24 632.975 105.237  13
   0   3  24 484.033 92.4451   8
   0   3  25 30.2507 54.1960  13
   0   3  25 131.643 60.6111   8
   0  -3 -25 31.1384 75.3989   4
   0   3 -25-26.6522 58.4265  23
   0   3 -26 13.7761 56.6476  23
   0   3  26 7.00347 61.3501  13
   0  -3 -26-0.19552 58.9926   4
   0   3  26 20.7525 47.9925   8
   0   3  27 642.279 98.9202  13
   0   3  27 716.170 91.8065   8
   0   3 -27 597.943 90.1117  23
   0  -3 -27 616.124 98.1015   4
   0  -3 -28 118.205 59.2092   4
   0   3  28-48.7114 47.6555   8
   0   3  28-15.3843 54.2830  13
   0   3 -28 64.5900 54.1173  23
   0   3  29 808.904 98.6112  13
   0  -3 -29 819.146 102.983   4
   0   3  29 738.558 81.0876   8
   0   3 -29 763.574 87.4458  23
   0   3  30 421.501 76.0533  13
   0  -3 -30 338.796 70.1343   4
   0   3  30 376.091 53.0551   8
   0  -3 -31 2075.57 128.184   4
   0   3  31 2054.77 126.716  13
   0   3  32 4409.64 166.792  13
   0   4   0 15837.1 788.362   3
   0  -4   0 14192.2 909.551  18
   0   4   0 14869.1 934.872  21
   0  -4  -1 108.878 122.410  18
   0   4  -1 85.4168 121.707  21
   0   4   1 312.322 131.931   3
   0   4   1 155.832 125.237  21
   0  -4   1 413.315 186.369  18
   0   4   2 922.855 193.168   3
   0  -4   2 880.847 240.019  18
   0   4  -2 940.752 258.097  21
   0   4   2 886.093 243.409  21
   0  -4  -2 704.163 215.229  18
   0  -4   3 1892.49 342.647  18
   0  -4  -3 1521.35 299.769  18
   0   4   3 2170.29 328.257   3
   0   4   3 1597.33 321.233  21
   0   4  -3 1901.52 342.081  21
   0   4   4 3384.50 462.906  21
   0  -4   4 3330.36 447.865  18
   0  -4  -4 4059.87 474.226  18
   0   4   4 3138.96 376.882   3
   0   4  -4 3228.60 435.604  21
   0   4  -5 963.224 292.146  20
   0   4   5 777.041 182.899   3
   0  -4   5 737.413 213.951  18
   0   4   5 734.075 257.197  21
   0   4  -5 535.732 196.093  21
   0  -4  -5 1152.97 267.252  18
   0   4  -6 8861.92 707.486  21
   0   4   6 7154.11 613.253   3
   0  -4   6 8910.70 744.287  18
   0   4  -6 9175.23 800.114  20
   0  -4  -6 7618.83 651.917  18
   0   4   6 7607.48 686.868  21
   0   4  -7 2353.36 420.350  21
   0   4   7 2619.17 420.177  21
   0   4  -7 2893.19 439.596  20
   0   4   7 2225.00 320.658  22
   0  -4  -7 2257.65 385.191  18
   0   4   7 2034.95 336.272   3
   0  -4   7 2764.91 432.977  18
   0   4   8 5974.08 597.595  21
   0  -4   8 6250.51 634.133  18
   0   4   8 6022.00 534.856  22
   0  -4  -8 6338.82 604.575  18
   0   4  -8 5746.42 616.506  20
   0   4  -8 6899.67 627.788  21
   0   4   8 6137.31 588.758   3
   0  -4   9 2166.39 398.428  18
   0   4  -9 2309.36 376.396  21
   0   4  -9 1896.94 369.986  20
   0   4   9 2179.17 383.903  21
   0   4   9 2437.33 355.763  22
   0   4   9 1794.52 341.257   3
   0   4  10 759.230 230.544  21
   0   4 -10 1263.55 313.151  20
   0  -4  10 947.876 246.877  18
   0  -4  10 1118.79 134.662  11
   0   4  10 1136.60 267.406   3
   0   4  10 755.830 220.865  22
   0   4  11 231.136 193.163  21
   0   4 -11 416.981 186.318  20
   0  -4  11 264.441 73.2726  15
   0  -4  11 309.692 213.402  18
   0  -4  11 241.219 78.3354  11
   0   4  11 48.5914 130.903  22
   0   4  11 322.174 179.494   3
   0  -4  12 1629.25 330.655  18
   0  -4  12 2008.68 190.947  11
   0   4  12 2190.36 401.549   3
   0   4  12 1908.38 347.820  22
   0   4 -12 1972.15 368.294  20
   0   4  12 1797.83 342.219  21
   0  -4  12 2095.80 171.187  15
   0  -4  13 59.6716 66.9279  11
   0   4  13 137.259 54.2867   8
   0   4 -13 204.681 199.747  20
   0   4  13-67.2984 185.820  22
   0  -4  13 84.6574 157.988  18
   0  -4  13 103.298 57.7108  15
   0   4  13 119.625 157.556   3
   0  -4  14 1320.19 295.355  18
   0  -4  14 2231.59 223.064  11
   0   4  14 1968.32 387.338  22
   0  -4  14 1916.05 191.957  15
   0   4 -14 2105.37 429.446  20
   0   4  14 2535.76 181.964   8
   0   4  14 1546.80 341.397   3
   0  -4  15 32058.6 830.840  15
   0   4  15 33588.7 758.888   8
   0  -4  15 31495.1 867.904  11
   0  -4 -15 32551.0 832.004   4
   0   4  16 28337.6 694.766   8
   0  -4  16 26556.5 750.517  15
   0  -4 -16 27792.7 774.783   4
   0   4  17 58937.4 1138.02   8
   0  -4 -17 57245.3 1230.53   4
   0  -4 -18 5024.77 313.222   4
   0   4  18 4635.05 256.494   8
   0   4  19 263.247 71.8893   8
   0  -4 -19 464.617 116.165   4
   0   4  19 340.307 81.9873  13
   0   4  20 468.689 95.6407  13
   0  -4 -20 380.466 108.810   4
   0   4  20 792.575 129.053  14
   0   4  20 622.840 109.715   8
   0   4  21 110.784 67.0004   8
   0   4  21 65.7021 52.3961  13
   0  -4 -21 134.365 83.2046   4
   0   4  21-80.1589 75.2626  14
   0   4  22 634.110 103.695   8
   0   4  22 751.536 101.340  13
   0   4  23 279.401 73.8958   8
   0   4  23 150.226 49.5547  13
   0   4  24 93.2368 56.8257   8
   0   4  24 12.5479 44.5688  13
   0   4  25 731.300 86.9007  13
   0   4  25 698.917 98.2359   8
   0   4 -25 544.427 94.3960  23
   0   4 -26 3356.26 185.431  23
   0   4  26 3548.29 174.828  13
   0   4  26 3365.68 183.395   8
   0   4  27 367.416 61.1143   8
   0   4  27 374.138 57.6946  13
   0   4 -27 383.156 63.8367  23
   0   4  28 648.316 68.0323  13
   0   4  28 625.023 69.1090   8
   0   4 -28 711.743 68.2786  23
   0   4  29 65.5236 26.7149  13
   0   4  29 4.18390 27.3863   8
   0  -5   0 18.0288 56.3235  11
   0  -5  -1 117.460 73.8188  11
   0  -5   1 137.896 76.4389  11
   0  -5   2 357.234 95.1623  11
   0  -5  -2 324.407 88.5956  11
   0  -5   3 1103.96 143.357  11
   0  -5   4 1063.18 140.495  11
   0  -5   5 12104.2 462.649  11
   0  -5   6 81384.7 1547.65  11
   0  -5   7 6703.45 354.508  11
   0   5   8 7438.82 291.259   8
   0  -5   8 6019.47 332.228  11
   0  -5   9 84.1250 73.9428  11
   0   5   9 46.7489 52.4837   8
   0  -5   9 81.1516 65.3930  15
   0  -5  10 415.508 91.5248  15
   0  -5  10 323.005 100.123  11
   0   5  10 399.323 72.3284   8
   0  -5  11 367.201 110.179  11
   0   5  11 435.915 87.3609   8
   0  -5  12 829.968 143.508  11
   0   5  12 1001.14 114.253   8
   0   5  13 521.842 98.1313   8
   0  -5  13 383.984 109.762  11
   0  -5  14 6990.55 380.177  11
   0   5  14 6832.51 291.593   8
   0   5  15 4578.40 242.368   8
   0   5  16 442.057 96.7039   8
   0   5  17 7142.70 315.537  14
   0   5  17 4793.87 247.945   8
   0   5  18 8075.08 313.249   8
   0   5  18 7976.60 309.054  14
   0   5  19 1949.47 144.096  14
   0   5  19 1966.43 155.395   8
   0   5  20 8388.66 289.211  14
   0   5  20 8955.75 318.775   8
   0   5  21 1240.38 117.987   8
   0   5  21 1172.04 103.251  14
   0   5  22 1174.91 108.719   8
   0   5  22 986.215 85.1563  14
   0   5  23 23.7572 37.3732   8
   0   5  24 66.1392 40.0109   8
   0   5 -24 4.52084 36.3845  23
   0   5  25 179.744 44.2551   8
   0   5 -25 344.354 49.3586  23
   0  -6   0 733.887 102.633  11
   0   6   0 928.108 112.459  14
   0  -6  -1 116.173 49.5072  11
   0  -6   1 118.511 62.7919  11
   0  -6   2 3389.07 217.373  11
   0  -6   3 285.940 88.2388  11
   0  -6   4 2645.27 197.689  11
   0  -6   5 1904.15 175.865  11
   0  -6   6 2614.31 204.890  11
   0  -6   7 1275.05 151.065  11
   0  -6   8 3224.73 227.521  11
   0  -6   9 298.467 100.613  11
   0  -6  10 533.997 101.142  11
   0   6  10 1608.45 193.048  14
   0   6  11 1192.10 142.253  14
   0   6  12 160.065 47.5560   8
   0   6  12 161.281 72.0775  14
   0   6  13 1409.16 105.250   8
   0   6  13 1257.96 117.922  14
   0   6  14 601.541 82.3144  14
   0   6  14 773.053 77.6862   8
   0   6  15 4.34211 47.2450  14
   0   6  15 79.6642 38.6222   8
   0   6  16 223.047 59.1521  14
   0   6  16 230.196 49.7154   8
   0   6  17 243.999 60.0718  14
   0   6  17 135.970 44.8140   8
   0   6  18 1917.82 112.362  14
   0   6  18 1901.65 107.256   8
   0   6  19 2340.25 115.324  14
   0   6  19 2375.92 112.807   8
   0   6  19 2106.22 107.362   5
   0   7   0-55.5804 34.1759   5
   0   7   1 139.467 43.3700   5
   0   7   2 1230.93 91.4731   5
   0   7   3 66.8409 31.9453  14
   0   7   3-35.7311 38.4464   5
   0   7   4 76.0080 36.9036  14
   0   7   4 137.933 46.8851   5
   0   7   5 62.4655 34.3655  14
   0   7   5 117.778 52.3994   5
   0   7   6 595.816 75.0157   5
   0   7   6 534.113 62.0973  14
   0   7   7 1362.29 89.0714  14
   0   7   7 1518.06 109.437   5
   0   7   8 264.262 44.9328  14
   0   7   8 384.683 64.4503   5
   0   7   9 24.3170 38.7551   5
   0   7   9 6.64276 28.3981  14
   1   0 -35 8019.35 259.842   4
  -1   0  34 75.2841 43.8572  13
  -1   0  33 91.4434 43.9907  13
  -1   0  32 10.0140 46.0976  13
  -1   0  31-94.1460 46.9883  13
  -1   0  30 44.8620 48.6520  13
  -1   0  29 2041.17 174.972  13
  -1   0  29 1812.05 187.463   7
  -1   0  28 96.1970 69.2653  13
  -1   0  28 49.9868 64.0917   7
  -1   0  27 661.604 124.686  13
  -1   0  27 688.830 126.075   7
  -1   0  26 246.836 91.8212  13
  -1   0  26 288.918 105.340   7
  -1   0  25 23603.4 671.658  13
  -1   0  25 23360.9 702.688   7
  -1   0  24 2432.39 225.045  13
  -1   0  24 2690.84 239.082   7
  -1   0  24 2353.83 450.141   2
   1   0 -24 2794.50 515.294  20
  -1   0  23 117434. 2041.59   7
  -1   0  23 117072. 1980.61  13
  -1   0  23 118013. 3085.38   2
   1   0 -23 118115. 3264.91  20
  -1   0  22 1339.12 166.139   7
  -1   0  22 1030.47 150.666  13
  -1   0  22 924.226 286.277   2
  -1   0  21 4029.14 475.963   2
   1   0 -21 3836.07 525.910  20
  -1   0  20 140.795 126.052   2
   1   0 -20 174.364 162.804  20
   1   0 -19 1469.30 325.975  20
  -1   0  19 1195.59 249.818   2
   1   0 -18 72.1099 86.0890  20
  -1   0  18 60.6829 91.0885  22
  -1   0  18 50.6222 87.2216   2
   1   0 -17 1309.85 268.712  20
  -1   0  17 1214.72 247.981   2
  -1   0  17 944.018 214.069  22
   1   0 -16-156.317 143.970  20
  -1   0  16-24.5132 66.4286  22
  -1   0  16 137.105 96.6246   2
   1   0 -15 726.351 195.897  20
  -1   0  15 546.647 146.309   2
  -1   0  15 497.577 158.374  22
  -1   0  14 682.174 133.178   3
  -1   0  14 506.506 158.964   2
   1   0 -14 628.528 178.149  20
  -1   0  14 703.121 178.073  22
  -1   0  13 5606.93 427.904   2
  -1   0  13 6000.84 342.715   3
   1   0 -13 5878.65 441.090  20
  -1   0  13 6159.03 436.141  22
  -1   0  12 107.699 93.0190   2
  -1   0  12 274.551 121.203  22
  -1   0  12 172.102 80.9770   3
   1   0 -12 80.0519 89.5957  20
   1   0 -11 4036.71 333.462  20
  -1   0  11 4212.75 344.573  22
  -1   0  11 4437.99 277.326   3
  -1   0  11 4479.73 335.402   2
  -1   0  10 128.764 66.4124   3
  -1   0  10 124.551 87.3449   2
  -1   0  10 150.592 92.2041  22
   1   0 -10 119.816 62.7503  20
  -1   0   9 4203.84 301.552  22
   1   0  -9 4312.25 300.595  20
  -1   0   9 4222.86 250.518   3
  -1   0   9 4499.23 308.823   2
   1   0  -8-17.7422 76.4802  20
  -1   0   8 11.7212 50.6845   3
  -1   0   8 52.8682 83.6574   2
  -1   0   8-34.5883 66.5991  22
  -1   0   7 360.034 94.5043   2
  -1   0   7 427.574 91.0889   3
   1   0  -7 483.801 93.2450  20
  -1   0   7 437.760 105.702  22
  -1   0   6 70.2815 64.8222   2
  -1   0   6 126.064 81.7315  22
  -1   0   6 31.7497 57.5630   3
   1   0  -6 171.327 64.7123  20
  -1   0   5 8118.64 343.689   2
   1   0  -5 9070.32 306.343  20
  -1   0   5 9116.03 316.459   3
  -1   0   5 8760.99 256.901  21
  -1   0   4 180.787 57.1295  21
  -1   0   4 201.007 66.0758   3
   1   0  -4 227.101 56.2536  20
  -1   0   4 153.826 72.1776   2
  -1   0   3 67.2581 54.9075   1
   1   0  -3 106.566 26.8772  20
  -1   0   3 82.0739 49.2454   2
  -1   0   3 81.9674 33.8774  21
  -1   0   2 240.376 58.3074  21
  -1   0   2 115.587 57.2026   1
  -1   0   1 51.1559 48.0297   1
  -1   0   0 222.656 28.7959  20
  -1   0   0 150.891 58.6672   1
  -1   0  -1 19122.9 519.913   1
  -1   0  -1 22495.8 436.740  20
  -1   0  -2 907.116 106.900   1
  -1   0  -2 1403.07 114.396  20
  -1   0  -3 23001.8 554.049  20
  -1   0  -3 23061.4 588.909   1
   1   0   3 22265.0 581.204  19
   1   0   4 615.591 106.141  22
  -1   0  -4 726.331 115.751  21
  -1   0  -4 793.460 122.894  20
  -1   0  -4 699.874 110.004   1
   1   0   4 570.340 106.800  19
   1   0   5 12405.3 458.782  19
  -1   0  -5 12778.9 455.014   1
  -1   0  -5 12169.6 452.696  20
  -1   0  -5 12326.3 422.432  21
   1   0   5 11424.4 399.301  22
   1   0   6 64.9729 63.1965  22
   1   0   6 97.1457 73.7371  19
  -1   0  -6 95.8524 79.4898   1
  -1   0  -6 74.7101 79.9795  20
  -1   0  -7 11916.1 503.742   1
   1   0   7 11971.9 431.792  22
  -1   0  -7 12022.5 518.211  20
  -1   0  -8 17.3277 69.6932   1
   1   0   8 147.962 66.1576  22
  -1   0  -8 185.924 102.556  20
  -1   0  -9 864.368 155.462   1
  -1   0  -9 1185.83 190.466  20
   1   0   9 936.666 145.812   2
   1   0   9 940.745 139.208  22
  -1   0 -10-10.2554 67.6783   1
   1   0  10 19.7820 53.3305  22
   1   0  10 155.397 84.6811   2
  -1   0 -10 88.5075 91.9501  20
   1   0  11 63.1820 54.8453  22
   1   0  11 108.435 92.4724   2
  -1   0 -11 83.5526 87.0138   1
  -1   0 -11 161.895 102.069  20
   1   0  12 193.878 103.118   2
  -1   0 -12 360.200 161.851   1
   1   0  12 225.517 96.8307  22
  -1   0 -12 331.977 143.285  20
  -1   0 -13 225.537 151.885  20
   1   0  13 259.883 110.183   2
  -1   0 -13 159.042 88.6499   1
   1   0  13 178.597 80.0923  22
  -1   0 -14 368.570 163.043   1
   1   0  14 275.219 121.818  22
  -1   0 -14 409.077 192.940  20
   1   0  15 13330.8 640.451  22
  -1   0 -15 14609.4 872.637  20
  -1   0 -15 14238.1 791.383   1
  -1   0 -16 73.4871 81.7276   1
   1   0  16 141.206 105.643  22
  -1   0 -16 127.049 160.746  20
  -1   0 -17 552.385 169.629   1
   1   0  17 533.558 139.442  22
  -1   0 -17 371.922 161.594  20
  -1   0 -18-0.84626 137.932  20
   1   0  18 65.9433 110.967  22
  -1   0 -18 144.656 159.496   1
  -1   0 -19 366.039 200.876   1
  -1   0 -19 199.446 182.812  20
   1   0  19 311.780 164.369  22
  -1   0 -20 109.431 154.243   1
  -1   0 -20-2.02200 141.825  20
  -1   0 -21 172.421 125.014   1
  -1   0 -21 239.935 193.059  20
  -1   0 -22 283.265 222.151  20
  -1   0 -22 256.962 96.7267  23
   1   0  22 419.437 92.2842   7
  -1   0 -22 128.143 105.524   1
   1   0  22 427.475 79.7867  13
   1   0  23 1757.80 156.710  13
  -1   0 -23 1832.37 428.708  20
   1   0  23 974.395 238.393  18
  -1   0 -23 1810.69 178.040  23
   1   0  23 1732.52 166.817   7
  -1   0 -23 1068.14 268.843   1
  -1   0 -24 57.3871 62.4155  23
   1   0  24 57.5570 61.3145   7
   1   0  24 152.332 75.0953  13
   1   0  25 151.622 62.3945  13
   1   0  25 50.2963 61.5742   7
  -1   0 -25 213.064 81.1836  23
   1   0  26 68.3696 78.8235   7
  -1   0 -26 115.183 79.7363  23
   1   0  26-21.1416 66.7224  13
   1   0  27 44.8189 71.5221   7
  -1   0 -27 106.746 63.5337  23
   1   0  27 118.431 56.1213  13
  -1   0 -28-11.3863 59.4197  23
   1   0  28 8.93957 56.6783   7
   1   0  28 32.0918 55.7230  13
   1   0  29 683.724 118.158   7
   1   0  29 541.814 90.2292  13
  -1   0 -29 720.410 110.356  23
   1   0  30 12.3468 69.4293   7
   1   0  30 22.7805 44.4471  13
  -1   0 -30 103.793 57.2201  23
   1   0  31 962.076 123.508   7
   1   0  31 928.794 96.1206  13
  -1   0 -31 1065.64 106.278  23
   1   0  32-153.365 56.5827  13
   1   0  32 80.1790 59.7083   7
   1   0  33 3321.14 195.436   7
  -1   0 -34 248.942 50.7705   4
  -1   1  34 1404.79 107.837  13
   1  -1 -34 1489.43 114.343   4
   1  -1 -33 513.612 85.0905   4
  -1   1  33 585.036 82.9636  13
   1  -1 -32 304.404 80.1832   4
  -1   1  32 299.268 71.1182  13
  -1   1  31 228.059 63.9069  13
  -1   1  30-26.1636 51.8814  13
  -1   1  29 1486.85 160.847  13
  -1  -1  29 1234.96 153.103   7
  -1  -1  29 1455.55 137.290  13
  -1   1  28 3014.17 218.129  13
  -1  -1  28 2959.73 231.386   7
  -1  -1  28 2979.45 201.425  13
  -1   1  27 696.154 119.926  13
  -1  -1  27 617.074 105.507  13
  -1   1  27 696.557 126.388   7
  -1  -1  27 570.135 125.972   7
  -1  -1  26 1323.37 165.364   7
  -1  -1  26 1534.68 153.495  13
  -1   1  26 1323.71 159.784  13
  -1   1  26 1211.72 162.194   7
  -1   1  25 3459.68 259.843   7
  -1  -1  25 3648.25 231.883  13
  -1  -1  25 3465.97 252.012   7
  -1   1  25 3750.20 251.667  13
  -1  -1  24 61688.6 1184.64  13
  -1   1  24 57398.9 1251.58   7
  -1   1  24 59505.9 1213.58  13
  -1  -1  24 61560.0 1253.68   7
  -1   1  23 37078.9 874.997  13
  -1  -1  23 37197.8 894.658   7
  -1   1  23 38146.2 1497.49   2
  -1  -1  23 35655.1 1623.89   2
   1  -1 -23 36213.1 1711.78  20
   1   1 -23 36001.9 1661.11  20
  -1   1  23 39139.3 927.528   7
  -1  -1  23 36563.2 836.813  13
  -1   1  22 30393.5 1293.81   2
  -1   1  22 29261.3 774.078   7
  -1   1  22 28512.1 1397.02  22
   1  -1 -22 29220.1 1492.69  20
  -1   1  22 30410.3 747.866  13
   1   1 -22 32244.9 1513.13  20
  -1  -1  22 31648.2 1460.18   2
  -1  -1  22 31874.8 778.048   7
  -1  -1  21 1335.07 318.404   2
  -1   1  21 1180.05 292.868  22
  -1   1  21 1641.46 290.386   2
   1   1 -21 1326.42 289.805  20
   1  -1 -21 1347.67 334.066  20
   1   1 -20 1574.65 338.460  20
  -1   1  20 2175.60 377.424  22
  -1  -1  20 1834.37 340.121   2
  -1   1  20 1308.15 242.153   2
   1  -1 -20 1399.23 323.141  20
   1   1 -19 1339.93 316.165  20
  -1  -1  19 1112.14 287.010   2
  -1   1  19 1499.16 271.337   2
   1  -1 -19 1317.06 307.055  20
  -1   1  19 1307.06 295.060  22
  -1  -1  18 2583.62 372.789   2
  -1   1  18 2548.36 338.264   2
   1  -1 -18 2360.74 375.376  20
  -1   1  18 2438.27 366.753  22
  -1   1  18 2094.98 302.232   3
   1   1 -18 2706.67 378.833  20
  -1   1  17 482.074 164.637  22
   1  -1 -17 925.391 252.965  20
  -1   1  17 702.954 179.196   2
   1   1 -17 667.380 216.903  20
  -1  -1  17 957.327 254.942   2
  -1   1  17 447.547 159.764   3
   1   1 -16 2821.41 359.888  20
  -1  -1  16 2584.85 332.208   2
  -1   1  16 2345.71 301.673   2
  -1   1  16 2519.03 339.502  22
  -1   1  16 2135.29 287.204   3
   1  -1 -16 2184.00 350.059  20
  -1   1  15 7344.77 498.605   3
   1  -1 -15 7885.29 617.586  20
  -1  -1  15 7164.25 476.151  18
  -1   1  15 7448.67 568.701  22
  -1   1  15 7720.79 529.203   2
  -1  -1  15 8059.64 566.973   2
   1   1 -15 7590.07 564.556  20
  -1  -1  14 103069. 2322.20   2
   1  -1 -14 107220. 2523.65  20
  -1   1  14 105906. 2375.62  22
  -1   1  14 103820. 2175.47   3
  -1   1  14 109038. 2291.03   2
   1   1 -14 102324. 2348.23  20
  -1  -1  14 102535. 2179.45  18
  -1   1  13 28904.3 1053.36  22
  -1   1  13 28849.9 968.567   3
  -1   1  13 29571.3 992.639   2
  -1  -1  13 29184.3 1030.56   2
  -1  -1  13 27602.6 924.558  18
   1   1 -13 27706.9 1029.10  20
   1  -1 -13 28630.2 1123.44  20
   1  -1 -12 8272.20 543.393  20
  -1  -1  12 7252.54 426.556  18
  -1  -1  12 7545.00 487.590   2
   1   1 -12 7790.71 519.898  20
  -1   1  12 8273.39 475.248   2
  -1   1  12 7930.37 461.475   3
  -1   1  12 8028.42 511.485  22
  -1   1  11 18242.9 697.869   2
  -1   1  11 18423.6 699.844   3
  -1  -1  11 17617.0 730.713   2
  -1   1  11 16931.9 496.086  21
   1  -1 -11 17218.5 782.992  20
  -1   1  11 18534.5 762.206  22
   1   1 -11 17836.1 742.551  20
  -1  -1  11 17970.0 655.672  18
  -1   1  10 89274.5 1854.66  22
  -1   1  10 89646.7 1734.92   2
  -1  -1  10 91639.7 1685.03  18
  -1   1  10 86211.6 1747.34   3
  -1  -1  10 91982.4 1807.28   2
   1   1 -10 88504.3 1799.37  20
  -1   1  10 89175.0 1482.01  21
   1  -1 -10 87156.2 1876.27  20
  -1   1   9 10589.1 395.176  21
  -1  -1   9 10671.6 499.660   2
  -1  -1   9 10186.3 455.989  18
  -1   1   9 10529.2 490.382   3
   1  -1  -9 9761.21 525.197  20
  -1   1   9 10251.8 472.764   2
   1   1  -9 10759.9 500.135  20
   1   1  -9 9927.55 298.785  21
  -1   1   9 10130.9 523.653  22
  -1   1   8 26653.6 684.581  21
   1   1  -8 25658.9 566.075  21
  -1   1   8 25000.9 817.539  22
   1   1  -8 26292.1 770.944  20
  -1   1   8 25782.8 781.193   3
   1  -1  -8 24461.2 809.360  20
  -1  -1   8 26421.4 780.901   2
  -1  -1   8 26281.2 729.296  18
  -1   1   8 25617.9 754.478   2
  -1   1   7 131.584 68.5571  21
   1   1  -7 90.2149 42.7693  21
  -1  -1   7 178.620 82.8858   2
  -1  -1   7 39.1571 56.7397  18
   1   1  -7 86.7064 74.8779  20
  -1   1   7 130.050 84.2860   2
  -1   1   7 96.9471 71.7384  22
  -1   1   7 161.999 74.2712   3
   1  -1  -6 14481.0 536.413  19
  -1  -1   6 14230.8 472.518  18
   1  -1  -6 14449.8 446.825  18
  -1   1   6 14121.0 517.748   3
  -1  -1   6 14786.0 518.324   2
   1   1  -6 14786.4 507.129  20
  -1   1   6 14714.1 480.974  21
  -1   1   6 14247.1 537.988  22
  -1  -1   5 4363.50 252.048  18
   1  -1  -5 4930.79 303.849  19
   1  -1  -5 4479.81 237.265  18
  -1  -1   5 4628.63 279.653   2
   1   1  -5 4367.92 258.720  20
  -1   1   5 5351.72 299.007  21
  -1  -1   5 4632.61 295.899   1
  -1   1   4 243991. 3644.59  21
   1  -1  -4 243280. 3562.68  18
  -1   1   4 239890. 3678.00  22
  -1  -1   4 242215. 3558.46  18
   1  -1  -4 243590. 3682.85  19
  -1  -1   4 244938. 3700.47   1
  -1  -1   4 235806. 3572.66   2
  -1  -1   3 108804. 1735.72   2
  -1  -1   3 106079. 1884.42   1
  -1   1   3 112150. 1872.87  21
  -1  -1   3 107226. 1772.22  18
   1  -1  -3 103824. 1786.85  18
   1  -1  -3 107120. 1869.97  19
  -1   1   3 104518. 1867.85  22
  -1   1   2 163054. 2577.23  22
  -1  -1   2 164355. 2416.53   2
   1  -1  -2 162037. 2609.02  19
   1  -1  -2 165908. 2574.39  18
  -1  -1   2 163577. 2639.60   1
  -1  -1   2 161413. 2510.78  18
  -1  -1   1 274022. 4132.47   1
   1  -1  -1 288053. 4127.32  19
   1  -1  -1 279795. 4088.74  18
  -1  -1   1 272850. 3842.22   2
  -1  -1   1 274586. 3996.91  18
   1  -1   0 825955. 11669.9  19
   1   1   0 867533. 11391.0  19
  -1  -1  -1 113642. 1970.01   1
   1   1   1 110450. 1869.89  22
   1  -1   1 119052. 1991.40  18
   1  -1   1 116033. 1953.81  19
  -1   1  -1 111129. 1617.50   1
  -1   1  -1 117464. 1856.61   3
   1   1   1 107418. 1627.56  19
  -1  -1  -1 114164. 1871.58  18
  -1   1  -2 222397. 3175.33   1
  -1  -1  -2 232716. 3585.29   1
  -1  -1  -2 233099. 3461.82  18
   1   1   2 229949. 3435.11  22
   1  -1   2 235479. 3569.46  19
   1   1   2 238765. 3177.26  19
   1  -1   2 234642. 3589.17  18
  -1  -1  -3 5652.67 329.917   1
   1  -1   3 4987.35 309.900  19
  -1   1  -3 4520.60 176.321   1
   1  -1   3 5535.46 339.001  18
   1   1   3 5584.56 183.490  19
  -1   1  -3 5215.29 304.047  21
  -1   1  -3 5001.09 311.346  20
  -1   1  -4 7440.99 348.470  21
  -1  -1  -4 7806.04 394.902   1
   1  -1   4 7218.12 374.281  19
   1  -1   4 7724.64 399.026  18
  -1  -1  -4 7380.55 380.162  20
  -1   1  -4 7029.74 241.826   1
  -1   1  -4 7255.85 376.866  20
   1  -1   5 3269.81 283.952  18
  -1  -1  -5 3028.59 256.092  20
   1  -1   5 3159.18 150.640  22
  -1   1  -5 3003.38 176.531   1
   1   1   5 2348.66 107.647   2
  -1  -1  -5 3116.78 269.794   1
  -1   1  -5 3213.73 270.073  20
  -1   1  -5 3592.73 254.298  21
   1  -1   5 2977.26 273.321  19
   1  -1   6 10472.2 291.423  22
   1  -1   6 10403.9 497.030  19
  -1   1  -6 10619.6 439.397  21
  -1  -1  -6 10356.4 493.223   1
   1   1   6 9684.74 267.004   2
   1   1   6 9663.33 425.116  22
   1  -1   6 10005.5 509.327  18
  -1   1  -6 10402.3 489.312  20
  -1  -1  -6 9898.19 489.802  20
  -1   1  -6 10076.3 359.065   1
  -1   1  -7 497.922 96.0598   1
  -1   1  -7 627.940 116.453  21
   1   1   7 443.090 60.6011   2
  -1  -1  -7 344.644 111.945   1
   1  -1   7 548.147 69.9205  22
  -1  -1  -7 397.989 123.289  20
   1  -1   7 476.505 135.166  18
  -1   1  -7 453.974 117.653  20
   1   1   7 535.414 113.168  22
   1  -1   7 502.466 141.938  19
   1  -1   8 955.732 92.6642  22
  -1   1  -8 797.574 155.195  20
  -1  -1  -8 704.934 163.765  20
   1   1   8 768.198 121.066  22
  -1  -1  -8 682.285 136.996   1
   1  -1   8 803.305 179.461  18
   1   1   8 808.784 93.8569   2
  -1   1  -8 920.573 131.765  21
  -1   1  -8 620.528 103.295   1
   1   1   9 70.3710 53.0219   2
   1  -1   9 51.9793 37.0650  22
  -1   1  -9 30.6063 78.0527  20
   1   1   9 83.7561 82.6657  22
  -1   1  -9 13.8682 57.6674   1
   1  -1   9 4.10992 93.3483  18
  -1   1  -9 131.172 56.7787  21
  -1  -1  -9 192.680 124.012  20
  -1  -1  -9 39.1154 77.4092   1
   1   1  10 1329.39 185.164  22
   1   1  10 1162.41 129.702   2
   1  -1  10 1255.23 250.806  18
  -1  -1 -10 1094.57 217.847  20
  -1  -1 -10 1212.10 215.106   1
  -1   1 -10 1381.03 179.336   1
  -1   1 -10 1532.02 181.284  21
   1  -1  10 1339.98 128.327  22
  -1   1 -10 1469.94 232.583  20
   1   1  11 8358.51 381.764   2
  -1  -1 -11 7797.27 575.404  20
  -1   1 -11 8491.53 425.235  21
   1  -1  11 8136.68 333.594  22
  -1   1 -11 8747.89 484.189   1
   1  -1  11 8098.99 586.795  18
  -1   1 -11 7884.58 551.053  20
   1   1  11 8458.38 491.611  22
  -1  -1 -11 7922.19 550.051   1
   1   1  12 168817. 3044.70  22
   1  -1  12 162293. 3327.34  18
  -1   1 -12 168863. 3004.07   1
  -1  -1 -12 168117. 3328.48   1
   1  -1  12 160745. 2606.72  22
   1   1  12 162271. 2747.56   2
  -1  -1 -12 172442. 3447.93  20
  -1   1 -12 160750. 3299.58  20
  -1   1 -12 168443. 2777.20  21
   1   1  13 30895.7 890.968   2
   1  -1  13 30694.4 1235.92  18
   1  -1  13 31450.5 803.222  22
   1   1  13 32909.4 1077.87  22
  -1  -1 -13 30936.4 1221.06   1
  -1  -1 -13 31002.1 1296.87  20
  -1   1 -13 31787.1 1045.58   1
  -1   1 -13 31023.0 1236.52  20
   1  -1  14 408.229 199.479  18
  -1   1 -14 368.611 176.937  20
  -1  -1 -14 453.534 204.264  20
  -1   1 -14 267.861 142.789   1
   1   1  14 360.996 108.246   2
  -1  -1 -14 428.830 170.708   1
   1   1  14 474.795 164.017  22
  -1  -1 -15 2212.29 385.974  20
  -1  -1 -15 2236.67 360.602   1
   1   1  15 2318.95 304.211  22
   1   1  15 1992.74 237.724   2
  -1   1 -15 2235.08 344.717  20
  -1   1 -15 1774.52 264.436   1
   1  -1  15 2229.34 353.584  18
   1  -1  16 2778.24 420.900  18
   1   1  16 3353.68 335.563   3
  -1   1 -16 2759.03 348.208   1
   1   1  16 4070.54 415.653  22
  -1   1 -16 3033.06 428.568  20
   1   1  16 3007.09 289.872   2
  -1  -1 -16 3651.53 452.940   1
  -1  -1 -16 3545.66 464.137  20
   1   1  17 343.214 123.038  22
  -1  -1 -17 369.639 188.804   1
  -1  -1 -17 557.096 224.767  20
   1   1  17 195.678 98.3764   3
   1  -1  17 211.534 181.730  18
  -1   1 -17 258.393 127.723   1
  -1   1 -17 460.356 209.830  20
  -1   1 -18 246.789 164.373  20
  -1  -1 -18 334.749 205.060   1
   1  -1  18 544.743 221.842  18
   1   1  18 559.835 153.198   3
   1   1  18 454.035 164.179  22
  -1  -1 -18 317.695 180.989  20
  -1   1 -18 486.050 172.431   1
  -1  -1 -19 349.024 203.173  20
  -1   1 -19 858.502 272.454  20
   1  -1  19 590.730 180.279  18
  -1  -1 -19 586.794 217.549   1
  -1   1 -19 492.383 179.196   1
   1   1  19 812.872 220.475  22
   1  -1  20 9397.73 793.581  18
  -1  -1 -20 8111.00 738.274   1
  -1  -1 -20 9026.23 849.974  20
  -1   1 -20 9322.31 830.748  20
   1   1  20 8280.44 659.442  22
   1   1  21 28471.9 680.506  13
   1   1  21 25331.7 1209.71  22
  -1   1 -21 25872.2 702.812  23
   1  -1  21 23074.2 1293.27  18
   1   1  21 28367.5 698.547   7
   1  -1  21 26651.8 692.066   7
  -1  -1 -21 27508.3 1539.31  20
  -1  -1 -21 26723.3 1438.89   1
  -1   1 -21 25850.5 1472.90  20
  -1  -1 -22 77052.0 2621.83   1
   1  -1  22 79257.6 2539.05  18
   1   1  22 76173.8 1451.08   7
   1   1  22 76750.1 2283.88  22
  -1  -1 -22 74969.5 2691.64  20
   1  -1  22 82983.4 1474.41   7
   1   1  22 78744.3 1426.47  13
  -1   1 -22 82199.9 1497.30  23
  -1  -1 -22 75477.1 1463.32  23
   1  -1  23 20482.1 616.545   7
  -1  -1 -23 20868.2 1315.32   1
  -1  -1 -23 20996.9 624.883  23
  -1   1 -23 19523.9 623.048  23
   1   1  23 21134.7 624.675   7
   1   1  23 20820.8 601.340  13
   1   1  23 19840.4 1095.76  22
  -1  -1 -24 5189.98 286.880  23
   1  -1  24 4464.04 273.796   7
  -1   1 -24 4885.85 285.116  23
   1   1  24 5222.46 269.347  13
   1   1  24 5038.97 281.498   7
   1   1  25 2476.37 196.442  13
  -1  -1 -25 2358.31 207.333  23
  -1   1 -25 1953.25 190.842  23
   1   1  25 2356.51 209.534   7
   1  -1  25 2120.05 202.164   7
   1  -1  26 3193.40 241.092   7
  -1   1 -26 3370.07 243.293  23
  -1  -1 -26 4162.37 253.132  23
   1   1  26 4062.95 240.122  13
   1   1  26 3748.16 252.344   7
  -1  -1 -27 460.116 102.017  23
   1   1  27 498.048 98.2493  13
  -1   1 -27 590.341 112.540  23
   1  -1  27 529.031 115.907   7
   1   1  27 344.042 89.7814   7
   1   1  28 487.243 101.233   7
  -1  -1 -28 488.496 98.4693  23
  -1   1 -28 573.546 103.928  23
   1  -1  28 663.943 113.267   7
   1   1  28 598.642 94.9739  13
   1   1  29 184.907 74.1808  13
   1  -1  29 112.748 71.1861   7
  -1   1 -29 188.511 70.2532  23
   1   1  29 203.420 76.2053   7
  -1  -1 -29 274.241 75.0977  23
   1   1  30 26.8019 47.5682  13
  -1  -1 -30 44.1193 49.8382  23
  -1   1 -30-1.76913 47.6656  23
   1   1  30 35.6113 61.2376   7
   1  -1  30-10.2158 51.4916   7
   1   1  31 565.307 92.1750   7
  -1   1 -31 657.305 91.5368  23
   1  -1  31 579.879 98.2388   7
  -1  -1 -31 533.941 82.5542   4
   1   1  31 574.402 87.4927  13
  -1  -1 -32 791.994 90.6837   4
  -1   1 -32 973.167 89.0727  23
   1   1  32 916.220 100.679   7
   1   1  32 750.056 93.0425  13
   1  -1  32 786.028 103.879   7
   1  -1  33 7.08216 41.4611   7
   1   1  33 26.0091 34.2994  13
  -1  -1 -33 58.6243 39.5521   4
  -1  -1 -34 3250.73 131.905   4
   1   1  34 3284.47 137.643  13
   1  -2 -33 2261.04 141.024   4
  -1   2  33 2069.43 134.244  13
  -1   2  32 189.660 62.1408  13
   1  -2 -32 36.8709 45.1084   4
   1  -2 -31-46.1517 58.9009   4
  -1   2  31 18.6695 50.3671  13
   1  -2 -30-23.2913 51.9067   4
  -1   2  30 94.0572 62.7263  13
  -1   2  29 253.873 80.7650  13
   1  -2 -29 89.8398 75.9380   4
  -1   2  29 172.088 58.0835   8
  -1   2  28 116.037 80.2444  13
   1  -2 -28 168.744 70.7594   4
  -1   2  28 155.609 55.2779   8
  -1   2  27 6389.25 284.455   8
  -1  -2  27 6059.93 307.093   7
  -1   2  27 6620.42 326.695  13
   1  -2 -27 6631.29 345.870   4
  -1   2  26 4294.69 234.879   8
  -1  -2  26 4333.12 256.268   7
  -1   2  26 4431.78 263.261  13
  -1   2  25 652.100 106.933   8
  -1   2  25 695.458 120.697  13
  -1  -2  25 757.189 122.919   7
  -1   2  24 3624.11 219.266   8
  -1   2  24 3599.63 237.846  13
  -1  -2  24 3314.55 231.225   7
  -1   2  23 842.799 131.280   8
  -1  -2  23 1155.13 141.923   7
  -1   2  23 816.819 130.841  13
  -1   2  22 1739.37 164.052   7
  -1   2  22 1897.72 160.269   8
   1  -2 -22 1889.29 412.197   1
   1   2 -22 2220.69 411.323  20
  -1   2  22 1609.47 320.286  22
  -1   2  22 2015.73 189.611  13
  -1  -2  22 1724.13 156.820   7
   1   2 -21 1916.90 379.261  20
  -1   2  21 1297.44 143.163   8
  -1  -2  21 1459.96 147.891   7
  -1   2  21 1282.83 149.470   7
  -1   2  21 1148.52 298.984  22
  -1   2  21 1476.22 154.070  13
  -1   2  20 3194.67 205.210   8
  -1   2  20 3596.89 222.659  13
  -1   2  20 3826.33 534.393  22
  -1   2  20 3349.61 445.926   3
   1   2 -20 3039.15 439.243  20
  -1   2  19 986.750 266.096   3
  -1   2  19 900.313 253.468  22
   1   2 -19 729.194 195.109  20
  -1   2  18 7556.21 702.145  22
  -1   2  18 7637.67 626.281   3
  -1   2  18 8424.61 592.295   2
   1   2 -18 7781.89 702.745  20
  -1   2  17 144.126 84.2092   3
  -1   2  17 137.865 97.7168   2
   1   2 -17 78.1597 88.1209  20
  -1   2  17 282.547 137.995  22
   1   2 -16 4659.58 504.869  20
  -1   2  16 6098.87 474.919   2
  -1   2  16 5612.22 508.545   3
  -1   2  16 5937.61 564.487  22
  -1   2  15 11092.4 641.919   2
   1  -2 -15 9767.85 646.806  19
  -1   2  15 10503.0 686.293   3
  -1  -2  15 9773.11 690.334   2
  -1  -2  15 10187.3 654.962  18
   1   2 -15 9965.23 709.262  20
  -1   2  15 10789.2 752.835  22
  -1   2  14 2390.75 287.234   2
  -1  -2  14 2391.66 343.440   2
  -1  -2  14 1857.15 275.078  18
  -1   2  14 2202.29 312.834   3
   1  -2 -14 2057.44 300.012  19
  -1   2  14 2483.93 368.575  22
   1   2 -14 2136.83 347.517  20
  -1   2  13 25087.9 914.844   2
  -1  -2  13 23223.8 1023.83   2
  -1  -2  13 22795.8 939.913  18
  -1   2  13 23591.4 1050.48  22
  -1   2  13 24267.5 1006.64   3
   1   2 -13 21516.2 1008.77  20
   1  -2 -13 23917.9 941.260  19
  -1   2  12 8419.62 497.685  21
  -1  -2  12 8939.35 594.277   2
   1  -2 -12 9352.19 551.361  19
  -1  -2  12 7082.79 482.680  18
  -1   2  12 8578.98 600.507  22
  -1   2  12 9585.37 528.552   2
  -1   2  12 8486.64 575.211   3
   1   2 -12 8586.41 590.583  20
  -1   2  11 928.555 181.852   2
   1   2 -11 638.447 190.726  20
  -1   2  11 1080.67 233.184   3
  -1  -2  11 810.820 189.075  18
  -1  -2  11 1041.14 224.448   2
   1  -2 -11 1071.67 196.285  19
  -1   2  11 1143.73 243.300  22
  -1   2  11 1210.16 205.335  21
   1  -2 -10 60163.0 1502.89  19
   1   2 -10 64277.5 1374.51  21
   1   2 -10 65742.5 1665.09  20
  -1   2  10 60754.1 1622.89   3
  -1  -2  10 63123.2 1639.60   2
  -1   2  10 62546.2 1498.19  21
  -1   2  10 60092.6 1663.26  22
  -1  -2  10 64823.1 1590.14  18
  -1   2  10 62702.6 1475.67   2
  -1   2   9 369.284 156.638  22
  -1  -2   9 68.4012 82.4093  18
   1  -2  -9 90.0442 60.4962  19
  -1  -2   9 209.893 124.500   2
  -1   2   9 147.774 96.8960  21
  -1   2   9 291.887 130.056   3
   1   2  -9 228.317 84.3344  21
  -1   2   9 191.646 104.089   2
   1  -2  -9 143.500 87.6379  18
   1   2  -9 86.7823 84.3493  20
   1  -2  -8 3326.04 297.043  18
  -1  -2   8 3652.48 317.265   2
   1   2  -8 3395.53 327.143  20
  -1  -2   8 3434.85 312.667  18
   1   2  -8 3405.61 269.739  21
  -1   2   8 3034.52 312.302   3
  -1   2   8 3147.84 273.107   2
  -1   2   8 3167.05 298.580  21
   1  -2  -8 2907.71 266.500  19
  -1   2   8 3160.04 311.608  22
   1  -2  -7 7206.63 407.525  19
   1   2  -7 7057.59 454.323  20
  -1   2   7 6972.88 436.395  21
  -1   2   7 7123.69 462.624   3
  -1   2   7 7130.90 453.425  22
   1   2  -7 7271.25 403.829  21
  -1  -2   7 7843.52 465.285  18
   1  -2  -7 7072.33 428.607  18
   1  -2  -6 5181.25 329.924  19
  -1   2   6 5044.80 359.292  22
   1   2  -6 5135.67 395.413  20
   1   2  -6 5385.25 336.419  21
   1  -2  -6 5314.23 369.300  18
  -1   2   6 4634.22 361.708   3
  -1   2   6 5450.14 378.502  21
  -1  -2   6 5848.65 393.086  18
   1   2  -6 5208.20 191.049  22
  -1   2   5 1405.73 190.597   3
   1   2  -5 1557.01 190.408  21
  -1   2   5 1531.70 213.320  21
   1  -2  -5 1376.14 201.740  18
   1  -2  -5 1508.78 172.158  19
  -1   2   5 1407.57 196.401  22
  -1  -2   5 1487.74 185.501   1
  -1  -2   5 1721.56 218.193  18
   1   2  -5 1537.31 115.939  22
  -1   2   4 17316.2 640.338  22
  -1  -2   4 16799.8 661.133  18
  -1   2   4 16902.3 684.622  21
  -1  -2   4 16666.2 596.239   1
  -1   2   4 16860.8 659.340   3
   1  -2  -4 16739.2 683.630  18
   1   2  -4 16648.6 434.401  22
   1  -2  -4 17707.5 612.032  19
   1   2  -4 15945.0 627.444  21
   1  -2  -3 527.125 123.360  19
  -1  -2   3 364.450 104.942   1
   1   2  -3 377.383 69.4981  22
   1   2  -3 324.174 116.969  21
  -1   2   3 527.563 134.196   3
  -1   2   3 479.652 127.755  22
   1  -2  -3 488.711 145.210  18
  -1   2   3 510.687 153.809  21
  -1  -2   3 377.950 136.326  18
   1   2  -2 603.149 135.619  21
   1  -2  -2 545.518 106.340  19
  -1   2   2 532.266 137.750  21
   1   2  -2 521.552 83.8920  22
  -1  -2   2 690.079 122.492   1
  -1   2   2 555.267 123.153   3
  -1  -2   2 528.887 137.358  18
   1  -2  -2 546.551 140.484  18
  -1   2   2 643.030 130.286  22
   1  -2  -1 6256.43 352.431  19
  -1   2   1 5542.40 314.244  22
  -1  -2   1 5806.06 375.245  18
  -1   2   1 5882.09 361.673   3
  -1  -2   1 5386.86 345.060   1
   1  -2  -1 5051.51 201.922   1
  -1   2   1 5898.40 394.470  21
   1  -2  -1 5997.05 414.402  18
   1   2  -1 5877.58 280.208  22
   1  -2   0 8190.80 410.110  19
   1   2   0 8466.80 353.979  22
  -1  -2   0 8207.81 430.508   1
   1  -2   0 8297.24 490.661  18
  -1  -2   0 8002.83 441.049  18
  -1   2   0 8358.14 416.366   3
  -1   2   0 7936.20 456.131  21
  -1  -2  -1 11219.3 530.250   1
  -1  -2  -1 11695.9 552.176  18
   1  -2   1 11751.7 617.982  18
  -1   2  -1 11978.3 500.291   3
   1   2   1 12122.4 459.945  22
   1  -2   1 12357.3 520.194  19
  -1   2  -1 12177.2 586.470  21
   1  -2   2 151595. 2657.69  19
   1   2   2 147518. 2516.67  22
  -1  -2  -2 149451. 2720.38   1
  -1   2  -2 152040. 2549.21   3
   1  -2   2 151715. 2869.60  18
  -1   2  -2 151509. 2774.84  21
  -1  -2  -2 151922. 2708.04  18
  -1   2  -3 122.375 84.5759   3
   1  -2   3 154.035 82.6041  19
  -1   2  -3 206.666 117.890  21
  -1  -2  -3 259.672 115.768  18
  -1  -2  -3 266.346 107.986   1
   1   2   3 239.434 85.4399  22
   1  -2   3 84.0193 106.236  18
  -1   2  -4 16823.3 555.386   3
   1   2   4 17744.6 631.079  22
   1  -2   4 16895.4 681.222  19
  -1   2  -4 16922.2 712.703  21
   1  -2   4 16930.4 762.525  18
  -1  -2  -4 17745.1 698.542  18
  -1  -2  -4 17627.7 722.667   1
  -1  -2  -5 137.685 106.358  18
   1  -2   5-5.14322 92.8767  18
  -1   2  -5 202.061 121.335  21
  -1   2  -5 176.108 105.577  20
  -1  -2  -5 59.0591 92.3443   1
   1   2   5 172.543 87.6583  22
   1  -2   5 29.9011 66.2056  19
  -1   2  -6 731.589 167.089  20
  -1  -2  -6 678.081 161.393   1
  -1   2  -6 865.087 176.076  21
   1   2   6 773.860 140.112  22
   1  -2   6 683.484 175.431  18
  -1  -2  -7 172.966 106.953   1
  -1   2  -7 218.332 124.515  21
   1  -2   7 182.353 110.829  18
   1   2   7 289.418 101.050  22
  -1   2  -7 88.3505 109.359  20
  -1   2  -8 29781.7 1121.77  20
   1   2   8 29495.2 973.343  22
  -1   2  -8 30641.0 1012.98  21
   1  -2   8 30320.9 1135.14  18
  -1  -2  -8 29545.6 1088.66   1
  -1   2  -9 4125.30 367.244  21
   1  -2   9 3836.00 417.455  18
  -1  -2  -9 3809.69 415.711   1
  -1   2  -9 3795.38 421.995  20
   1   2   9 3716.13 348.489  22
  -1   2 -10 27591.6 951.423  21
   1  -2  10 26593.5 1119.57  18
   1   2  10 28434.8 956.395  21
  -1  -2 -10 26654.9 1107.42   1
   1   2  10 27535.4 996.228  22
  -1   2 -10 26254.5 1117.90  20
  -1   2 -11 203.305 104.214  21
  -1  -2 -11 295.040 155.834   1
   1  -2  11 70.0575 88.6218  18
   1   2  11 109.815 98.7030  21
  -1   2 -11 81.7079 118.503  20
   1   2  11 192.575 126.073  22
   1  -2  12 2633.42 380.045  18
   1   2  12 2962.05 337.110  22
  -1   2 -12 2564.37 357.192  20
   1   2  12 2409.59 288.496  21
  -1   2 -12 2728.44 300.303  21
  -1  -2 -12 2725.83 378.379   1
  -1  -2 -13 63.3308 124.343   1
   1  -2  13-80.0806 117.961  18
   1   2  13 145.582 128.996  22
   1   2  13 34.5525 64.1046  21
  -1   2 -13 159.225 128.758  20
   1   2  14 497.468 157.427   3
  -1  -2 -14 466.200 182.360   1
  -1   2 -14 462.903 164.385  20
   1  -2  14 583.150 224.968  18
   1   2  14 542.373 164.839  22
   1   2  14 443.389 133.022  21
  -1  -2 -15 193.773 146.692   1
   1  -2  15 22.7997 114.924  18
   1   2  15 9.74756 97.1035  22
  -1   2 -15 36.3625 125.682  20
   1   2  15 126.238 122.347   3
  -1   2 -16 410.015 177.773  20
   1  -2  16 31.2771 127.375  18
   1   2  16 141.394 105.728  22
  -1  -2 -16 139.072 144.718   1
   1   2  16 240.630 156.243   3
  -1   2 -17 682.843 240.214  20
  -1  -2 -17 616.884 236.457   1
   1  -2  17 831.839 238.565  18
   1   2  17 274.363 128.639  22
   1   2  17 729.028 203.787   3
  -1   2 -18 1585.14 357.898  20
   1  -2  18 1833.09 363.809  18
  -1  -2 -18 1290.15 362.446   1
   1   2  18 1776.75 304.080   3
   1   2  18 1690.88 326.140  22
  -1   2 -19 5246.82 662.315  20
   1   2  19 5909.14 596.000  22
   1  -2  19 5644.14 621.335  18
  -1  -2 -19 4830.60 627.238   1
   1   2  19 5117.55 517.154   3
  -1   2 -20 7828.05 797.567  20
   1   2  20 7180.65 615.257   3
   1   2  20 7167.01 673.762  22
  -1  -2 -20 7162.61 770.372   1
  -1  -2 -20 6988.33 334.152  23
   1   2  20 7720.05 291.794   8
   1  -2  20 7940.05 349.799  15
   1  -2  20 7462.85 717.532  18
   1  -2  20 7744.78 321.670   7
   1   2  21 1528.52 159.898   7
   1   2  21 1519.91 140.019   8
   1   2  21 1705.21 363.111  22
   1   2  21 1305.41 152.669  13
   1  -2  21 1778.23 396.819  18
  -1  -2 -21 1401.43 171.120  23
  -1   2 -21 1196.57 369.449  20
   1  -2  21 1323.20 154.925   7
  -1  -2 -21 1128.33 348.872   1
   1   2  22 80898.0 1494.41  13
   1   2  22 81055.7 1471.12   7
   1   2  22 81150.9 1400.59   8
   1  -2  22 81632.6 1485.50   7
  -1  -2 -22 82304.7 1520.34  23
   1   2  23 742.758 122.670  13
  -1   2 -23 602.738 133.077  23
   1   2  23 716.920 106.166   8
  -1  -2 -23 965.278 140.403  23
   1   2  23 704.419 106.966   7
   1  -2  23 523.948 114.727   7
   1   2  24 146.827 63.6948   8
   1   2  24 17.4944 58.6684  13
  -1   2 -24 112.641 69.7665  23
   1   2  24 24.5345 60.4619   7
   1  -2  24 107.562 64.5710   7
  -1  -2 -24 186.953 77.5588  23
  -1  -2 -25 945.360 146.081   4
  -1   2 -25 767.206 135.811  23
   1   2  25 897.641 126.211  13
   1  -2  25 657.886 114.576   7
   1   2  25 716.140 100.111   8
   1   2  25 748.320 119.168   7
  -1  -2 -25 834.972 124.673  23
  -1  -2 -26 2111.08 176.025  23
  -1   2 -26 2214.50 194.956  23
   1   2  26 1969.28 174.508   7
   1  -2  26 1795.82 172.193   7
  -1  -2 -26 1938.24 184.241   4
   1   2  26 2009.94 183.113  13
   1  -2  27 2357.04 189.062   7
   1   2  27 2308.65 182.826   7
  -1  -2 -27 2067.67 188.665   4
   1   2  27 2543.50 192.140  13
  -1  -2 -27 2194.74 173.011  23
  -1   2 -27 2395.17 199.663  23
   1   2  28 2827.19 187.797   7
  -1  -2 -28 3226.35 191.907  23
  -1  -2 -28 2918.96 206.125   4
   1  -2  28 3128.51 209.888   7
  -1   2 -28 3171.08 205.417  23
   1   2  28 3224.83 206.561  13
   1  -2  29 718.019 99.0196   7
  -1  -2 -29 657.216 98.8616   4
  -1   2 -29 879.803 120.470  23
   1   2  29 856.859 109.877  13
  -1   2 -30 772.895 97.0215  23
   1   2  30 808.857 103.033  13
   1  -2  30 707.991 96.7111   7
  -1  -2 -30 655.400 93.7717   4
  -1   2 -31 78.6372 38.2969  23
  -1  -2 -31 82.7371 51.7065   4
   1  -2  31 9.84425 38.0137   7
   1   2  31 70.9310 45.8890  13
   1   2  32 344.843 60.6783  13
  -1   2 -32 582.135 66.3566  23
  -1  -2 -32 475.993 65.8323   4
   1   2  33 111.270 37.7450  13
  -1   3  32 6967.43 216.239  13
  -1   3  31 703.179 76.0563  13
  -1   3  31 578.486 56.9721   8
   1  -3 -31 694.378 82.3314   4
   1  -3 -30 1371.87 122.919   4
  -1   3  30 1219.79 96.3107   8
  -1   3  30 1326.51 110.805  13
  -1   3  29 172.902 49.6701   8
   1  -3 -29 189.665 69.6063   4
  -1   3  29 281.949 71.3790  13
   1  -3 -28 4.25673 54.9744   4
  -1   3  28 100.650 61.5960  13
  -1   3  28 132.239 54.1089   8
  -1   3  27 544.779 85.0017   8
  -1   3  27 596.753 93.2662  13
   1  -3 -27 705.937 116.607   4
   1  -3 -26 130.478 76.8578   4
  -1   3  26 113.414 79.5420  13
  -1   3  26 145.390 58.7681   8
   1   3 -25 60.5494 51.1362  23
  -1   3  25 7.64539 65.6488  13
  -1   3  25-43.0888 55.7998   8
   1  -3 -25 71.7005 82.2998   4
  -1   3  24 5395.27 275.310   8
  -1   3  24 5007.38 277.895  13
   1  -3 -24 4943.54 304.446   4
   1  -3 -23 1127.98 144.613   4
  -1   3  23 1374.45 152.858  13
  -1   3  23 1226.63 143.925   8
  -1   3  22 226.313 82.1486  13
   1  -3 -22 137.898 65.1823   4
  -1   3  22 178.428 75.7476   8
   1  -3 -21 7392.08 368.768   4
  -1   3  21 7340.22 325.285   8
  -1   3  21 7235.88 331.852  13
   1  -3 -20 2960.04 230.709   4
  -1   3  20 3162.36 209.755   8
  -1   3  20 2805.90 203.910  13
   1  -3 -19 1962.83 382.340   1
  -1   3  19 2696.21 189.693   8
  -1   3  19 2108.13 386.181   3
   1  -3 -19 2735.95 231.614   4
  -1   3  19 2869.58 456.118  22
  -1   3  19 2775.03 195.953  13
   1   3 -19 2117.72 393.070  20
  -1   3  18 9953.53 826.497   3
   1  -3 -18 11066.8 449.663   4
  -1   3  18 11958.4 404.446  13
   1  -3 -18 10248.0 843.596   1
   1   3 -18 10696.4 857.055  20
  -1   3  18 11708.6 405.981   8
  -1   3  18 10934.7 916.633  22
  -1   3  17 643.385 213.562   3
   1  -3 -17 749.473 220.690   1
   1   3 -17 1068.88 278.478  20
   1  -3 -17 1250.25 141.319   4
  -1   3  17 1120.47 127.430  13
  -1   3  17 1097.41 124.182   8
  -1   3  17 925.526 277.956  22
   1  -3 -16 3311.04 454.980   1
  -1   3  16 3564.81 504.824  22
  -1   3  16 3141.35 444.343   3
   1   3 -16 2821.64 427.784  20
   1   3 -15 27.3505 131.451  20
   1  -3 -15 236.843 165.368   1
  -1   3  15 64.2329 185.775   3
  -1   3  15 251.530 106.044  22
   1  -3 -14 938.359 220.733   1
  -1   3  14 1109.45 277.833  22
  -1  -3  14 1046.54 241.976  18
  -1   3  14 1592.86 303.366   3
   1   3 -14 1505.30 310.767  20
   1  -3 -13 580.423 198.052   1
   1   3 -13 611.845 208.881  20
  -1  -3  13 516.727 182.956  18
  -1   3  13 236.900 164.720   3
  -1   3  13 77.8215 93.7386  22
  -1   3  12 152.230 158.261  21
   1   3 -12 371.161 169.682  20
  -1  -3  12 452.687 163.518  18
   1  -3 -12 571.113 189.662   1
  -1   3  12 498.681 184.321   3
  -1   3  12 313.037 152.502  22
  -1   3  11 1994.87 326.834  22
  -1   3  11 2178.49 314.943  21
   1  -3 -11 2059.51 316.797   1
  -1   3  11 2344.74 350.603   3
  -1  -3  11 2360.56 336.866  18
   1   3 -11 2318.45 370.167  20
  -1   3  10 9324.63 644.936  21
  -1   3  10 9969.78 697.999  22
   1   3 -10 9664.23 581.949  21
   1   3 -10 10200.3 709.831  20
  -1   3  10 8932.28 518.193   2
   1  -3 -10 9905.14 641.571  18
  -1   3  10 9108.77 674.355   3
   1  -3 -10 9435.63 624.877   1
  -1  -3  10 9601.00 657.911  18
   1  -3  -9 352.335 143.409  18
   1   3  -9 434.952 159.354  20
  -1   3   9 413.806 121.505   2
   1   3  -9 269.319 135.867  21
  -1   3   9 215.032 113.721  21
   1  -3  -9 492.648 137.044   1
  -1  -3   9 396.659 165.080  18
  -1   3   9 531.500 172.721   3
  -1   3   9 591.114 207.554  22
   1  -3  -8 3277.11 373.085  18
   1   3  -8 3827.18 369.456  21
   1   3  -8 4022.35 430.396  20
  -1  -3   8 3651.40 393.802  18
  -1   3   8 3711.98 407.277   3
   1  -3  -8 3253.50 334.266   1
  -1   3   8 4080.69 425.859  21
  -1   3   8 3542.78 374.777  22
   1   3  -7 346.401 155.384  20
   1  -3  -7 457.289 158.887  18
  -1   3   7 886.391 208.856   3
   1  -3  -7 457.364 129.061   1
  -1   3   7 700.370 171.841  21
  -1   3   7 727.748 191.475  22
   1   3  -7 733.138 184.450  21
  -1  -3   7 691.083 187.286  18
  -1   3   6 458.628 195.639  21
  -1   3   6 256.989 155.345   3
   1  -3  -6 469.277 152.270  18
   1   3  -6 167.267 129.939  21
  -1  -3   6 461.956 176.898  18
  -1   3   6 451.692 159.069  22
   1  -3  -5 22029.5 956.776  18
   1   3  -5 20746.4 910.657  21
  -1   3   5 20622.3 914.222   3
  -1   3   5 21552.5 878.347  22
  -1   3   5 21562.5 1001.08  21
  -1  -3   5 20755.0 954.217  18
   1   3  -4 97821.5 2266.82  21
  -1   3   4 101207. 2420.51  21
  -1   3   4 100295. 2266.96   3
   1   3  -4 96296.8 1875.34   3
  -1   3   4 99991.8 2133.46  22
   1  -3  -4 106130. 2393.49  18
  -1  -3   4 99897.2 2325.45  18
   1  -3  -3 12337.3 734.021  18
   1   3  -3 11779.4 675.522  21
  -1   3   3 11898.8 657.932   3
  -1   3   3 11861.8 720.428  21
   1   3  -3 10944.9 506.099   3
  -1  -3   3 12167.8 728.407  18
  -1   3   3 12277.4 598.798  22
  -1   3   2 4207.55 430.224  21
  -1   3   2 4405.40 388.796   3
   1   3  -2 4234.01 315.895   3
   1   3  -2 4610.89 412.632  21
   1  -3  -2 4245.68 416.063  18
  -1  -3   2 4366.90 409.361  18
  -1   3   1 5.27424 90.3850  21
  -1  -3   1 16.2092 89.5586  18
   1   3  -1 13.6634 65.2467  22
   1  -3  -1 130.681 152.797  18
   1   3  -1 84.5202 55.4224   3
  -1  -3   1 24.3946 73.6162   1
  -1   3   1 163.691 98.8767   3
   1   3  -1 34.5725 92.4208  21
   1  -3   0 8691.95 455.776  19
  -1  -3   0 8682.74 488.452   1
  -1   3   0 7660.57 562.262  21
  -1  -3   0 8804.69 572.458  18
  -1   3   0 7629.79 499.545   3
   1   3   0 8548.07 410.050  22
   1   3   0 8253.23 569.259  21
   1  -3   0 8365.91 600.118  18
   1  -3   1 6006.26 400.460  19
  -1  -3  -1 6037.86 426.995   1
   1   3   1 6343.25 521.289  21
  -1   3  -1 6700.33 551.701  21
  -1   3  -1 5535.92 415.885   3
   1  -3   1 6149.08 538.376  18
   1   3   1 6512.35 382.784  22
  -1  -3  -1 6409.03 496.625  18
   1   3   2 137415. 2512.28  22
  -1   3  -2 135088. 2601.19   3
   1  -3   2 135421. 3005.19  18
  -1  -3  -2 139035. 2702.77   1
  -1  -3  -2 136134. 2849.15  18
   1   3   2 136505. 2901.41  21
  -1   3  -2 139118. 2960.35  21
   1   3   3 35795.5 1271.69  21
  -1  -3  -3 35404.6 1161.98   1
  -1   3  -3 37158.0 1332.08  21
   1   3   3 33428.9 1030.17  22
  -1  -3  -3 36080.8 1242.24  18
  -1   3  -3 33644.8 1022.81   3
   1  -3   3 34873.1 1333.13  18
  -1  -3  -4 12174.3 707.104  18
  -1  -3  -4 12482.3 683.711   1
   1   3   4 12055.9 717.904  21
   1  -3   4 10195.8 722.942  18
  -1   3  -4 10029.0 506.984   3
   1   3   4 11603.2 580.366  22
  -1   3  -4 11374.0 714.357  21
  -1  -3  -5 8249.46 581.403   1
   1   3   5 8622.88 524.823  22
  -1   3  -5 8189.67 623.625  20
  -1  -3  -5 8490.50 602.799  18
   1   3   5 8947.28 626.060  21
   1  -3   5 9159.98 677.056  18
  -1   3  -5 7991.29 588.734  21
  -1   3  -6 41410.1 1394.66  21
  -1  -3  -6 41731.0 1399.67  18
  -1   3  -6 40992.7 1508.54  20
   1   3   6 39473.3 1229.46  22
   1  -3   6 39510.4 1489.99  18
  -1  -3  -6 41827.6 1381.70   1
   1   3   6 39942.6 1379.64  21
   1   3   7 10449.2 680.141  21
  -1   3  -7 9980.87 787.397  20
   1  -3   7 10238.3 756.270  18
   1   3   7 10389.2 614.293  22
  -1   3  -7 11072.9 689.809  21
  -1  -3  -7 10160.9 678.578   1
  -1   3  -8 42718.5 1426.82  21
   1  -3   8 40114.1 1546.05  18
   1   3   8 38928.1 1283.56  22
   1   3   8 40158.1 1384.26  21
  -1  -3  -8 40111.6 1448.59   1
  -1   3  -8 41810.7 1574.55  20
  -1  -3  -9 9160.87 684.536   1
   1  -3   9 9341.89 739.913  18
   1   3   9 9543.38 646.451   3
  -1   3  -9 9598.70 657.254  21
   1   3   9 9763.82 626.625  22
  -1   3  -9 9697.41 753.724  20
   1   3   9 9300.93 641.861  21
  -1   3 -10 5454.63 584.053  20
   1  -3  10 5769.26 600.444  18
   1   3  10 5908.16 514.210   3
  -1   3 -10 6119.45 520.526  21
  -1  -3 -10 5756.91 554.907   1
   1   3  10 5912.45 504.427  22
   1   3  10 6016.48 508.337  21
   1   3  11 3976.89 431.792  21
   1   3  11 3943.37 430.675  22
  -1   3 -11 4637.70 448.573  21
  -1  -3 -11 3940.44 478.643   1
   1   3  11 4152.40 441.532   3
   1  -3  11 4094.66 507.206  18
  -1   3 -11 4242.77 524.874  20
   1   3  12 1926.33 305.107  22
  -1  -3 -12 1853.86 348.085   1
   1  -3  12 1831.51 342.037  18
   1   3  12 1685.19 270.602  21
  -1   3 -12 2657.28 427.122  20
   1   3  12 2141.34 326.969   3
   1   3  13 1456.93 269.714  21
   1   3  13 1294.06 262.068  22
  -1  -3 -13 1355.24 326.638   1
   1  -3  13 1184.76 309.739  18
  -1   3 -13 1073.04 313.191  20
   1   3  13 1858.08 329.249   3
   1   3  14 11413.4 713.622  21
  -1   3 -14 11455.0 879.160  20
   1  -3  14 10691.6 862.120  18
   1   3  14 11215.9 794.858   3
   1   3  14 10610.6 759.945  22
  -1  -3 -14 11733.1 902.846   1
   1   3  15 14811.3 937.497  22
  -1   3 -15 15177.7 1053.92  20
   1  -3  15 14085.0 1037.91  18
   1   3  15 15440.1 941.899   3
  -1  -3 -15 14316.0 1037.29   1
  -1   3 -16 71503.4 2473.53  20
   1   3  16 75498.1 2281.48  22
   1  -3  16 70923.6 2458.31  18
   1  -3  16 72046.4 1409.16  15
   1  -3  16 72089.7 1409.68  11
  -1  -3 -16 71360.4 2495.94   1
   1   3  16 77277.6 2266.12   3
  -1   3 -17 1993.91 422.220  20
  -1  -3 -17 1773.78 165.096  23
  -1  -3 -17 1781.92 166.623   4
   1  -3  17 1735.30 369.541  18
  -1  -3 -17 1414.54 334.518   1
   1  -3  17 1497.42 157.596  11
   1  -3  17 1639.26 169.865  15
   1   3  17 1898.39 362.342  22
   1   3  17 1812.60 334.861   3
  -1  -3 -18 139.205 64.6782   4
  -1  -3 -18-69.6424 191.048   1
   1   3  18 100.108 144.091   3
   1   3  18 33.9469 147.281  22
  -1   3 -18 111.452 149.253  20
  -1  -3 -18 139.080 78.4178  23
   1  -3  18 111.321 168.885  18
   1  -3  18 106.709 82.9216  15
  -1  -3 -19 3698.74 245.750  23
  -1  -3 -19 3857.49 254.754   4
   1  -3  19 3771.03 266.720  15
  -1  -3 -20 154.904 77.4649  23
   1  -3  20 84.5713 59.5607  15
  -1  -3 -20 192.735 64.1214   4
   1   3  20 103.080 63.8032   8
   1   3  20 74.2709 53.9248  13
   1   3  21-6.83277 56.9297   8
  -1  -3 -21-77.8631 71.8498   4
  -1  -3 -21 65.7511 64.6882  23
   1   3  21 40.0387 71.6951  13
   1   3  22 2104.74 176.524   8
  -1  -3 -22 2226.09 182.724  23
  -1  -3 -22 2214.69 193.040   4
   1   3  22 2207.80 181.637  13
   1   3  23 389.079 90.0263  13
  -1  -3 -23 210.876 65.5701   4
   1   3  23 253.571 68.0824   8
  -1  -3 -23 247.335 81.0220  23
   1   3  24 2014.32 160.891   8
  -1   3 -24 2019.88 184.185  23
   1   3  24 2087.44 176.372  13
  -1  -3 -24 1886.09 176.778   4
  -1  -3 -24 2003.86 167.893  23
  -1  -3 -25 305.181 83.6634   4
   1   3  25 113.498 55.8980   8
  -1   3 -25 58.4470 56.3674  23
   1   3  25 158.106 66.3264  13
  -1  -3 -25 217.845 75.1635  23
  -1  -3 -26 118.512 54.5253  23
  -1  -3 -26 157.765 66.9916   4
   1   3  26 56.3437 48.4325  13
   1   3  26 27.0784 40.7409   8
  -1   3 -26 28.5352 61.7128  23
  -1  -3 -27 778.402 109.773   4
  -1   3 -27 1034.24 123.602  23
   1   3  27 881.725 96.1614   8
   1   3  27 815.866 110.719  13
  -1  -3 -28 1496.80 129.167   4
   1   3  28 1612.56 116.246   8
  -1   3 -28 1766.13 145.451  23
   1   3  28 1699.77 138.626  13
   1   3  29 111.736 38.9410   8
   1   3  29 165.946 58.2823  13
  -1   3 -29 54.7613 46.0499  23
  -1  -3 -29 111.004 50.1828   4
  -1   3 -30 595.893 68.1148  23
   1   3  30 531.480 71.7994  13
   1   3  31 539.491 68.5203  13
  -1   3 -31 550.515 59.8339  23
  -1   4  29 1847.87 105.720   8
  -1   4  28 876.421 69.8055  13
  -1   4  28 883.085 85.1972   8
  -1   4  27 45.0559 40.0658   8
  -1   4  27 49.2076 31.6039  13
  -1   4  26 382.091 61.6197  13
  -1   4  26 229.460 60.3922   8
   1   4 -26 354.203 59.9604  23
  -1   4  25-46.4796 51.2711   8
  -1   4  25 56.4737 40.5324  13
   1   4 -25 83.2455 53.9562  23
  -1   4  24 81.3538 56.3869   8
  -1   4  24 35.2991 43.9339  13
  -1   4  23 45.9751 58.1419   8
  -1   4  23 107.785 52.8748  13
  -1   4  22 319.067 86.5098   8
   1  -4 -22 322.150 100.517   4
  -1   4  22 217.105 64.9413  13
  -1   4  21 377.881 84.2872  14
   1  -4 -21 317.653 103.888   4
  -1   4  21 359.344 97.5756   8
   1  -4 -20 25524.8 741.249   4
  -1   4  20 25624.4 676.531   8
  -1   4  20 25886.9 629.609  14
  -1   4  19 5413.86 259.965  14
  -1   4  19 5317.07 283.418   8
   1  -4 -19 5234.06 321.744   4
   1  -4 -18 2491.96 244.247   4
  -1   4  18 2491.26 195.865   8
  -1   4  18 2129.74 178.603  14
  -1   4  17 43380.9 945.503   8
  -1   4  17 43125.9 930.146  14
   1  -4 -17 44339.3 1039.24   4
   1  -4 -16 7905.73 388.908   4
  -1   4  16 7771.03 331.395   8
  -1   4  15 4995.19 258.309   8
   1  -4 -15 4474.50 280.111   4
   1   4 -14 2183.11 388.910  20
  -1   4  14 1723.68 154.346   8
  -1   4  14 1893.01 374.522  22
   1   4 -13 554.752 222.530  20
  -1   4  13 765.368 107.158   8
  -1  -4  13 751.164 132.191  11
  -1   4  13 466.316 235.684   3
  -1   4  13 474.319 178.101  22
  -1   4  12 3456.40 488.568  22
  -1   4  12 4362.10 545.633  21
   1   4 -12 4050.60 508.347  20
  -1   4  12 3255.55 482.365   3
  -1   4  12 3884.80 216.114   8
  -1  -4  12 3882.79 477.967  18
  -1  -4  12 3788.82 266.165  11
  -1  -4  11 417.344 184.430  18
  -1   4  11 846.287 283.457  21
  -1   4  11 567.099 87.5237   8
  -1   4  11 649.885 215.254   3
  -1   4  11 381.691 135.960  22
   1   4 -11 662.700 220.151  20
  -1  -4  11 711.368 135.237  11
  -1  -4  10 3884.32 243.754  11
  -1   4  10 3972.60 508.389  21
  -1   4  10 3563.33 487.277   3
  -1   4  10 3237.44 431.530  22
   1   4 -10 3949.26 500.070  20
  -1  -4  10 3994.37 470.892  18
   1   4  -9 4444.82 486.642  21
  -1   4   9 3286.32 486.539  21
   1  -4  -9 3962.81 475.656  18
   1   4  -9 3590.27 497.477  20
  -1  -4   9 4088.84 483.960  18
  -1   4   9 3811.00 512.468   3
  -1   4   9 3869.68 450.963  22
  -1   4   8 44301.9 1737.12  21
   1   4  -8 42562.6 1560.82  21
   1   4  -8 39944.8 1643.68  20
  -1   4   8 39835.3 1493.43  22
   1  -4  -8 43072.8 1604.05  18
  -1  -4   8 40915.4 1585.91  18
  -1   4   8 40998.9 1663.41   3
   1   4  -7 1676.81 324.590  21
   1   4  -7 1624.96 382.217  20
  -1  -4   7 1876.59 341.861  18
   1  -4  -7 1931.95 353.842  18
  -1   4   7 2608.05 438.174  21
  -1   4   7 2250.63 393.983   3
   1   4  -6 54762.7 1819.37  21
   1   4  -6 52773.5 1896.10  20
   1  -4  -6 51063.0 1784.38  18
  -1  -4   6 51390.7 1779.74  18
  -1   4   6 46853.4 1722.04   3
  -1   4   6 53166.0 1934.39  21
  -1   4   5 16219.0 1044.42  21
   1   4  -5 14925.8 915.095  21
  -1  -4   5 13445.1 867.825  18
   1  -4  -5 14441.8 903.402  18
  -1   4   5 13792.8 874.054   3
  -1   4   4 22381.0 1228.79  21
   1  -4  -4 20893.9 1103.27  18
  -1  -4   4 21083.1 1085.88  18
   1   4  -4 21442.6 1108.96  21
  -1   4   4 20586.2 1053.95   3
  -1   4   3 12892.9 918.972  21
   1   4  -3 13097.4 872.550  21
  -1  -4   3 13377.8 858.401  18
   1  -4  -3 13869.9 892.987  18
  -1   4   3 13845.6 834.025   3
  -1   4   2 6039.72 642.950  21
   1   4  -2 5787.53 571.976  21
   1  -4  -2 6277.12 610.428  18
  -1  -4   2 5919.13 562.444  18
  -1   4   2 5893.66 530.469   3
  -1   4   1-63.3031 123.918  21
   1  -4  -1 247.587 150.414  18
  -1  -4   1 185.399 107.965  18
   1   4  -1 219.533 158.050  21
  -1   4   1-197.427 133.970   3
  -1   4   0 143.222 182.190  21
   1  -4   0 86.3727 156.796  18
  -1  -4   0 148.578 148.935  18
  -1   4   0 21.4447 108.120   3
   1   4   0 54.1566 157.291  21
   1   4   0 81.2937 81.4595   3
   1   4   1 874.201 185.119   3
   1   4   1 979.460 262.212  21
  -1  -4  -1 753.839 213.852  18
   1  -4   1 925.803 264.389  18
  -1   4  -1 870.959 269.110  21
  -1   4  -2 153.728 196.431  21
  -1  -4  -2 284.836 154.942  18
   1   4   2 399.622 170.084   3
   1   4   2 180.348 163.023  21
   1  -4   2 156.392 183.926  18
  -1   4  -3 786.986 249.157  21
  -1  -4  -3 694.669 203.909  18
   1  -4   3 715.805 215.245  18
   1   4   3 787.408 175.117   3
   1   4   3 1137.61 277.458  21
  -1   4  -4 279.451 154.519  20
  -1   4  -4 679.940 236.516  21
   1  -4   4 628.036 234.929  18
  -1  -4  -4 303.123 99.7206  18
   1   4   4 272.764 153.203  21
   1   4   4 137.765 110.072   3
  -1   4  -5 99.3361 175.863  20
  -1   4  -5 385.555 188.425  21
   1  -4   5 427.108 213.416  18
  -1  -4  -5 450.184 181.411  18
   1   4   5 223.577 131.639  21
   1   4   5 329.697 137.939   3
   1   4   6 1987.97 339.880   3
   1   4   6 2362.34 383.134  21
   1  -4   6 2234.30 403.291  18
  -1   4  -6 2270.27 408.223  20
  -1  -4  -6 2502.36 407.139  18
  -1   4  -6 1619.78 302.364  21
  -1   4  -7 823.142 265.386  21
   1  -4   7 1085.44 309.542  18
  -1   4  -7 1462.21 326.059  20
   1   4   7 782.992 201.901  22
   1   4   7 1021.62 289.898  21
   1   4   7 1119.31 248.555   3
   1   4   8 295.046 187.661  21
  -1   4  -8 532.631 228.208  20
   1  -4   8 277.673 181.070  18
   1   4   8 382.947 141.500  22
   1   4   8 275.517 152.714   3
  -1   4  -8 372.809 147.846  21
   1  -4   9 19.7106 72.5928  11
  -1   4  -9-70.1785 152.579  21
  -1   4  -9 37.0595 124.932  20
   1   4   9-110.365 183.215  22
   1  -4   9-106.059 119.705  18
   1   4   9 255.043 177.549  21
   1   4   9 241.311 168.469   3
   1   4  10 951.972 256.299  21
   1  -4  10 867.777 248.013  18
  -1   4 -10 843.567 193.323  21
   1   4  10 1083.06 253.267   3
   1  -4  10 1334.95 150.571  15
   1   4  10 1052.47 239.504  22
   1  -4  10 939.414 130.395  11
  -1   4 -10 570.319 174.015  20
  -1   4 -11-118.340 126.737  20
   1   4  11 334.281 169.279  21
   1  -4  11 82.2559 66.0911  15
   1  -4  11-28.0396 170.847  18
   1   4  11 22.8253 95.2304   3
   1   4  11 15.5194 104.182  22
   1  -4  11 157.673 72.8497  11
   1   4  12 8959.94 740.869  21
   1  -4  12 9449.23 406.571  11
   1  -4  12 10379.3 878.280  18
   1  -4  12 9616.33 406.655  15
   1   4  12 9280.53 762.754   3
   1   4  12 8262.49 684.987  22
  -1   4 -12 8769.99 832.470  20
  -1  -4 -12 8899.84 369.073  23
   1   4  13 185.764 160.011  21
  -1   4 -13-79.6595 200.192  20
   1  -4  13-141.455 117.180  18
   1  -4  13 81.1569 69.1033  11
  -1  -4 -13 91.8873 67.7155  23
   1   4  13 332.408 187.550   3
   1   4  13-44.4724 115.632  22
   1  -4  13 178.887 87.9556  15
   1  -4  14 1695.25 196.237  11
   1  -4  14 1514.11 185.035  15
  -1  -4 -14 1019.29 150.110  23
   1  -4  15 33477.7 852.539  15
  -1  -4 -15 31254.8 799.125  23
   1  -4  15 31833.2 852.247  11
   1  -4  16 9668.44 439.199  11
   1  -4  16 9412.89 420.236  15
   1   4  16 9799.45 348.496  13
  -1  -4 -16 10154.5 412.066  23
   1   4  17 13810.9 427.972  13
   1  -4  17 12801.6 508.553  15
  -1  -4 -17 13828.1 480.409  23
   1   4  17 14375.6 452.720   8
   1  -4  17 13190.3 522.268  11
   1   4  18 35929.8 784.369  13
  -1  -4 -18 35685.1 840.074  23
   1   4  18 35444.8 807.926   8
   1  -4  18 36925.4 922.697  15
   1   4  19 418.219 101.166   8
  -1  -4 -19 450.471 106.484  23
   1   4  19 521.527 97.4022  13
   1   4  20 6816.41 290.945  13
   1   4  20 6440.27 295.159   8
   1   4  21 3883.54 228.223   8
   1   4  21 3985.28 220.054  13
   1   4  22 1320.03 130.486   8
   1   4  22 1213.87 125.206  13
   1   4  23 91.8682 63.8161   8
   1   4  23-36.0127 43.2563  13
   1   4  24 553.397 90.1241   8
   1   4  24 655.178 90.5361  13
   1   4  25 67.8056 46.9757   8
  -1   4 -25 119.684 61.4770  23
   1   4  25 145.522 54.9174  13
   1   4  26 84.9713 48.1233   8
  -1   4 -26 131.699 47.6978  23
   1   4  26 26.7963 35.9761  13
   1   4  27 2266.33 129.138   8
  -1   4 -27 2514.29 147.229  23
   1   4  27 2291.67 130.050  13
   1   4  28 190.748 43.6859   8
   1   4  28 190.094 44.7065  13
  -1   4 -28 257.566 54.3922  23
  -1   5  25 25.6439 33.8399   8
   1   5 -24 115.181 38.7588  23
  -1   5  24 103.039 37.6431   8
  -1   5  23 761.824 89.9095   8
  -1   5  22 284.542 62.7506   8
  -1   5  22 256.739 55.1726  14
  -1   5  21 593.242 83.8042   8
  -1   5  21 415.575 74.3537  14
  -1   5  20 4797.95 229.769   8
  -1   5  20 4473.10 210.878  14
  -1   5  19 390.522 73.6682  14
  -1   5  19 387.782 84.5343   8
  -1   5  18 1406.60 135.215   8
  -1   5  18 1377.17 140.420  14
  -1   5  17 16653.1 491.678  14
  -1   5  17 17033.4 489.167   8
  -1   5  16 1117.70 134.096   8
  -1   5  16 864.897 128.544  14
  -1   5  15 424.847 87.6089   8
  -1   5  15 284.086 73.4531  14
  -1   5  14 8051.37 341.283  14
  -1   5  14 7711.89 313.409   8
  -1   5  13 2156.80 169.134   8
  -1   5  13 2577.59 216.618  14
  -1   5  12 314.946 80.4051   8
  -1   5  11 757.420 108.165   8
  -1  -5  11 573.356 116.821  11
  -1   5  10 3743.44 214.130   8
  -1  -5  10 4048.20 277.958  11
   1  -5  -9 4290.20 263.201  11
  -1  -5   9 4135.98 290.845  11
   1  -5  -8 37145.1 867.095  11
  -1  -5   8 36429.1 909.444  11
   1  -5  -7 16385.7 539.760  11
  -1  -5   7 17055.1 569.604  11
   1  -5  -6 41066.2 953.667  11
  -1  -5   6 44336.9 988.346  11
   1  -5  -5 8134.98 373.799  11
  -1  -5   5 8334.65 370.429  11
   1  -5  -4 4336.48 262.936  11
  -1  -5   4 4328.82 252.724  11
   1  -5  -3 350.656 96.4084  11
  -1  -5   3 439.906 81.7214  11
   1  -5  -2 174.666 79.3579  11
   1  -5  -1 362.442 95.5945  11
   1  -5   0 2476.51 213.586  11
   1  -5   1 710.476 126.285  11
   1  -5   2 2645.43 213.989  11
   1  -5   3 1686.01 177.202  11
   1  -5   4 11002.7 450.497  11
   1  -5   5 13170.4 499.607  11
   1  -5   6 41080.2 914.881  15
   1  -5   6 41346.6 990.830  11
   1  -5   7 4504.90 274.478  15
   1  -5   7 4387.94 316.825  11
   1  -5   8 455.288 121.730  11
   1  -5   8 533.595 113.042  15
   1  -5   9 424.326 105.897  11
   1  -5   9 290.676 90.2739  15
   1  -5  10 7.91291 54.2287  15
   1  -5  10-47.7925 67.8936  11
   1  -5  11 386.089 102.082  11
   1  -5  11 318.797 85.2702  15
   1   5  12 4060.42 219.328   8
   1  -5  12 3364.81 262.202  11
   1  -5  12 3410.07 236.313  15
   1  -5  13 353.441 95.0129  11
   1  -5  13 219.841 72.3358  15
   1   5  13 416.723 89.3300   8
   1  -5  14 117.219 82.1757  11
   1   5  14 363.501 89.3800   8
   1  -5  14 141.597 69.1724  15
   1  -5  15 1351.36 176.101  11
   1   5  15 1551.26 142.798   8
   1  -5  15 1357.49 159.832  15
   1   5  16 202.860 64.7520   8
   1   5  17 1672.96 138.368   8
   1   5  18 1253.49 121.096   8
   1   5  19 450.977 80.8435   8
   1   5  20 326.230 74.8223   8
   1   5  20 260.279 54.9977  14
   1   5  21 860.657 96.2180   8
   1   5  21 502.545 64.3547  14
   1   5  22 780.504 86.3354   8
  -1   5 -23 308.266 64.5543  23
   1   5  23 152.810 47.6277   8
   1   5  24 133.879 43.5613   8
  -1   5 -24 141.571 43.7733  23
   1   5  25 23.6858 29.6065   8
  -1   6  19 153.078 37.4946   8
  -1   6  19 77.2215 33.4030  14
  -1   6  18 963.096 83.1368   5
  -1   6  18 1162.65 79.1663   8
  -1   6  18 1109.63 91.3862  14
  -1   6  17 64.7041 41.4731   5
  -1   6  17 74.7346 49.7371  14
  -1   6  17-43.4177 36.9902   8
  -1   6  16 1727.41 128.789   5
  -1   6  16 1789.81 106.978   8
  -1   6  16 1861.67 131.697  14
  -1   6  15 50.2511 33.7305   8
  -1   6  15 94.9328 56.9765  14
  -1   6  14 620.218 68.2737   8
  -1   6  14 664.736 85.6216  14
  -1   6  13 759.417 101.670  14
  -1   6  12 227.328 72.3022  14
  -1   6  11 349.232 75.1604  14
  -1   6  10 1958.63 163.041  14
  -1   6   9 2645.44 178.040  14
  -1   6   8 2080.18 170.885  14
  -1   6   7 5477.02 264.052  14
  -1   6   6 2323.75 177.329  14
   1  -6  -6 1976.89 157.157  11
   1  -6  -5-4.39412 50.8827  11
  -1  -6   5 182.631 72.4066  11
  -1   6   5 93.3550 63.2612  14
  -1   6   4 2209.04 162.759  14
   1  -6  -4 2298.92 176.341  11
   1  -6  -3 155.958 67.6329  11
  -1   6   3 48.5874 51.9632  14
   1  -6  -2-25.7961 54.7488  11
  -1   6   2-35.3040 56.1643  14
   1  -6  -1 133.449 58.6165  11
  -1   6   1 9.31408 57.9505  14
   1  -6   0 398.675 91.1900  11
  -1   6   0 452.124 79.2226  14
  -1   6  -1 117.964 76.8086   5
   1  -6   1 186.514 78.7158  11
  -1   6  -2 13121.4 445.399   5
   1  -6   2 14327.5 484.428  11
   1  -6   3 3410.88 235.139  11
  -1   6  -3 2711.38 195.815   5
  -1   6  -4 1312.53 142.105   5
   1  -6   4 1519.50 202.032  11
   1  -6   5 41142.5 940.183  11
   1  -6   6 26064.5 704.189  11
   1  -6   7 25104.8 690.861  11
   1  -6   8 11487.1 438.302  11
   1  -6   9 479.367 111.130  11
   1   6  10 4105.69 179.490   8
   1  -6  10 4116.72 251.901  11
   1  -6  11 68.1267 58.6039  11
   1   6  11 70.9830 47.0970   8
   1   6  12 677.636 76.7059   8
   1  -6  12 531.631 103.803  11
   1   6  13 602.150 73.0902   8
   1   6  14-51.8542 39.2677   8
   1   6  15 133.913 39.9404   8
   1   6  15 112.727 64.2353  14
   1   6  16 278.623 57.3377  14
   1   6  16 288.906 51.5163   8
   1   6  17 289.735 52.4562  14
   1   6  17 346.655 51.9277   8
   1   6  18 673.223 64.8351   8
   1   6  18 706.486 70.4627  14
   1   6  19 4207.33 145.673   8
   1   6  19 3678.45 135.642  14
  -1   7   9 545.810 58.8858  14
  -1   7   9 481.651 64.6829   5
  -1   7   8 394.880 63.3954   5
  -1   7   8 409.648 55.6932  14
  -1   7   7 5674.65 208.795   5
  -1   7   7 5599.89 181.098  14
  -1   7   6 2705.98 145.690   5
  -1   7   6 2555.69 119.019  14
  -1   7   5 982.150 101.658   5
  -1   7   5 786.467 69.7662  14
  -1   7   4 14604.2 361.125   5
  -1   7   4 13602.5 297.039  14
  -1   7   3 2590.56 143.662   5
  -1   7   2 884.475 83.7972   5
  -1   7   1 101.752 36.8464   5
   1  -7   0 100.575 34.1380  11
  -1   7   0 141.899 36.4150   5
   1   7   1 99.4550 35.7317   5
   1  -7   1 99.7086 42.9432  11
  -1   7  -1 140.049 35.4847   5
   1   7   2 800.138 72.2914   5
   1  -7   2 964.028 88.2694  11
   1   7   3 19.3445 35.5963   5
   1   7   3 100.706 33.1559  14
   1   7   4 1137.30 77.4483  14
   1   7   5 568.437 58.6930  14
   1   7   6 188.259 41.2110  14
   1   7   7 138.420 36.8932  14
   1   7   8 264.488 44.2431  14
   2   0 -34 5552.93 216.006   4
  -2   0  34 4712.52 187.758  13
  -2   0  33-59.9777 46.2983  13
  -2   0  32 341.935 70.7201  13
  -2   0  31 18.8087 53.0843  13
  -2   0  30 2285.39 179.672  13
  -2   0  29 79.6919 56.3274  13
  -2   0  28 17173.9 555.028  13
  -2   0  27 499.627 132.409  13
  -2   0  26 37112.6 897.390  13
  -2   0  25 319.940 105.786  13
  -2   0  24 39484.3 954.301   7
  -2   0  24 38203.8 914.453  13
  -2   0  23 76.2518 67.1574  13
  -2   0  23 84.9182 69.6166   7
  -2   0  23 260.016 207.420   2
  -2   0  22 11524.0 444.686   7
  -2   0  22 11280.4 420.165  13
  -2   0  22 10801.4 843.251   2
  -2   0  21 77.9221 57.1026   7
  -2   0  21 48.6343 99.1373   2
  -2   0  20 15356.1 944.749   2
  -2   0  19 61.8585 132.450   2
   2   0 -19-11.3993 128.049  20
   2   0 -18 5101.30 487.166  20
  -2   0  18 5639.30 533.668   2
   2   0 -17-172.955 150.772  20
  -2   0  17-62.2747 109.902   2
  -2   0  16 2959.87 351.444   2
   2   0 -16 3054.18 352.308  20
   2   0 -15-20.4919 75.8745  20
  -2   0  15 285.010 160.363   2
   2   0 -14 20104.7 840.604  20
  -2   0  14 20662.8 903.046   2
   2   0 -13 821.608 197.472  20
  -2   0  13 526.921 184.364   2
  -2   0  12 8398.94 514.756   2
   2   0 -12 8100.57 460.899  20
   2   0 -11 7.15295 76.9529  20
  -2   0  11 74.5687 113.443   2
  -2   0  10 3271.81 300.886   2
   2   0 -10 2986.03 245.411  20
  -2   0   9-4.92647 72.5148   2
   2   0  -9 90.5994 65.3095  20
   2   0  -8 14541.0 469.230  20
  -2   0   8 15332.7 606.376   2
   2   0  -7-3.77828 34.9401  20
  -2   0   7 73.0011 78.4836   2
  -2   0   6 13477.3 482.439  21
   2   0  -6 12397.8 339.186  20
   2   0  -6 13176.9 588.115  19
  -2   0   6 12812.8 510.710   2
  -2   0   5 653.232 134.490  21
   2   0  -5 510.560 141.595  19
  -2   0   5 486.362 135.890   1
  -2   0   5 390.290 131.662   2
  -2   0   4 45573.5 1051.70  21
   2   0  -4 45854.3 1144.29  19
  -2   0   4 47179.0 1170.02   1
  -2   0   4 43208.2 1023.97   2
   2   0  -3 3283.09 321.282  19
  -2   0   3 4203.93 354.666   1
  -2   0   1 1595.03 226.598   1
   2   0  -1 1126.17 191.717  19
  -2   0   0 781492. 10737.4   1
   2   0   0 749124. 10670.9  19
  -2   0  -1 2520.48 168.235  20
   2   0   1 2211.38 238.997  19
  -2   0  -2 115992. 1875.21  20
  -2   0  -2 118857. 2153.04   1
   2   0   2 117674. 2131.43  19
  -2   0  -3 928.718 187.570  21
   2   0   3 720.345 156.038  19
  -2   0  -3 699.205 131.066  20
  -2   0  -3 856.903 175.107   1
  -2   0  -4 107280. 1946.90  20
   2   0   4 112205. 2096.53  19
  -2   0  -4 110157. 2113.49  21
  -2   0  -4 110692. 2107.94   1
   2   0   5 63.5112 76.4581  19
   2   0   5 31.0349 60.7923  22
  -2   0  -5 4.30124 63.2262  20
  -2   0  -5 75.9091 86.0279   1
  -2   0  -6 10620.2 501.868  20
   2   0   6 10936.2 526.605  19
   2   0   6 11758.6 492.534  22
  -2   0  -6 11419.3 548.653   1
  -2   0  -7 249.893 135.238  20
   2   0   7 258.279 105.631  19
  -2   0  -7 315.959 136.808   1
   2   0   7 360.187 111.038  22
  -2   0  -8 27951.4 941.210  20
  -2   0  -8 27643.4 964.490   1
   2   0   8 27904.7 832.710  22
   2   0   8 27680.4 943.144  19
   2   0   9 80.6927 85.0443  19
  -2   0  -9 142.217 99.7572  20
  -2   0  -9 142.976 131.411   1
   2   0   9 246.656 98.8624  22
   2   0  10 108652. 2074.42  22
  -2   0 -10 105910. 2331.04  20
  -2   0 -10 103197. 2312.59   1
  -2   0 -11 1828.02 325.600  20
   2   0  11 1831.87 275.774  22
  -2   0 -11 1695.46 336.020   1
  -2   0 -12 392459. 6494.21   1
  -2   0 -12 398379. 6578.44  20
   2   0  12 400778. 6102.62  22
  -2   0 -13 167.004 124.246   1
   2   0  13 69.7574 58.8336  22
  -2   0 -13 141.745 88.9325  20
   2   0  14 7917.72 500.264  22
  -2   0 -14 8371.92 654.562  20
  -2   0 -14 8239.76 634.448   1
   2   0  15-5.36426 65.6355  22
  -2   0 -15 4.37845 135.918  20
  -2   0 -15 122.280 117.849   1
   2   0  16 234.674 116.281  22
  -2   0 -16 223.826 158.989  20
  -2   0 -16 131.539 170.991   1
  -2   0 -17 193.368 168.244  20
  -2   0 -17 16.3103 117.555   1
   2   0  17 73.0438 96.1361  22
  -2   0 -18 3514.44 506.645  20
  -2   0 -18 2934.24 430.445   1
   2   0  18 3290.40 358.209  22
  -2   0 -19 144.991 154.879   1
  -2   0 -19 217.924 151.581  20
  -2   0 -20 741.122 245.800   1
  -2   0 -20 498.913 198.831  20
  -2   0 -20 752.437 117.681  23
   2   0  20 948.090 123.848   7
  -2   0 -21 223.273 245.959  20
  -2   0 -21 466.014 120.433  23
  -2   0 -21 220.925 173.066   1
   2   0  21 560.059 108.436   7
   2   0  21 566.554 97.2639  13
  -2   0 -22 1715.45 355.792   1
  -2   0 -22 1944.84 199.842  23
   2   0  22 2104.77 182.922   7
   2   0  22 2343.48 165.753  13
   2   0  23 14.4573 58.1275   7
  -2   0 -23 46.1239 78.8247  23
   2   0  23 62.0958 45.9677  13
  -2   0 -24 9049.70 406.564  23
   2   0  24 8119.96 369.694   7
   2   0  24 8629.71 338.235  13
  -2   0 -25 129.172 106.490  23
   2   0  25 179.944 74.2789   7
   2   0  25 205.622 70.7324  13
  -2   0 -26 3560.63 249.165  23
   2   0  26 3754.11 247.987   7
   2   0  26 3659.17 218.737  13
   2   0  27 120.702 53.9872  13
   2   0  27 10.8344 61.2342   7
  -2   0 -27 61.6708 64.4150  23
  -2   0 -28 2591.84 202.167  23
   2   0  28 2381.02 193.918   7
   2   0  28 2462.95 165.303  13
   2   0  29 73.6080 57.4831   7
  -2   0 -29 103.894 80.6340  23
   2   0  29 47.0528 48.5938  13
  -2   0 -30 1092.51 120.017  23
   2   0  30 1001.69 126.578   7
   2   0  30 872.651 91.7903  13
  -2   0 -31-6.54937 48.7063  23
   2   0  31-32.3984 47.1142   7
  -2   0 -32 687.457 83.3030  23
   2   0  32 565.123 85.9631   7
   2   0  33-19.0738 37.8879   7
  -2   0 -33-16.8455 30.6765  23
   2  -1 -34 128.046 44.1576   4
  -2   1  34 98.1913 37.6812  13
   2  -1 -33 96.7629 55.1242   4
  -2   1  33-0.47778 44.6798  13
   2  -1 -32 160.323 60.0371   4
  -2   1  32 8.27375 43.2835  13
  -2   1  31 216.619 66.9218  13
  -2  -1  31 283.601 63.8913  13
   2  -1 -31 383.771 95.3022   4
  -2   1  30 151.363 72.5711  13
  -2  -1  30 261.096 70.9552  13
  -2  -1  29 42.5279 56.6347  13
  -2   1  29-28.8416 62.1198  13
  -2   1  28 26.9534 67.1694  13
  -2  -1  28 63.5439 62.2860  13
  -2  -1  27 1404.54 151.346  13
  -2   1  27 1396.66 156.590  13
  -2  -1  26 2020.04 185.341  13
  -2   1  26 2292.99 201.062  13
  -2   1  25 12030.2 428.385   8
  -2  -1  25 11298.9 440.613  13
  -2   1  25 12292.1 485.516  13
  -2   1  24 29573.2 778.849  13
  -2  -1  24 28980.7 754.556  13
  -2   1  24 29403.7 705.461   8
  -2  -1  24 30283.3 800.148   7
  -2   1  23 18212.4 1057.90   2
   2  -1 -23 15514.8 1136.08  19
  -2   1  23 17044.8 511.002   8
  -2  -1  23 18002.5 581.450   7
  -2  -1  23 17807.9 549.563  13
  -2   1  23 16562.2 563.530  13
  -2  -1  22 5036.69 576.480   2
  -2   1  22 4958.11 554.410   2
   2  -1 -22 4357.60 608.256  19
  -2   1  22 4270.72 240.009   8
  -2  -1  22 4473.22 267.691   7
  -2  -1  22 4267.46 246.321  13
  -2   1  22 4491.60 268.615  13
  -2   1  21 947.539 126.849  13
  -2   1  21 819.749 209.672   2
  -2  -1  21 900.887 232.508   2
  -2   1  21 829.264 124.663   7
   2  -1 -21 582.887 203.091  19
  -2  -1  21 825.887 121.693   7
  -2   1  20 982.684 243.892   2
  -2  -1  20 988.911 262.823   2
   2  -1 -20 858.612 259.241  19
   2  -1 -19 893.017 284.379  19
  -2   1  19 793.284 216.476   2
  -2  -1  19 1188.00 267.406   2
   2  -1 -18 1508.49 324.801  19
  -2   1  18 1647.59 308.948   2
  -2  -1  18 1834.79 313.753   2
  -2   1  18 1446.86 265.946   3
   2   1 -17 137.258 67.0488  20
  -2   1  17 199.099 132.879   2
  -2  -1  17 107.347 109.669   2
  -2   1  17 242.232 137.461   3
   2  -1 -17 125.613 103.422  19
  -2   1  16 2378.75 331.508   2
   2   1 -16 2329.03 310.800  20
  -2  -1  16 2750.27 357.310   2
   2  -1 -16 2569.71 405.731  19
  -2   1  16 2038.12 319.622   3
   2   1 -15 4566.20 417.106  20
  -2  -1  15 4379.79 440.433   2
  -2   1  15 4251.96 437.651   2
   2  -1 -15 4160.48 495.083  19
  -2   1  15 3970.13 406.697   3
   2   1 -14 2048.96 259.588  20
  -2  -1  14 2221.84 294.645   2
   2  -1 -14 1843.74 328.124  19
  -2   1  14 1983.05 283.906   2
  -2   1  14 1825.04 273.784   3
   2   1 -13 360.871 113.595  20
   2  -1 -13 215.330 170.452  19
  -2   1  13 217.302 124.111   2
  -2  -1  13 250.849 116.508   2
  -2   1  13 130.317 78.4601   3
  -2   1  12 9104.37 556.728   2
   2  -1 -12 8065.42 589.180  19
  -2  -1  12 9339.94 557.393   2
  -2   1  12 8590.75 552.559   3
   2   1 -12 9201.50 495.588  20
  -2  -1  11 21537.5 832.266   2
  -2   1  11 19996.6 638.180  21
   2   1 -11 19897.3 721.336  20
  -2   1  11 19781.6 833.527   3
   2  -1 -11 19355.9 901.032  19
  -2   1  11 20183.2 821.967   2
   2   1 -10 46700.1 1128.61  20
   2  -1 -10 43908.3 1367.32  19
  -2  -1  10 46428.4 1244.20   2
  -2   1  10 44371.3 1304.19   3
  -2   1  10 44468.8 1260.24   2
  -2   1  10 45206.0 1079.03  21
  -2  -1   9 9052.44 489.601   2
  -2   1   9 8569.81 513.657   3
   2   1  -9 9109.76 424.055  20
  -2  -1   9 8119.18 283.397  18
  -2   1   9 8265.43 416.887  21
  -2   1   9 7431.32 489.092   2
   2  -1  -9 8865.20 555.470  19
  -2  -1   8 41201.0 1070.76   2
   2  -1  -8 39855.2 1204.86  19
  -2   1   8 39647.6 1110.76   2
  -2   1   8 39976.7 1143.87   3
   2   1  -8 39503.2 928.521  20
  -2   1   8 39801.4 1018.44  21
  -2  -1   8 38432.5 743.900  18
  -2   1   7 703.408 141.186  21
   2   1  -7 634.649 103.365  20
   2  -1  -7 614.109 87.4749  18
  -2  -1   7 421.600 105.338   2
  -2  -1   7 460.534 142.051   1
  -2   1   7 693.399 152.473   3
  -2  -1   7 497.787 67.6635  18
   2  -1  -7 685.142 162.735  19
  -2  -1   6 4040.05 280.711   2
   2   1  -6 4158.18 221.703  20
   2  -1  -6 4323.94 355.948  19
   2  -1  -6 4268.33 209.575  18
  -2   1   6 4023.31 298.220  21
  -2  -1   6 4065.43 179.079  18
  -2   1   6 4145.60 330.681   3
  -2  -1   6 4226.48 358.474   1
  -2   1   5 9463.38 478.815  21
  -2  -1   5 8313.38 396.415   2
   2   1  -5 8693.90 317.223  20
  -2  -1   5 8565.72 286.680  18
   2  -1  -5 8718.31 329.559  18
  -2   1   5 9379.41 488.509   3
  -2  -1   5 8464.35 494.376   1
   2  -1  -5 9161.03 507.042  19
  -2  -1   4 133011. 2230.42   2
   2   1  -4 137226. 2401.89  19
  -2   1   4 129936. 2447.05   3
  -2  -1   4 134146. 2057.34  18
  -2  -1   4 134427. 2560.65   1
  -2   1   4 132606. 2444.56  21
   2  -1  -4 132150. 2526.16  19
   2  -1  -4 134986. 2169.22  18
   2   1  -4 137854. 2087.42  20
   2   1  -3 216107. 3428.20  19
  -2   1   3 220520. 3554.32  21
   2  -1  -3 210374. 3278.17  18
  -2  -1   3 210949. 3640.85   1
   2  -1  -3 216592. 3617.24  19
  -2   1   3 214686. 3539.12   3
  -2  -1   3 212137. 3232.14   2
   2  -1  -2 960929. 13661.4  19
   2  -1  -2 990501. 13361.8  18
  -2  -1   2 983755. 13732.1   1
   2   1  -2 999999. 13432.3  19
  -2   1   2 951858. 13572.2  21
  -2  -1   1 322298. 4531.60   2
   2   1  -1 320960. 4783.76  19
  -2  -1   1 320238. 5101.38   1
   2  -1  -1 320341. 4803.04  18
   2  -1  -1 326977. 5081.36  19
  -2   1   1 325483. 4995.04  21
  -2   1   1 323855. 4762.71   1
  -2  -1   0 197490. 2785.91   2
   2  -1   0 192893. 3327.94  19
   2   1   0 195854. 3054.26  19
   2  -1   0 190462. 3136.09  18
  -2  -1   0 193122. 3363.05   1
  -2   1   0 192043. 3030.39   1
  -2   1   0 196175. 3284.85  21
  -2   1  -1 100135. 1924.80  20
   2  -1   1 108224. 2160.74  19
  -2  -1  -1 107710. 2198.85   1
  -2   1  -1 107668. 2132.46  21
   2   1   1 111494. 1910.98  19
  -2   1  -1 108251. 1890.58   1
  -2  -1  -1 113839. 1610.68   2
   2  -1   1 108153. 2045.57  18
   2   1   1 105152. 2020.78  22
  -2  -1  -2 250169. 4103.08   1
  -2   1  -2 248311. 3804.09  20
   2   1   2 252851. 3703.43  19
   2   1   2 247691. 3904.68  22
  -2   1  -2 249849. 3721.76   1
  -2  -1  -2 240379. 3336.00   2
   2  -1   2 252549. 3954.08  18
  -2   1  -2 250602. 4016.81  21
   2  -1   2 250083. 4054.38  19
  -2   1  -3 772.664 158.994  20
   2  -1   3 961.253 197.961  19
  -2   1  -3 984.953 151.968   1
   2  -1   3 1003.43 199.400  18
   2   1   3 857.427 129.586  19
  -2  -1  -3 832.373 216.197   1
   2   1   3 870.257 174.965  22
  -2   1  -3 1147.43 225.351  21
  -2   1  -4 27671.9 910.756  21
  -2  -1  -4 26902.0 942.800   1
   2   1   4 28082.7 842.242  22
  -2  -1  -4 26498.7 833.248  20
  -2   1  -4 27336.4 740.990   1
   2   1   4 27943.7 720.508  19
   2  -1   4 27324.2 929.765  19
  -2   1  -4 26933.0 817.555  20
   2  -1   4 28231.4 918.452  18
  -2  -1  -5 1068.32 179.630  20
   2  -1   5 1275.76 215.851  19
   2  -1   5 1217.45 215.829  18
  -2  -1  -5 1208.25 216.875   1
   2   1   5 1338.50 151.205  19
   2   1   5 1199.29 170.428  22
  -2   1  -5 1230.57 186.783  20
  -2   1  -5 1564.91 226.106  21
  -2   1  -5 1307.80 168.820   1
  -2  -1  -6 240.033 115.656  20
  -2   1  -6 281.379 88.5035  20
   2   1   6 232.318 77.2004  19
   2  -1   6 173.341 107.557  19
   2  -1   6 259.632 120.527  18
  -2  -1  -6 310.471 144.705   1
   2   1   6 269.923 97.1433  22
  -2   1  -6 146.265 82.9343   1
  -2   1  -6 265.745 101.135  21
   2  -1   6 210.393 79.2049  22
  -2   1  -7 1946.61 218.579   1
  -2  -1  -7 1967.75 251.493  20
  -2   1  -7 2115.46 253.289  20
   2  -1   7 2039.80 289.373  18
  -2  -1  -7 2026.16 281.347   1
   2   1   7 2101.36 231.981  22
   2  -1   7 1866.00 258.240  19
  -2   1  -7 1802.91 250.592  21
   2  -1   7 2159.38 190.150  22
   2  -1   8 7922.73 543.563  19
   2   1   8 7426.85 441.109  22
  -2   1  -8 8434.27 434.014   1
  -2   1  -8 8220.52 512.000  20
  -2   1  -8 8456.71 515.762  21
  -2  -1  -8 7627.19 541.351   1
  -2  -1  -8 7518.25 502.082  20
   2  -1   8 8022.08 370.463  22
  -2   1  -9 400.017 172.334  20
   2  -1   9 501.609 187.849  19
  -2  -1  -9 347.946 143.904  20
  -2  -1  -9 295.679 167.314   1
   2   1   9 480.399 153.949  22
  -2   1  -9 496.907 184.384  21
   2  -1   9 576.490 116.353  22
  -2   1  -9 642.508 155.253   1
  -2   1 -10 3085.17 358.539  20
   2  -1  10 3300.91 247.229  22
   2   1  10 3255.12 314.132  22
  -2   1 -10 3322.21 329.597  21
  -2  -1 -10 3484.67 391.626   1
  -2  -1 -10 3165.65 372.292  20
  -2   1 -10 3230.58 299.517   1
  -2   1 -11 13176.8 782.771  20
  -2   1 -11 13465.8 649.787   1
   2  -1  11 14220.6 534.092  22
  -2   1 -11 13757.2 684.420  21
  -2  -1 -11 13325.6 792.875   1
   2   1  11 13742.6 669.336  22
  -2  -1 -11 13470.8 801.483  20
  -2  -1 -12 8345.91 656.196  20
   2   1  12 8532.75 541.187  22
  -2   1 -12 8424.48 526.837  21
  -2  -1 -12 8100.10 626.310   1
   2  -1  12 8360.39 412.638  22
  -2   1 -12 8052.35 616.055  20
  -2   1 -12 8156.11 514.165   1
  -2  -1 -13 1918.55 351.015  20
   2  -1  13 1861.69 327.591  18
   2   1  13 2422.67 307.919  22
  -2  -1 -13 2781.77 389.292   1
  -2   1 -13 2005.35 341.748  20
  -2   1 -13 1899.39 276.336   1
  -2  -1 -14 202.445 189.612  20
  -2   1 -14 100.655 126.265  20
  -2  -1 -14 60.9627 103.053   1
  -2   1 -14 80.6993 82.5310   1
   2  -1  14 52.3706 96.3260  18
   2   1  14 26.3978 74.4134  22
   2  -1  15 523.879 211.017  18
  -2  -1 -15 644.192 215.155  20
  -2   1 -15 643.178 235.767  20
  -2  -1 -15 546.181 225.269   1
  -2   1 -15 575.723 186.812   1
   2   1  15 778.204 201.884  22
  -2  -1 -16 0.88083 121.569  20
  -2   1 -16 140.522 136.881  20
   2  -1  16 152.685 149.634  18
  -2  -1 -16 227.418 177.854   1
  -2   1 -16 75.6653 117.929   1
   2   1  16 228.144 113.687  22
  -2  -1 -17 4200.06 564.713  20
   2   1  17 4022.56 449.985  22
  -2   1 -17 4226.20 560.332  20
   2  -1  17 4234.29 544.133  18
  -2  -1 -17 3990.49 530.587   1
  -2  -1 -18 6094.35 688.423  20
  -2   1 -18 5571.62 638.437  20
   2  -1  18 5070.12 614.096  18
  -2  -1 -18 6266.46 668.741   1
   2   1  18 5690.48 538.855  22
  -2  -1 -19 328.461 110.888  20
  -2   1 -19 360.848 205.764  20
  -2  -1 -19 749.473 259.472   1
   2  -1  19 445.468 187.136  18
   2   1  19 535.078 180.601  22
  -2  -1 -20 6260.01 738.017  20
  -2   1 -20 7787.68 810.599  20
   2   1  20 6901.67 610.657  22
   2  -1  20 6933.92 715.795  18
  -2  -1 -20 6762.92 340.508  23
  -2   1 -20 6935.16 334.216  23
   2   1  20 6959.71 304.832   7
   2  -1  20 7095.70 311.466   7
  -2  -1 -20 7107.64 735.389   1
  -2  -1 -21 9441.43 919.493  20
  -2  -1 -21 9512.53 424.327  23
  -2   1 -21 9716.84 423.455  23
   2   1  21 9468.56 386.797   7
   2  -1  21 10895.8 416.845   7
  -2   1 -21 11545.8 989.504  20
  -2  -1 -21 8894.10 852.279   1
   2   1  21 9425.79 724.580  22
   2  -1  21 10210.6 904.260  18
  -2   1 -22 4025.58 268.333  23
   2   1  22 4222.78 248.402   7
   2  -1  22 3720.70 245.868   7
  -2  -1 -22 4445.66 283.623  23
  -2  -1 -23 8482.87 407.809  23
   2   1  23 8696.25 374.162   7
   2  -1  23 9199.34 391.211   7
   2   1  23 9258.24 368.685  13
  -2   1 -23 9263.46 415.562  23
   2   1  24 26023.5 698.164   7
  -2   1 -24 25012.0 733.291  23
  -2  -1 -24 26145.4 744.054  23
   2   1  24 25875.2 666.886  13
   2  -1  24 24666.6 688.434   7
  -2   1 -25 5267.53 320.263  23
   2   1  25 5588.26 299.915   7
   2  -1  25 5166.57 305.910   7
  -2  -1 -25 5860.31 328.946  23
   2   1  25 5865.69 289.755  13
  -2  -1 -26 712.041 117.564  23
   2   1  26 717.880 117.542   7
   2  -1  26 593.665 108.432   7
   2   1  26 591.874 97.7706  13
  -2   1 -26 857.387 133.793  23
   2   1  27 342.117 82.1026  13
   2   1  27 160.596 73.1401   7
  -2  -1 -27 198.025 85.5768  23
  -2   1 -27 244.138 79.2853  23
   2  -1  27 220.143 89.6077   7
   2   1  28 612.614 95.8317  13
   2   1  28 568.615 98.3894   7
  -2  -1 -28 664.647 110.829  23
  -2   1 -28 674.778 114.635  23
   2  -1  28 560.777 106.800   7
   2   1  29 122.786 60.2214   7
  -2   1 -29 54.7769 57.7696  23
   2  -1  29 10.5181 52.3446   7
  -2  -1 -29 12.3039 48.2348   4
  -2  -1 -29 56.2356 56.8989  23
   2   1  29 21.6009 45.8135  13
   2   1  30-44.8748 54.1553   7
  -2  -1 -30 44.9083 45.6284  23
  -2   1 -30 90.4041 68.0957  23
   2  -1  30-48.8426 50.6077   7
   2   1  30 24.3050 51.1267  13
   2   1  31 300.998 62.7100   7
   2  -1  31 262.003 69.4666   7
  -2  -1 -31 388.581 71.8394  23
   2   1  31 404.753 75.2697  13
  -2   1 -31 371.101 76.4600  23
   2   1  32 61.8007 42.2249  13
   2   1  32-19.7960 36.1694   7
  -2  -1 -32-1.01188 36.3659  23
   2  -1  32-28.9015 41.0242   7
  -2   1 -32 31.7280 34.8760  23
  -2   1 -33 1503.35 94.5977  23
   2  -1  33 1530.47 109.963   7
   2   1  33 1458.95 87.4483  13
   2  -2 -33 1681.14 115.172   4
  -2   2  33 1412.68 106.456  13
   2  -2 -32 51.2067 41.5744   4
  -2   2  32 132.819 52.1932  13
   2  -2 -31 140.575 57.5473   4
  -2   2  31 80.9566 54.3680  13
  -2   2  30 2735.61 152.473   8
   2  -2 -30 2874.36 199.932   4
  -2   2  30 2923.67 196.901  13
   2  -2 -29 1580.35 159.434   4
  -2   2  29 1503.18 126.711   8
  -2   2  29 1537.19 146.853  13
   2  -2 -28 1374.64 155.413   4
  -2   2  28 1343.34 143.887  13
  -2   2  28 1241.95 119.941   8
  -2   2  27 9926.48 370.613   8
   2  -2 -27 10799.0 433.808   4
  -2   2  27 10584.1 419.563  13
  -2   2  26 844.258 114.647   8
  -2   2  26 913.534 125.546  13
   2  -2 -26 781.201 128.096   4
  -2   2  25 2548.73 193.290   8
   2  -2 -25 2612.27 219.586   4
  -2   2  25 2823.76 223.303  13
  -2   2  24 1468.65 154.025   8
   2  -2 -24 1420.10 164.878   4
  -2   2  24 1366.41 162.993  13
  -2   2  23 467.324 92.8282   8
  -2   2  23 355.638 101.755  13
  -2   2  22 246.586 73.4904  13
  -2   2  22 312.471 77.4283   8
  -2   2  21 111.714 60.8989   8
  -2   2  21-36.0601 162.077   2
  -2   2  21 231.167 88.2233  13
  -2   2  20 626.534 169.097   2
  -2   2  20 403.933 83.1789   8
  -2  -2  20 284.683 152.907   2
  -2   2  20 240.986 154.814   3
  -2   2  20 416.597 90.9643  13
  -2  -2  19 518.450 228.327   2
  -2   2  19 530.491 101.551  13
  -2   2  19 344.598 130.757   2
  -2   2  19 406.767 85.1870   8
  -2   2  19 428.441 160.247   3
  -2  -2  18 7971.37 701.185   2
  -2   2  18 7703.01 659.300   3
   2  -2 -18 8485.49 732.073  19
  -2   2  18 9430.28 681.349   2
   2  -2 -17 178.176 136.058  19
  -2   2  17 68.6907 124.122   2
  -2  -2  17 283.644 163.625   2
  -2   2  17 54.3466 100.848   3
   2   2 -16 6181.50 529.247  20
  -2  -2  16 5742.16 551.416   2
  -2   2  16 5293.85 497.001   2
   2  -2 -16 4691.73 515.179  19
  -2   2  16 5321.85 532.900   3
  -2   2  15 22778.4 1030.55   2
  -2  -2  15 21843.4 1062.82   2
  -2   2  15 22754.5 1101.91   3
   2   2 -15 21612.9 1000.48  20
   2  -2 -15 21880.4 1082.01  19
  -2  -2  14 25217.0 1107.30   2
  -2   2  14 23644.1 1109.02   3
  -2   2  14 25280.4 1057.59   2
   2   2 -14 26138.7 1061.80  20
   2  -2 -14 24655.4 1113.97  19
   2   2 -13 13328.9 728.144  20
  -2  -2  13 13811.6 781.109   2
   2  -2 -13 13236.1 785.845  19
  -2   2  13 13565.9 746.305   2
  -2   2  13 13593.7 828.808   3
  -2  -2  12 71755.8 1887.05   2
   2  -2 -12 70258.7 1930.94  19
  -2   2  12 68882.3 1955.24   3
   2   2 -12 70647.4 1769.62  20
  -2   2  12 68858.1 1680.86  21
  -2   2  12 71402.7 1837.85   2
  -2   2  11 52.3933 73.8378   2
   2   2 -11 15.1706 77.4103  20
  -2   2  11 181.086 113.854  21
  -2   2  11 161.156 155.716   3
  -2  -2  11 198.925 127.187   2
   2  -2 -11 98.5441 86.7493  19
  -2  -2  10 55754.2 1513.18   2
   2   2 -10 53526.3 1267.22  21
   2   2 -10 54917.0 1422.71  20
  -2  -2  10 53847.6 1269.56  18
  -2   2  10 50651.5 1634.95   3
   2  -2 -10 52161.8 1547.55  19
  -2   2  10 53164.1 1497.39   2
  -2   2  10 51355.4 1436.89  21
   2   2  -9 2542.12 266.528  20
  -2   2   9 2581.43 300.794   2
  -2   2   9 2358.08 293.770  21
   2  -2  -9 2905.85 337.502  19
   2  -2  -9 2609.25 252.253  18
  -2   2   9 2735.95 349.252   3
   2   2  -9 2343.72 241.493  21
  -2  -2   9 2652.51 288.673   2
  -2  -2   9 2822.10 253.758  18
  -2   2   8 4955.72 427.951  21
   2   2  -8 4969.79 349.379  21
  -2  -2   8 4700.48 368.354   2
   2  -2  -8 5017.40 416.128  19
   2  -2  -8 4890.80 337.902  18
  -2   2   8 5083.37 450.094   3
  -2  -2   8 4958.88 331.598  18
   2   2  -8 4822.53 368.457  20
   2  -2  -7 2041.85 265.838  19
   2   2  -7 2273.36 247.367  20
  -2   2   7 2097.57 322.377  21
  -2  -2   7 1877.78 233.805   2
  -2  -2   7 1994.94 212.297  18
   2  -2  -7 1899.66 221.617  18
  -2   2   7 2051.28 301.979   3
  -2  -2   7 1820.45 260.170   1
  -2  -2   6 3218.58 258.850  18
   2   2  -6 3528.93 295.238  20
  -2   2   6 3456.21 340.012  21
   2  -2  -6 3190.50 284.097  18
  -2   2   6 3237.20 333.694   3
  -2  -2   6 3003.73 328.064   1
  -2  -2   6 2776.92 264.543   2
   2  -2  -6 3679.07 341.292  19
   2   2  -6 3384.61 247.485  22
   2  -2  -5 1024.35 177.667  18
   2   2  -5 676.018 118.381  22
   2  -2  -5 980.640 196.476  19
  -2  -2   5 902.036 151.363  18
  -2  -2   5 918.951 157.663   2
  -2   2   5 1049.41 226.419   3
  -2   2   5 1174.22 252.434  21
  -2  -2   5 882.248 197.360   1
  -2   2   4 434.295 184.128  21
  -2  -2   4 553.879 169.110   1
   2   2  -4 496.252 118.001  19
   2  -2  -4 625.262 186.302  19
   2  -2  -4 509.400 138.550  18
  -2  -2   4 634.804 132.463  18
  -2  -2   4 502.835 107.596   2
  -2   2   4 336.211 153.650   3
   2   2  -4 677.218 122.079  22
  -2   2   3 292.307 131.356  21
   2  -2  -3 397.639 147.694  19
   2  -2  -3 287.808 119.938  18
  -2   2   3 200.222 114.896   3
  -2  -2   3 396.375 99.7617  18
   2   2  -3 406.072 103.610  22
  -2  -2   3 271.910 119.736   1
   2   2  -3 383.058 94.5452  19
   2  -2  -2 5705.73 424.338  19
  -2   2   2 5591.50 430.612  21
   2  -2  -2 5404.22 398.745  18
  -2  -2   2 5797.08 437.502   1
  -2  -2   2 5620.07 350.006  18
  -2   2   2 5422.36 398.410   3
   2   2  -2 5552.55 287.604  19
   2   2  -2 5656.17 339.689  22
   2   2  -1 64.7284 52.4911  22
   2   2  -1 108.504 56.1935  19
  -2  -2   1 48.8421 106.401   1
  -2  -2   1 56.8106 59.2275  18
   2  -2  -1 3.98976 94.4795  19
   2  -2  -1 65.0886 91.0873  18
  -2   2   1 219.260 123.541   3
  -2   2   1 177.378 156.115  21
  -2  -2   0 1145.38 209.488   1
  -2   2   0 1196.17 238.886  21
   2  -2   0 1289.00 209.407  19
  -2  -2   0 1284.22 178.974  18
   2  -2   0 1440.84 227.506  18
   2   2   0 1373.86 176.339  22
  -2   2   0 1369.71 205.410   3
  -2   2  -1 690.057 209.268  21
   2  -2   1 545.678 187.267  19
   2   2   1 464.660 127.070  22
   2  -2   1 517.604 178.351  18
  -2  -2  -1 367.308 131.131  18
  -2  -2  -1 343.063 148.265   1
  -2  -2  -2 87487.1 2081.76   1
   2  -2   2 90824.2 2043.03  19
  -2   2  -2 83418.5 2006.57  21
   2  -2   2 87819.1 2054.10  18
   2   2   2 89359.2 1821.38  22
  -2  -2  -3 5771.02 476.770   1
  -2   2  -3 5760.09 442.812  20
   2  -2   3 6576.05 479.501  19
   2  -2   3 5829.44 477.112  18
  -2   2  -3 5407.26 453.359  21
   2   2   3 6058.91 394.323  22
  -2   2  -4 3453.87 366.447  20
   2  -2   4 3506.53 368.081  19
   2  -2   4 2919.84 339.072  18
  -2   2  -4 3317.21 351.049  21
   2   2   4 3690.24 308.388  22
  -2  -2  -4 3813.97 390.994   1
  -2   2  -5 5501.27 447.576  21
   2  -2   5 5210.31 447.283  19
  -2   2  -5 4847.75 416.066  20
   2  -2   5 5359.27 469.191  18
  -2  -2  -5 5444.10 475.349   1
   2   2   5 5763.19 399.439  22
  -2  -2  -6 3080.90 366.800   1
   2   2   6 3015.34 295.993  22
   2  -2   6 2253.19 296.059  18
   2  -2   6 2437.66 311.038  19
  -2   2  -6 2658.76 299.858  21
  -2   2  -6 2615.58 316.334  20
   2  -2   7 847.306 204.370  19
   2  -2   7 909.675 239.727  18
  -2   2  -7 835.123 211.310  20
  -2   2  -7 807.774 207.348  21
  -2  -2  -7 886.195 211.720   1
   2   2   7 802.199 167.309  22
  -2  -2  -8 53506.8 1719.41   1
   2  -2   8 55357.9 1698.30  19
  -2   2  -8 54384.9 1658.24  20
   2  -2   8 51782.2 1677.85  18
  -2   2  -8 57787.4 1610.01  21
   2   2   8 55391.8 1494.55  22
  -2   2  -9 1314.71 265.687  21
  -2   2  -9 852.140 236.074  20
   2  -2   9 967.847 274.530  18
  -2  -2  -9 1045.92 271.287   1
   2   2   9 1008.84 214.431  22
   2  -2  10 166.471 155.848  18
  -2   2 -10 229.319 133.696  21
  -2   2 -10 104.886 96.6528  20
  -2  -2 -10 201.985 178.848   1
   2   2  10 343.598 142.471  22
  -2   2 -11 987.037 219.661  21
  -2   2 -11 662.417 226.884  20
   2  -2  11 738.381 230.314  18
  -2  -2 -11 857.391 252.396   1
   2   2  11 1038.11 209.213  22
  -2  -2 -12 258.096 206.673   1
   2  -2  12 513.269 213.698  18
  -2   2 -12 221.601 166.734  20
  -2   2 -12 279.670 141.972  21
   2   2  12 441.997 149.102  22
   2  -2  13-77.2009 104.894  18
   2   2  13 145.059 97.4076  22
  -2   2 -13 140.959 155.983  20
  -2  -2 -13 201.639 191.017   1
   2   2  14 6113.74 537.182  22
   2  -2  14 6352.59 660.426  18
  -2   2 -14 6393.99 650.469  20
  -2  -2 -14 6069.81 639.006   1
  -2   2 -15 40.4408 146.306  20
  -2  -2 -15 234.661 206.911   1
   2  -2  15 28.0350 192.722  18
   2   2  15 194.879 166.762  22
   2   2  16 9063.84 696.475  22
   2  -2  16 8589.44 768.727  18
  -2   2 -16 9524.20 818.914  20
  -2  -2 -16 8664.75 822.965   1
  -2   2 -17 511.507 222.401  20
  -2  -2 -17 675.947 279.097   1
   2  -2  17 463.955 214.454  18
   2   2  17 704.539 248.796  22
  -2   2 -18 10425.1 905.676  20
   2  -2  18 9023.89 838.001  18
  -2  -2 -18 9883.63 408.719  23
   2  -2  18 10137.3 395.668  15
   2  -2  18 9645.24 356.573   7
   2   2  18 9313.30 686.543   3
   2   2  18 9365.65 750.856  22
  -2  -2 -18 9723.80 896.027   1
  -2   2 -19 2593.63 492.437  20
   2  -2  19 2705.45 463.373  18
   2  -2  19 2943.65 218.272  15
  -2  -2 -19 2720.89 223.975  23
   2  -2  19 3142.13 206.233   7
  -2  -2 -19 2836.85 504.338   1
   2   2  19 2360.51 354.998   3
   2   2  19 3034.20 441.979  22
   2  -2  20 47537.8 1992.14  18
  -2  -2 -20 45796.6 2045.26   1
  -2  -2 -20 46842.8 1073.82  23
   2  -2  20 50708.2 1051.16  15
   2  -2  20 48705.0 1012.80   7
   2   2  20 47493.8 1807.90  22
  -2  -2 -21 957.936 151.423  23
   2  -2  21 455.723 102.680  15
  -2   2 -21 625.434 140.238  23
   2  -2  21 611.709 128.361   7
  -2   2 -22 43036.8 997.040  23
   2   2  22 40795.9 826.635   8
  -2  -2 -22 40310.3 972.786  23
   2   2  22 40355.0 883.575   7
   2  -2  22 40480.4 921.421   7
   2   2  23 1778.43 172.334  13
  -2  -2 -23 1522.91 183.373  23
   2   2  23 1538.46 135.236   8
   2   2  23 1526.10 148.904   7
  -2   2 -23 1739.17 186.885  23
   2  -2  23 1791.02 173.997   7
  -2  -2 -24 917.733 138.768  23
  -2   2 -24 1337.62 168.993  23
   2  -2  24 1230.48 147.681   7
   2   2  24 862.329 119.327   7
   2   2  24 984.836 141.460  13
  -2   2 -25 5100.14 299.489  23
   2   2  25 4728.70 259.350   7
   2  -2  25 4797.27 271.478   7
   2   2  25 5482.26 281.866  13
  -2  -2 -25 5448.83 298.855  23
   2   2  26 985.078 114.896   7
  -2  -2 -26 1230.24 141.691  23
  -2   2 -26 1036.54 136.034  23
   2   2  26 1221.34 137.408  13
   2  -2  26 1047.05 128.008   7
  -2  -2 -27 1053.25 121.478  23
   2   2  27 895.416 112.499   7
  -2   2 -27 1165.31 144.316  23
   2  -2  27 1067.06 127.650   7
   2   2  27 1085.08 126.004  13
   2   2  28 217.736 69.3440  13
   2  -2  28 247.070 67.2736   7
  -2   2 -28 313.821 88.5324  23
   2   2  28 149.971 52.2553   7
  -2  -2 -28 363.850 81.6020  23
  -2   2 -29 1594.67 148.513  23
   2   2  29 1571.76 123.064   7
   2  -2  29 1365.23 130.678   7
   2   2  29 1580.65 132.629  13
  -2  -2 -29 1482.73 129.981  23
  -2   2 -30 15.6495 48.5427  23
   2  -2  30 72.7910 44.3770   7
   2   2  30 21.1955 45.1423  13
  -2  -2 -30 63.6854 46.0090  23
   2   2  31 24.8668 41.7003  13
  -2   2 -31 33.6138 46.2273  23
   2  -2  31 15.0351 39.1143   7
  -2  -2 -31 6.76698 34.4408  23
   2   2  32 120.284 40.1311  13
   2  -2  32 42.5735 32.6155   7
  -2   2 -32 60.2157 32.6181  23
  -2   3  31 814.727 77.1046  13
  -2   3  30 757.826 77.2166   8
  -2   3  30 760.376 80.8489  13
   2  -3 -29 65.7132 49.8963   4
  -2   3  29 190.105 62.3668   8
  -2   3  29 151.467 55.4496  13
   2  -3 -28 1861.65 160.358   4
  -2   3  28 1863.75 141.971   8
  -2   3  28 1848.81 145.356  13
   2  -3 -27 8758.60 359.904   4
  -2   3  27 8097.67 319.741   8
  -2   3  27 8314.61 324.994  13
  -2   3  26 2514.06 186.451   8
   2  -3 -26 2589.03 203.953   4
  -2   3  26 2413.44 178.689  13
   2  -3 -25 509.788 110.839   4
  -2   3  25 810.660 114.006   8
  -2   3  25 636.845 103.037  13
  -2   3  24 171.573 67.0460  13
   2  -3 -24 224.618 85.1069   4
  -2   3  24 228.985 70.6896   8
  -2   3  23 565.290 107.190  13
   2  -3 -23 396.497 100.135   4
  -2   3  23 621.021 109.202   8
   2  -3 -22 498.144 115.112   4
  -2   3  22 669.062 111.152   8
  -2   3  22 525.133 105.945  13
   2  -3 -21 4089.48 242.015   6
  -2   3  21 4016.89 245.554   8
   2  -3 -21 3937.34 269.755   4
  -2   3  21 3946.60 242.313  13
   2  -3 -20 4811.46 262.568   6
   2  -3 -20 4146.36 275.367   4
  -2   3  20 4594.59 267.431   8
  -2   3  20 5008.28 264.122  13
   2  -3 -19 412.383 105.286   4
  -2   3  19 333.592 97.6991   8
  -2   3  19 272.346 68.6258  13
  -2   3  19 356.292 69.0672  14
   2  -3 -19 242.054 59.0296   6
   2  -3 -18 2066.82 176.409   6
   2  -3 -18 2103.97 196.348   4
  -2   3  18 2250.36 182.639   8
  -2   3  18 2215.24 164.340  14
   2  -3 -18 1661.94 356.586   1
  -2   3  18 2030.18 167.713  13
  -2   3  18 2195.78 406.440   3
   2  -3 -17 782.837 116.671   6
   2  -3 -17 773.971 132.365   4
  -2   3  17 809.274 124.760   8
  -2   3  17 702.481 110.493  13
  -2   3  17 575.822 92.6907  14
  -2   3  17 705.052 272.860   3
   2  -3 -16 2389.49 189.063   6
   2  -3 -16 2206.22 192.160   4
  -2   3  16 2469.06 176.782   8
  -2   3  16 2609.31 176.352  14
  -2   3  16 2196.33 381.524   3
  -2   3  15 851.078 190.898   2
  -2   3  15 908.015 114.505   8
  -2   3  14 223.627 112.840   2
  -2   3  14 410.618 180.643   3
   2   3 -13 845.243 215.213  20
  -2   3  13 1567.78 285.359   2
  -2   3  13 1208.47 277.555   3
   2   3 -12 2132.18 316.966  20
  -2   3  12 2239.61 359.045  21
  -2   3  12 2262.49 393.632   3
  -2   3  12 2528.45 322.857   2
   2   3 -11 3391.32 382.464  20
  -2   3  11 2715.95 432.478  21
  -2   3  11 3245.31 441.629   3
  -2   3  11 2981.85 357.553   2
   2   3 -10 4716.20 448.992  20
   2  -3 -10 4268.60 401.219  18
  -2   3  10 4207.63 412.670   2
  -2   3  10 4722.02 522.744   3
  -2   3  10 4094.25 466.810  21
   2   3  -9 3735.10 410.244  20
  -2  -3   9 3984.15 370.908  18
   2  -3  -9 3704.91 372.027  18
   2   3  -9 4301.89 399.529  21
  -2   3   9 4454.91 505.349   3
  -2   3   9 4391.95 503.862  21
  -2   3   8 15833.9 881.861  21
   2   3  -8 16574.1 836.675  20
   2   3  -8 16946.7 814.382  21
  -2  -3   8 16687.9 771.904  18
   2  -3  -8 16536.0 805.950  18
  -2   3   8 15524.1 905.564   3
   2   3  -7 4324.13 412.194  21
   2   3  -7 4635.36 459.624  20
  -2   3   7 4224.63 494.978  21
  -2  -3   7 4535.29 397.712  18
   2  -3  -7 3838.40 383.376  18
  -2   3   7 4389.65 468.479   3
   2   3  -6 13552.5 759.202  20
  -2   3   6 15224.9 865.130  21
   2  -3  -6 14285.9 763.979  18
  -2  -3   6 14244.3 712.663  18
   2   3  -6 14127.0 757.306  21
  -2   3   6 14376.9 837.852   3
   2   3  -5 14767.4 783.470  21
   2  -3  -5 16144.0 768.777  19
   2  -3  -5 14419.3 780.100  18
  -2  -3   5 15174.8 744.858  18
  -2   3   5 14928.7 848.615   3
  -2  -3   5 15177.2 754.623   1
  -2   3   5 14905.8 883.614  21
   2  -3  -4 44008.1 1327.73  19
  -2   3   4 38707.2 1448.08  21
   2  -3  -4 40079.7 1375.78  18
  -2  -3   4 40422.1 1275.63  18
   2   3  -4 41330.5 1355.90  21
  -2  -3   4 40999.1 1294.75   1
  -2   3   4 39070.2 1389.78   3
  -2   3   3 132.486 158.219  21
   2   3  -3 150.655 124.071  21
   2  -3  -3 49.0365 85.4321  19
   2  -3  -3 52.5127 91.5524  18
  -2  -3   3 148.387 107.866  18
  -2   3   3 43.8999 84.6984   3
  -2  -3   3 111.437 62.4373   1
  -2   3   2 1610.00 305.989  21
   2  -3  -2 985.834 158.724  19
  -2  -3   2 1781.81 264.917  18
  -2  -3   2 1483.01 237.638   1
  -2   3   2 1782.65 275.373   3
   2  -3  -2 1659.40 272.460  18
   2   3  -2 1621.39 182.635  22
   2   3  -2 1757.96 271.589  21
   2   3  -1 4339.38 426.341  21
   2  -3  -1 4772.69 415.908  19
  -2   3   1 4368.49 467.772  21
   2  -3  -1 4692.80 482.234  18
  -2  -3   1 4840.97 440.045   1
  -2  -3   1 4667.26 408.835  18
   2   3  -1 3954.53 309.047  22
  -2   3   1 4390.26 429.219   3
  -2   3   0 2039.96 334.020  21
   2   3   0 2508.53 331.823  21
  -2  -3   0 2388.77 306.549   1
   2  -3   0 2340.70 335.916  18
  -2  -3   0 2653.44 318.107  18
   2   3   0 2533.93 256.586  22
  -2   3   0 2211.02 300.341   3
   2  -3   0 2230.31 302.680  19
   2   3   1 1725.37 234.018  22
  -2   3  -1 1605.50 306.600  21
   2   3   1 1703.28 301.779  21
  -2  -3  -1 2001.29 306.189   1
   2  -3   1 1815.20 268.973  19
  -2  -3  -1 1919.53 272.864  18
   2  -3   1 1622.49 298.586  18
  -2   3  -1 1753.36 273.350   3
  -2  -3  -2 8454.42 623.302   1
   2  -3   2 9350.65 616.028  19
   2   3   2 9233.25 643.876  21
   2  -3   2 8797.71 665.506  18
  -2  -3  -2 9143.42 598.762  18
  -2   3  -2 8579.66 657.216  21
   2   3   2 8039.51 489.078  22
  -2   3  -3 1138.22 262.311  21
  -2   3  -3 872.907 209.426  20
   2  -3   3 640.220 184.713  19
   2  -3   3 906.633 243.917  18
  -2  -3  -3 773.574 208.471   1
   2   3   3 948.017 190.201  22
  -2  -3  -3 908.382 207.842  18
   2   3   3 962.198 243.054  21
   2   3   4 3245.32 390.980  21
  -2   3  -4 3294.28 445.892  20
  -2  -3  -4 3661.45 400.327   1
   2  -3   4 3619.99 400.939  19
   2  -3   4 3831.67 451.248  18
   2   3   4 3208.73 327.238  22
  -2   3  -4 3568.73 428.525  21
   2   3   5 5180.55 500.281  21
   2   3   5 5429.65 431.092  22
  -2  -3  -5 5309.32 522.247   1
   2  -3   5 5667.51 515.924  19
  -2   3  -5 5354.55 534.108  21
   2  -3   5 5789.45 564.419  18
  -2   3  -5 5543.57 544.017  20
   2  -3   6 954.989 232.101  19
  -2   3  -6 1265.25 295.479  20
   2  -3   6 1087.34 249.052  18
  -2  -3  -6 1012.19 241.538   1
   2   3   6 935.165 205.517  22
   2   3   6 1222.32 255.128  21
  -2   3  -6 1122.55 275.233  21
  -2  -3  -7 9472.69 746.788   1
   2   3   7 9530.89 685.468  21
  -2   3  -7 10215.5 764.762  20
  -2   3  -7 9419.43 716.862  21
   2  -3   7 10012.7 777.340  18
   2   3   7 8911.02 600.197  22
  -2   3  -8 49559.2 1769.30  20
   2  -3   8 46582.8 1747.54  18
   2   3   8 44639.8 1466.36  22
   2   3   8 47436.7 1601.03  21
  -2  -3  -8 45335.1 1709.40   1
  -2   3  -8 48540.6 1658.15  21
   2   3   9 8888.16 672.899  21
  -2   3  -9 9564.39 782.108  20
   2  -3   9 9962.57 801.006  18
   2   3   9 9145.95 641.836  22
  -2  -3  -9 8832.26 750.708   1
  -2   3  -9 9896.42 726.268  21
  -2  -3 -10 4163.38 518.507   1
   2   3  10 3796.60 444.070  21
  -2   3 -10 3387.73 491.761  20
  -2   3 -10 3518.08 443.746  21
   2  -3  10 3209.49 449.737  18
   2   3  10 3659.54 420.286  22
  -2   3 -11 109.105 98.4882  21
   2   3  11 144.591 155.564  21
  -2   3 -11 97.7751 182.993  20
   2  -3  11 338.767 184.741  18
  -2  -3 -11 319.560 192.655   1
   2   3  11 189.504 148.636  22
  -2  -3 -12 5688.92 628.206   1
   2   3  12 5441.58 530.628  21
  -2   3 -12 4971.64 577.657  20
   2  -3  12 5405.36 619.187  18
  -2   3 -12 6079.45 569.779  21
   2   3  12 5552.46 532.014  22
  -2   3 -13 863.440 305.880  20
   2  -3  13 656.961 244.425  18
  -2  -3 -13 496.141 280.903   1
   2   3  13 326.334 157.094  21
   2   3  13 482.610 164.386  22
   2   3  14 81528.3 2229.20  21
  -2   3 -14 78059.2 2570.26  20
  -2  -3 -14 78932.6 1484.75  23
   2  -3  14 78726.5 2647.25  18
  -2  -3 -14 76478.2 2624.36   1
   2  -3  14 80894.4 1509.01  15
   2   3  14 81276.1 2327.64   3
   2   3  14 78852.2 2306.54  22
   2  -3  15 29394.6 740.326  11
  -2  -3 -15 28698.1 772.499  23
   2  -3  15 28334.9 1542.09  18
   2  -3  15 29551.0 788.596  15
   2   3  15 29679.2 1336.99   3
  -2   3 -15 28053.4 1504.07  20
   2   3  15 30587.3 1371.41  22
  -2  -3 -15 29089.3 1562.66   1
  -2   3 -16 27989.3 1534.20  20
   2   3  16 29805.7 1378.97  22
   2  -3  16 27628.3 1512.00  18
   2  -3  16 27156.4 758.226  15
   2   3  16 28475.1 1317.65   3
  -2  -3 -16 29294.8 772.009  23
  -2  -3 -16 29487.9 1616.36   1
   2  -3  16 26811.6 718.204  11
   2  -3  17 51.9934 56.3526  11
  -2   3 -17 282.749 112.268  20
  -2  -3 -17-10.1239 164.736   1
   2  -3  17 65.7817 85.3508  15
  -2  -3 -17 75.8591 91.5495  23
   2   3  17 271.333 162.256   3
   2  -3  18 54.1160 70.3865  15
  -2  -3 -18 204.024 93.3171  23
  -2  -3 -19 1376.12 160.394  23
   2  -3  19 1192.00 154.403  15
   2  -3  20 795.262 129.045  15
  -2  -3 -20 618.831 108.904  23
   2  -3  21 82.9514 58.7991  15
   2   3  21 330.960 96.0664   8
  -2  -3 -21 267.963 95.6730  23
   2   3  22 3397.70 200.622   8
   2   3  22 3315.57 222.531  13
  -2  -3 -22 2945.91 225.149  23
  -2   3 -23 9263.33 418.300  23
  -2  -3 -23 9012.43 390.426  23
   2   3  23 9591.25 346.575   8
   2   3  23 10441.9 383.911  13
  -2  -3 -24 4297.75 250.856  23
   2   3  24 4444.72 222.785   8
   2   3  24 4680.86 250.620  13
  -2   3 -24 4823.49 282.889  23
  -2   3 -25 73.5200 58.8563  23
   2   3  25 53.6685 41.0086   8
  -2  -3 -25 64.6253 57.6077  23
   2   3  25 139.293 67.8505  13
   2   3  26 190.002 57.8414  13
   2   3  26 56.6114 39.1217   8
  -2   3 -26 82.5869 57.5395  23
  -2  -3 -26 119.635 52.7942  23
   2   3  27 32.4225 32.4874   8
  -2  -3 -27 1.69705 45.5018  23
  -2   3 -27-40.1425 64.4079  23
   2   3  27 25.6448 44.3364  13
   2   3  28 515.140 78.7699  13
  -2  -3 -28 534.056 70.6298  23
  -2   3 -28 635.818 95.7686  23
   2   3  29 29.4728 38.1395  13
  -2   3 -29 4.37419 45.6923  23
  -2   3 -30 208.010 47.7885  23
   2   3  30 210.625 45.6996  13
  -2   4  28 33.2061 32.9542   8
  -2   4  27 57.8296 43.5844   8
  -2   4  26 84.8313 47.7100   8
  -2   4  25-10.3970 51.4860   8
  -2   4  24-22.2608 55.2648   8
  -2   4  23 230.757 75.1065   8
  -2   4  22 2388.28 180.182   8
  -2   4  22 1974.42 145.469  14
  -2   4  21 485.720 92.0051   8
  -2   4  21 349.959 73.4823  14
  -2   4  20 2576.94 199.913   8
  -2   4  20 2349.26 180.027  14
  -2   4  19 10045.7 390.164   8
  -2   4  19 9611.29 363.037  14
   2  -4 -18 7848.93 336.491   6
  -2   4  18 7283.25 341.390   8
  -2   4  18 7495.50 326.482  14
  -2   4  17 17194.8 522.969  14
  -2   4  17 17631.7 537.095   8
   2  -4 -17 18115.0 545.588   6
   2  -4 -16 1522.62 165.342   6
  -2   4  16 1778.10 174.612  14
  -2   4  16 1734.22 170.670   8
   2  -4 -15 700.055 120.285   6
  -2   4  15 660.097 107.735   8
  -2   4  15 723.765 116.788  14
   2  -4 -14 4286.16 255.652   6
  -2   4  14 4209.67 240.725   8
  -2   4  14 4235.65 243.042  14
   2  -4 -13 327.829 82.9554   6
  -2   4  13 215.703 76.4026   8
  -2   4  13 200.631 75.0159  14
   2  -4 -12 1505.28 153.677   6
  -2   4  12 1518.77 141.779   8
  -2   4  12 1279.53 136.672  14
  -2   4  12 1029.54 290.900   3
   2  -4 -11 2760.12 203.857   6
  -2   4  11 2441.07 180.298   8
  -2   4  11 2434.44 187.784  14
  -2   4  11 2654.92 461.550   3
  -2   4  10 904.436 382.857  21
   2  -4 -10 1071.25 137.746   6
   2  -4 -10 1244.74 276.422  18
  -2   4  10 1104.58 120.007   8
  -2   4  10 1247.19 143.958  14
  -2   4  10 677.416 283.181   3
   2   4  -9 7498.20 627.411  20
   2  -4  -9 8297.25 362.660   6
   2  -4  -9 8382.72 679.193  18
  -2   4   9 8453.14 770.603   3
  -2   4   9 8783.60 354.492  14
  -2   4   9 7836.45 764.213  21
   2   4  -8 54929.4 1807.45  21
  -2   4   8 51229.8 1944.64  21
   2   4  -8 55683.4 1878.51  20
  -2   4   8 49614.8 1928.73   3
   2  -4  -8 54930.1 1800.07  18
  -2   4   8 55228.3 1076.00  14
  -2   4   7 575.402 401.212  21
   2   4  -7 174.524 167.362  21
   2   4  -7 446.750 191.332  20
  -2  -4   7 197.097 111.671  18
   2  -4  -7 664.762 219.364  18
  -2   4   7 603.073 255.296   3
  -2   4   6 16625.5 1102.14  21
   2  -4  -6 15962.9 939.406  18
  -2  -4   6 16016.7 886.604  18
  -2   4   6 15330.0 977.687   3
   2   4  -6 16230.2 960.048  21
   2   4  -6 16810.0 965.211  20
  -2   4   5 13239.4 999.224  21
  -2  -4   5 12113.2 768.023  18
  -2   4   5 11343.7 826.142   3
   2   4  -5 11945.5 825.153  21
   2   4  -5 12127.6 841.002  20
   2  -4  -5 12462.3 833.544  18
  -2   4   4 833.621 391.941  21
   2  -4  -4 698.904 202.396  18
  -2  -4   4 641.689 224.689  18
  -2   4   4 809.646 255.585   3
   2   4  -4 601.264 216.109  21
   2   4  -3 5188.62 546.779  21
  -2   4   3 4391.26 624.268  21
  -2   4   3 3844.39 460.273   3
   2  -4  -3 4125.51 493.489  18
  -2  -4   3 4868.92 487.463  18
   2   4  -2 2956.28 427.921  21
  -2   4   2 3439.90 558.841  21
   2  -4  -2 2936.02 419.246  18
  -2  -4   2 3282.22 401.982  18
  -2   4   2 3135.43 416.469   3
  -2   4   1 46.9656 233.827  21
   2  -4  -1 157.051 160.869  18
  -2  -4   1 104.961 84.6075  18
   2   4  -1 171.521 169.675  21
  -2   4   1 116.449 111.790   3
  -2   4   0 993.280 330.389  21
   2  -4   0 1117.70 270.299  18
  -2  -4   0 966.081 242.198  18
  -2   4   0 610.373 138.234   3
   2   4   0 872.537 231.933  21
   2   4   0 955.826 198.134   3
  -2   4  -1 146.571 206.326  21
   2  -4   1 90.9755 144.894  18
  -2  -4  -1 238.826 130.673  18
   2   4   1-66.2246 153.838  21
   2   4   1 101.944 77.5736   3
  -2   4  -2 2427.46 469.508  21
  -2   4  -2 1099.19 255.139  20
   2  -4   2 1570.06 314.775  18
  -2  -4  -2 1606.89 294.623  18
   2   4   2 1646.12 275.014   3
   2   4   2 1754.26 347.551  21
  -2   4  -3 197.039 192.422  21
  -2   4  -3-33.7291 116.296  20
   2   4   3 179.915 123.147   3
   2   4   3 118.271 175.969  21
   2  -4   3 92.5082 106.953  18
  -2   4  -4 2781.72 463.370  21
   2   4   4 2250.50 371.847  21
  -2   4  -4 2441.58 434.345  20
   2  -4   4 2502.85 418.230  18
   2   4   4 2037.17 312.648   3
   2   4   5 146.444 91.1199   3
  -2   4  -5 369.763 194.124  21
   2   4   5 175.008 186.852  21
   2  -4   5 155.041 166.306  18
   2   4   6 912.330 278.713  21
  -2   4  -6 387.190 243.309  20
   2  -4   6 295.820 111.059  11
  -2   4  -6 516.466 279.356  21
   2  -4   6 581.205 287.503  18
   2   4   6 811.596 217.337   3
   2  -4   7 1780.77 178.430  11
  -2   4  -7 1977.46 427.280  20
   2  -4   7 1748.40 355.279  18
  -2   4  -7 1952.57 392.553  21
   2   4   7 1950.43 363.218  21
   2   4   7 1851.46 323.241   3
   2   4   7 1910.54 306.930  22
   2   4   8 3437.38 488.891  21
  -2   4  -8 3888.91 549.356  20
   2  -4   8 3682.82 527.893  18
   2   4   8 3613.40 438.120   3
  -2   4  -8 3469.35 490.109  21
   2   4   8 3881.71 432.214  22
   2  -4   8 3725.02 249.466  11
  -2   4  -9 1625.40 349.626  20
  -2   4  -9 1811.33 360.502  21
   2  -4   9 1704.74 361.190  18
  -2  -4  -9 1649.36 169.423  23
   2   4   9 1471.87 302.883  21
   2   4   9 1730.61 303.755   3
   2  -4   9 1420.03 156.824  11
   2   4   9 1167.17 253.679  22
   2  -4  10 121.348 61.6934  11
  -2   4 -10-16.2634 138.098  20
   2  -4  10 37.0773 181.475  18
   2  -4  10 153.566 73.3598  15
  -2  -4 -10 138.291 55.9172  23
   2   4  10 46.3133 144.522  21
   2   4  10 83.8077 143.766   3
   2   4  10 137.357 108.885  22
   2  -4  11 330.649 82.6909  11
   2   4  11-56.5883 126.211  21
  -2  -4 -11 290.779 89.2458  23
  -2   4 -11 399.247 271.964  20
   2  -4  11-75.0856 125.385  18
   2   4  11 99.7963 101.626  22
   2  -4  11 361.433 110.281  15
   2   4  11 202.986 151.548   3
   2   4  12 1064.14 317.519  21
   2  -4  12 1021.62 138.263  11
   2  -4  12 1061.63 145.888  15
  -2  -4 -12 1242.94 149.149  23
  -2  -4 -13 7015.81 347.153  23
   2  -4  13 7296.73 355.603  11
   2  -4  13 7265.04 366.008  15
  -2  -4 -14 7985.29 377.777  23
   2  -4  14 6922.99 355.086  11
   2  -4  14 7052.61 376.094  15
  -2  -4 -15 39079.9 930.580  23
   2  -4  15 37108.9 943.169  15
   2  -4  16 8791.98 409.386  15
  -2  -4 -16 9652.25 418.653  23
   2  -4  16 8488.03 398.807  11
   2  -4  17 2406.72 212.750  11
   2  -4  17 2887.95 234.555  15
  -2  -4 -17 2952.19 228.168  23
   2  -4  18 623.451 125.780  15
  -2  -4 -18 990.438 139.330  23
  -2  -4 -19 769.917 119.857  23
   2  -4  19 795.757 132.597  15
   2   4  19 621.723 96.6955  13
   2   4  20 1223.40 127.427   8
   2  -4  20 1218.14 159.069  15
   2   4  20 1276.01 125.892  13
  -2  -4 -20 1163.05 139.907  23
  -2  -4 -21 152.408 71.4716  23
   2   4  21 183.035 74.1502   8
   2   4  21 117.159 54.5519  13
   2   4  22-0.13387 48.3769   8
   2   4  22 48.7491 44.1767  13
   2   4  23-1.00114 50.1344   8
   2   4  23 15.7306 50.4881  13
  -2   4 -23 39.8679 62.5135  23
   2   4  24 1047.78 104.326   8
   2   4  24 1103.80 106.091  13
  -2   4 -24 992.834 118.645  23
   2   4  25 6.40784 45.1522   8
   2   4  25 100.081 45.8315  13
  -2   4 -25 40.8838 44.6731  23
   2   4  26 94.3751 37.3603   8
  -2   4 -26-14.4648 44.1225  23
   2   4  26 83.5547 40.1869  13
   2   4  27 1018.75 75.0244   8
   2   4  27 1090.62 85.5361  13
  -2   4 -27 1164.00 98.5648  23
  -2   5  25 206.965 46.0310   8
  -2   5  24 181.759 46.5201   8
  -2   5  23-31.8614 40.8176   8
  -2   5  22 1579.99 121.450   8
  -2   5  22 1504.68 102.220  14
  -2   5  21 2461.01 161.221   8
  -2   5  21 2390.69 145.630  14
  -2   5  20 23296.1 557.177   8
  -2   5  20 22964.0 540.994  14
  -2   5  19 9709.87 342.244   8
  -2   5  19 9680.82 336.006  14
  -2   5  18 1609.15 150.914   8
  -2   5  18 1599.07 161.082  14
  -2   5  18 1370.31 141.431   5
  -2   5  17 22202.0 576.758   5
  -2   5  17 22572.9 574.152   8
  -2   5  17 23560.8 595.878  14
  -2   5  16 10092.2 364.840   8
  -2   5  16 10802.8 383.196  14
   2  -5 -15 539.359 99.8002  11
  -2   5  15 668.470 108.153   8
  -2   5  15 681.136 122.051  14
   2  -5 -14 4597.31 260.248  11
  -2   5  14 4440.86 231.593   8
  -2   5  14 4778.19 257.078  14
   2  -5 -13 1187.17 144.979  11
  -2   5  13 1114.34 121.756   8
  -2   5  13 1352.62 146.048  14
   2  -5 -12 421.949 88.9730  11
  -2   5  12 412.801 86.7788   8
  -2   5  12 474.811 103.181  14
   2  -5 -11 632.473 109.865  11
  -2   5  11 571.321 95.1800   8
  -2   5  11 583.382 108.602  14
   2  -5 -10 2761.61 220.317  11
  -2   5  10 2605.57 203.513  14
   2  -5  -9 5618.83 326.197  11
  -2   5   9 5262.12 296.020  14
   2  -5  -8 50635.4 1110.09  11
  -2   5   8 49205.7 1050.70  14
   2  -5  -7 6394.33 345.651  11
  -2   5   7 6745.77 328.201  14
   2  -5  -6 2807.05 227.561  11
  -2   5   6 3292.43 226.317  14
   2  -5  -5 248.299 92.4027  11
  -2   5   5 373.715 107.937  14
   2  -5  -4 4364.94 290.740  11
  -2   5   4 5026.13 262.377  14
   2  -5  -3 914.413 143.210  11
  -2   5   3 952.962 120.030  14
   2  -5  -2 6209.06 342.406  11
  -2   5   2 6070.54 284.548  14
   2  -5  -1 1396.48 168.452  11
  -2   5   1 1256.50 135.773  14
   2  -5   0 317.193 107.643  11
  -2   5   0 337.895 84.3994  14
   2  -5   1 291.805 111.879  11
  -2   5  -1 265.303 93.0753   5
   2  -5   2 109.515 78.0002  11
  -2   5  -2 263.584 88.9025   5
   2  -5   3 2505.69 232.446  11
  -2   5  -3 2426.23 203.222   5
   2  -5   3 2548.94 199.161  15
   2  -5   4 26112.4 754.335  11
   2  -5   4 25645.2 685.034  15
  -2   5  -4 24642.1 685.630   5
  -2   5  -5 6229.67 318.961   5
   2  -5   5 6051.77 319.756  15
   2  -5   5 6579.48 370.657  11
  -2   5  -6 30117.8 739.729   5
   2  -5   6 29580.6 776.284  15
   2  -5   6 29961.7 810.589  11
   2  -5   7 81.1266 88.1561  11
   2  -5   7 111.758 74.5241  15
   2  -5   8 183.218 79.8448  11
   2  -5   8 129.315 68.1909  15
   2  -5   9-27.4609 53.5200  15
   2  -5   9 95.9569 77.9631  11
   2  -5  10 818.300 133.931  11
   2  -5  10 982.242 140.099  15
   2  -5  11 159.515 93.5981  15
   2  -5  11 382.401 110.673  11
   2  -5  12 437.337 112.499  15
   2  -5  12 323.757 95.9036  11
   2  -5  13 110.706 73.0274  15
   2  -5  13 39.6544 66.0667  11
   2  -5  14 403.534 105.851  11
   2  -5  14 455.795 109.902  15
   2  -5  15 2137.37 203.082  11
   2   5  15 2629.13 181.023   8
   2  -5  15 2170.51 193.595  15
   2   5  16 201.969 69.0622   8
   2  -5  16 156.165 81.8180  15
   2  -5  16 12.9417 68.7753  11
   2   5  17 1943.61 152.304   8
   2  -5  17 1794.55 167.282  15
   2   5  18 1450.73 125.036   8
   2   5  19 221.036 57.9609   8
   2   5  20 451.972 73.8355   8
   2   5  21 601.573 78.1221   8
   2   5  21 513.913 57.0700  14
  -2   5 -22-17.4409 41.3171  23
   2   5  22 57.6630 39.7014   8
   2   5  23 32.7123 33.7332   8
  -2   5 -23-9.07503 36.4175  23
  -2   6  19 296.395 40.3509  14
  -2   6  18 3345.40 145.437  14
  -2   6  17 1540.91 100.445   5
  -2   6  17 1707.49 112.020  14
  -2   6  16 4647.94 192.724   5
  -2   6  16 5057.23 208.511  14
  -2   6  15 174.168 56.8646   5
  -2   6  15 174.114 50.1593  14
  -2   6  14 34.8396 45.7142   5
  -2   6  14 24.7165 51.0015  14
  -2   6  13 76.2587 54.1189   5
  -2   6  13 14.7919 46.4706  14
  -2   6  12 499.137 88.3542   5
  -2   6  12 684.117 90.7086  14
   2  -6 -11 91.9662 45.3013  11
  -2   6  11 113.952 74.7504   5
  -2   6  11 162.461 64.3929  14
   2  -6 -10 749.744 86.9794  11
  -2   6  10 861.279 114.399   5
  -2   6  10 758.394 97.9361  14
   2  -6  -9 264.578 70.7462  11
  -2   6   9 293.204 86.3422   5
  -2   6   9 322.794 74.7816  14
   2  -6  -8 674.721 103.583  11
  -2   6   8 609.742 110.504   5
  -2   6   8 647.800 91.6515  14
   2  -6  -7 760.463 111.792  11
  -2   6   7 915.936 130.246   5
  -2   6   7 1010.51 122.686  14
   2  -6  -6 905.881 120.895  11
  -2   6   6 899.329 130.894   5
  -2   6   6 919.455 122.447  14
   2  -6  -5 790.126 103.263  11
  -2   6   5 1061.49 133.081   5
  -2   6   5 827.255 102.255  14
   2  -6  -4 267.454 71.6842  11
  -2   6   4 225.422 76.6751   5
  -2   6   4 271.713 71.7551  14
   2  -6  -3 57.2258 53.9355  11
  -2   6   3 112.229 63.3600   5
  -2   6   3 16.0281 54.0113  14
   2  -6  -2 214.147 67.8379  11
  -2   6   2 323.049 89.6688   5
  -2   6   2 238.880 57.7512  14
   2  -6  -1-44.2186 56.6668  11
  -2   6   1-72.5142 64.8723   5
  -2   6   1 110.872 63.1763  14
   2  -6   0 579.220 109.357  11
  -2   6   0 495.603 95.2676   5
   2  -6   1 109.406 73.9476  11
  -2   6  -1 225.459 88.8588   5
  -2   6  -2 6047.80 283.032   5
   2  -6   2 6729.85 320.982  11
  -2   6  -3 7169.91 304.176   5
   2  -6   3 7746.84 361.363  11
  -2   6  -4 2591.80 173.699   5
   2  -6   4 2636.62 213.581  11
   2  -6   5 7587.99 342.554  11
  -2   6  -5 6760.49 279.222   5
   2  -6   6 816.958 132.294  11
   2  -6   7 620.417 111.198  11
   2   6   8 892.888 81.3030   8
   2  -6   8 948.944 97.8092  15
   2  -6   8 905.983 114.493  11
   2  -6   9 314.571 85.4903  11
   2  -6   9 268.248 68.7259  15
   2   6   9 273.993 55.4293   8
   2   6  10 2104.48 122.876   8
   2  -6  10 1979.60 174.479  11
   2  -6  11 849.279 109.955  11
   2   6  11 785.831 79.9794   8
   2   6  12 1076.81 89.2263   8
   2  -6  12 1118.98 132.538  11
   2   6  13 24.2655 32.3722   8
   2   6  14 48.9401 34.6612   8
   2   6  15-9.07692 29.8698   8
   2   6  16 376.499 49.7899   8
   2   6  16 645.941 81.4269  14
   2   6  17 5875.94 182.198   8
   2   6  17 5308.18 178.274  14
  -2   7   6 796.946 79.0294   5
  -2   7   5 888.860 84.5488   5
  -2   7   4 8633.38 252.884   5
  -2   7   3 944.001 84.2285   5
   2  -7  -3 911.129 75.3528  11
  -2   7   2-44.7968 32.3701   5
   2  -7  -2 23.7304 28.5090  11
   2  -7  -1 165.283 42.9651  11
  -2   7   1 63.1526 35.8986   5
   2  -7   0 111.957 42.6202  11
   2  -7   1 1377.25 102.361  11
   2  -7   2 5367.48 196.593  11
   2  -7   3 533.719 72.0579  11
   2  -7   4 519.691 68.6832  11
   2   7   5 1213.22 71.5089  14
   2  -7   5 1548.63 104.894  11
   3   0 -34 58.1096 29.1172   4
  -3   0  34 28.7200 28.2737  13
   3   0 -33 153.367 46.9225   4
  -3   0  33 185.934 52.7738  13
  -3   0  32 53.2176 48.2391  13
   3   0 -32 37.2635 49.3327   4
  -3   0  31 2265.68 170.221  13
  -3   0  30 64.1532 59.9323  13
  -3   0  29 18.9388 55.7041  13
  -3   0  28 165.936 69.8209  13
  -3   0  27 5910.46 320.743  13
  -3   0  26 2499.04 248.068  13
  -3   0  25 176881. 2875.62  13
  -3   0  24 3441.99 290.918  13
  -3   0  23 53421.9 1160.23  13
   3   0 -22 459.239 255.604  19
  -3   0  22 170.518 214.573   2
  -3   0  22 420.956 135.292  13
   3   0 -21 3172.69 584.036  19
  -3   0  21 3123.84 232.237  13
  -3   0  21 3691.47 516.031   2
   3   0 -20-12.0665 143.669  19
  -3   0  20 142.880 94.2730   2
  -3   0  20 73.8040 70.8588  13
   3   0 -19 26.0577 148.228  19
  -3   0  19-11.7626 158.424   2
   3   0 -18 93.2534 134.841  19
  -3   0  18 58.1380 105.593   2
   3   0 -17 1085.29 276.845  19
  -3   0  17 1271.95 278.986   2
   3   0 -16-126.850 185.789  19
  -3   0  16 163.826 143.296   2
   3   0 -15 1227.20 313.012  19
  -3   0  15 1620.24 299.079   2
  -3   0  14 456.856 174.819   2
   3   0 -14 341.365 194.737  19
   3   0 -13 3844.32 474.454  19
  -3   0  13 4293.32 439.405   2
   3   0 -12 226.686 172.002  19
  -3   0  12 499.802 174.610   2
  -3   0  11 12526.8 693.076   2
   3   0 -11 11796.8 763.869  19
   3   0 -10 200.893 119.426  19
  -3   0  10 434.854 164.972   2
  -3   0   9 557.896 149.252   2
   3   0  -9 487.255 182.924  19
   3   0  -8 123.730 136.724  19
  -3   0   8 168.209 98.5959   2
   3   0  -7 15253.7 782.573  19
  -3   0   7 15342.7 676.857   2
  -3   0   6 481.979 167.770   1
   3   0  -6 281.905 133.772  19
  -3   0   6 402.532 148.300   2
   3   0  -5 7199.01 508.489  19
  -3   0   5 6855.21 432.190   2
  -3   0   5 6521.45 498.936   1
  -3   0   4 2.15313 93.3381   1
   3   0  -4-29.3340 79.3264  19
   3   0  -3 873.742 192.427  19
   3   0  -3 679.793 80.9374  18
  -3   0   3 956.181 203.420   1
  -3   0   2-40.3530 89.4170   1
   3   0  -2 27.6988 41.0796  18
   3   0  -2 169.091 109.158  19
  -3   0   2 262.743 98.8929  21
   3   0  -1 2981.80 314.935  19
  -3   0   1 2933.83 320.902   1
  -3   0   1 2691.32 311.994  21
  -3   0   0 71.6544 82.9148  21
   3   0   0-1.24237 86.1063  19
  -3   0   0 107.886 119.574   1
  -3   0  -1 1536.31 128.685  20
   3   0   1 2199.98 272.750  19
  -3   0  -1 2161.88 279.021   1
  -3   0  -2 208.357 109.015   1
  -3   0  -2 152.058 68.5063  20
   3   0   2 226.380 86.5970  19
  -3   0  -3 4288.20 278.213  20
  -3   0  -3 4735.54 414.156   1
   3   0   3 5252.11 410.216  19
  -3   0  -4 123.538 115.759   1
  -3   0  -4 76.1468 69.1207  20
   3   0   4 70.8619 112.042  19
  -3   0  -5 4334.21 341.812  20
  -3   0  -5 4852.77 434.852   1
   3   0   5 4849.50 413.794  19
   3   0   5 5129.73 385.162  22
  -3   0  -6 93.5897 62.8819  20
   3   0   6 116.029 103.884  19
  -3   0  -6 174.822 128.819   1
   3   0   6 192.687 122.026  22
  -3   0  -7 1375.49 220.876  20
   3   0   7 666.424 179.081  19
  -3   0  -7 921.134 228.338   1
   3   0   7 869.710 179.873  22
  -3   0  -8 198.960 123.926  20
   3   0   8 114.989 139.086  19
  -3   0  -8 174.884 113.780   1
   3   0   8 321.443 121.412  22
  -3   0  -9 14110.9 751.284  20
   3   0   9 14839.9 791.080  19
   3   0   9 14707.0 717.126  22
  -3   0  -9 14891.2 823.848   1
  -3   0 -10 417.878 196.944  20
   3   0  10 437.596 161.261  22
   3   0  10 579.258 200.572  19
  -3   0 -10 507.027 208.518   1
  -3   0 -11 1394.91 268.710  20
   3   0  11 1380.55 226.148  22
  -3   0 -11 1301.37 276.109   1
   3   0  12 371.547 148.693  22
  -3   0 -12 454.395 174.250  20
  -3   0 -12 531.085 226.828   1
  -3   0 -13 657.173 208.234  20
  -3   0 -13 637.052 202.923   1
   3   0  13 587.179 157.739  22
  -3   0 -14 188.928 152.327  20
  -3   0 -14 92.8956 108.420   1
   3   0  14 56.8774 88.3118  22
  -3   0 -15 728.231 255.177  20
  -3   0 -15 454.472 230.074   1
   3   0  15 640.873 195.788  22
  -3   0 -16 252.961 202.556  20
  -3   0 -16 115.614 123.498   1
   3   0  16-14.5947 80.3143  22
   3   0  17 667.088 194.387  22
  -3   0 -17 580.729 263.610  20
  -3   0 -17 498.408 243.933   1
  -3   0 -18 21.7475 137.474  20
  -3   0 -18 145.074 117.610   1
   3   0  18 92.6568 63.4581   7
  -3   0 -18 187.146 73.7501  23
  -3   0 -19 12663.5 1036.60  20
  -3   0 -19 11848.7 939.910   1
   3   0  19 13802.7 459.154   7
  -3   0 -19 13176.9 496.784  23
  -3   0 -20 955.839 381.798  20
  -3   0 -20 1159.01 184.453  23
  -3   0 -20 985.061 318.568   1
   3   0  20 1073.27 149.544   7
   3   0  21 14994.1 508.432   7
  -3   0 -21 15637.8 563.346  23
  -3   0 -22 680.867 141.439  23
   3   0  22 457.071 119.742   7
   3   0  23 1211.90 152.847   7
   3   0  23 1690.66 143.954  13
  -3   0 -23 1382.37 176.355  23
  -3   0 -24 321.226 123.280  23
   3   0  24 446.327 119.791   7
   3   0  24 305.903 84.5067  13
   3   0  25 404.057 100.374   7
   3   0  25 386.267 75.3874  13
  -3   0 -25 437.390 94.6233  23
  -3   0 -26 28.1095 85.6390  23
   3   0  26 139.284 82.1175   7
   3   0  26 182.537 66.4425  13
  -3   0 -27 3730.78 252.444  23
   3   0  27 3385.03 229.546   7
   3   0  28 27.5523 51.3214   7
  -3   0 -28 80.0510 70.7260  23
   3   0  29 680.833 104.796   7
  -3   0 -29 882.958 124.980  23
   3   0  30 8.34395 41.3910   7
  -3   0 -30 71.4036 56.1803  23
   3   0  31 128.873 47.8387   7
  -3   0 -31 159.838 57.2677  23
   3   0  32 52.5963 35.7729   7
  -3   0 -32 53.6331 34.8369  23
   3  -1 -33 172.337 44.4732   4
  -3   1  33 159.626 52.7530  13
   3  -1 -32 1676.99 106.584   6
   3  -1 -32 1877.15 131.803   4
  -3  -1  32 1876.55 118.722  13
  -3   1  32 1787.97 137.528  13
   3  -1 -31 253.021 59.8559   6
  -3   1  31 287.493 70.6249  13
   3  -1 -31 426.455 76.0816   4
  -3  -1  31 224.157 56.4603  13
   3  -1 -30 1202.56 128.166   4
  -3  -1  30 1111.68 114.862  13
  -3   1  30 1185.28 127.673  13
  -3  -1  29 345.044 79.2600  13
   3  -1 -29 603.366 99.1356   4
  -3   1  29 476.249 95.8975  13
  -3  -1  28 6087.81 293.806  13
  -3   1  28 6092.52 311.009  13
  -3  -1  27 344.620 99.0894  13
  -3   1  27 276.624 88.6070  13
  -3   1  26 325.967 82.1149   8
  -3  -1  26 240.452 80.5739  13
  -3   1  26 285.218 95.1972  13
  -3   1  25 126.979 52.3789   8
  -3  -1  25 55.8010 64.4374  13
  -3   1  25 1.94746 66.0092  13
  -3  -1  24 9548.74 408.816  13
  -3   1  24 9617.48 420.241  13
  -3   1  24 8746.98 376.217   8
  -3   1  23 500.045 110.355   8
  -3  -1  23 710.463 125.282  13
  -3   1  23 704.174 129.511  13
  -3  -1  22 12513.1 472.218  13
  -3   1  22 13648.4 490.765  13
  -3   1  22 13081.2 451.197   8
   3  -1 -21 1241.23 354.924  19
   3   1 -21 905.995 305.610  19
  -3   1  21 1149.00 140.157   8
  -3   1  21 1603.03 343.166   2
  -3   1  21 1209.28 145.703  13
  -3  -1  21 1059.33 246.223   2
  -3  -1  21 1347.93 152.418  13
   3  -1 -20 1438.00 375.745  19
   3   1 -20 1542.16 362.457  19
  -3   1  20 1299.84 141.717   8
  -3   1  20 1244.64 292.777   2
  -3  -1  20 1610.10 350.916   2
  -3  -1  20 1700.17 163.198  13
  -3   1  20 1328.02 151.619  13
   3  -1 -19 857.634 263.378  19
  -3   1  19 894.367 254.093   2
  -3  -1  19 1010.40 282.462   2
  -3   1  19 839.460 119.774  13
   3  -1 -18 252.421 121.927  19
  -3   1  18 236.855 97.9951   2
  -3  -1  18 162.996 112.297   2
   3  -1 -17-40.3329 155.272  19
  -3   1  17 17.0624 91.5645   2
  -3  -1  17 164.311 171.941   2
  -3  -1  16 3284.41 415.706   2
   3  -1 -16 2838.42 459.499  19
  -3   1  16 3036.21 401.659   2
  -3   1  15 3811.24 450.375   2
  -3  -1  15 3894.74 433.049   2
   3  -1 -15 2860.90 461.117  19
  -3   1  14 10399.5 699.905   2
  -3  -1  14 11032.1 693.556   2
   3  -1 -14 9326.99 743.446  19
  -3  -1  13 25323.1 1051.04   2
   3  -1 -13 24167.1 1195.48  19
   3   1 -13 25434.2 1192.71  19
  -3   1  13 24288.3 1062.21   2
  -3  -1  12 97362.1 2240.66   2
   3   1 -12 94497.0 2441.68  19
  -3   1  12 93355.7 2310.96   2
   3  -1 -12 88991.5 2467.23  19
  -3  -1  11 27760.4 1030.14   2
   3   1 -11 27249.6 1154.01  19
   3  -1 -11 24396.4 1152.98  19
  -3   1  11 25810.9 1043.25   2
  -3   1  10 320.446 131.639  21
   3  -1 -10 220.712 175.059  19
   3   1 -10 441.087 166.222  19
  -3   1  10 379.151 150.350   2
  -3  -1  10 535.016 152.139   2
   3  -1  -9 39.8127 104.454  19
   3   1  -9-55.5059 94.8696  19
  -3  -1   9-19.6694 70.0497   2
  -3   1   9-12.4919 87.3894   2
  -3   1   9-87.1408 93.4320  21
  -3   1   8 893.438 177.751  21
  -3   1   8 972.869 191.286   2
   3  -1  -8 720.021 199.983  19
   3   1  -8 719.499 188.812  19
  -3  -1   8 860.975 162.296   2
  -3  -1   8 731.889 207.148   1
  -3  -1   7 211.784 110.099   1
  -3   1   7 238.584 121.755  21
   3   1  -7 167.962 97.4501  19
   3  -1  -7 158.233 155.042  19
  -3  -1   7 221.021 107.822   2
   3  -1  -6 2232.32 317.430  19
   3   1  -6 2037.06 270.721  19
  -3  -1   6 2213.88 313.944   1
  -3  -1   6 1948.53 226.720   2
  -3   1   6 2399.26 289.764  21
  -3  -1   5 6296.75 383.021   2
   3  -1  -5 6419.33 525.127  19
   3   1  -5 6240.09 458.242  19
  -3   1   5 6573.44 473.705  21
   3  -1  -5 6281.51 271.989  18
  -3  -1   5 5952.47 486.592   1
  -3  -1   4 3045.73 264.654   2
   3  -1  -4 2376.13 336.153  19
   3   1  -4 2599.82 309.965  19
  -3  -1   4 2778.82 354.994   1
   3  -1  -4 2451.72 189.378  18
  -3  -1   3 110786. 2016.84   2
  -3   1   3 111569. 1858.59  20
  -3   1   3 114972. 2499.26  21
   3  -1  -3 114019. 2532.37  19
   3   1  -3 115915. 2353.04  19
   3  -1  -3 111252. 1982.65  18
  -3  -1   3 112969. 2546.67   1
  -3   1   2 369755. 5090.78  20
   3  -1  -2 347534. 5847.88  19
   3   1  -2 352893. 5590.99  19
   3  -1  -2 354531. 5310.33  18
  -3  -1   2 354657. 5893.87   1
  -3   1   2 357037. 5554.49   1
  -3   1   2 349436. 5806.75  21
  -3  -1   2 351058. 5182.36   2
  -3   1   1 38459.3 873.617  20
   3  -1  -1 39759.9 1323.54  19
   3   1  -1 39940.0 1146.56  19
   3  -1  -1 36718.4 1017.42  18
  -3  -1   1 40261.8 1344.41   1
  -3   1   1 38893.7 1124.12   1
  -3   1   1 39896.4 1301.30  21
  -3  -1   1 39072.3 884.969   2
  -3   1   0 2173.05 310.379  21
  -3   1   0 1898.34 185.270  20
  -3  -1   0 2026.62 172.658   2
   3   1   0 1757.08 234.835  19
  -3  -1   0 2680.04 360.780   1
   3  -1   0 1935.59 231.992  18
   3  -1   0 2070.47 318.862  19
  -3   1   0 2040.02 261.171   1
  -3   1  -1 1410.09 162.036  20
  -3  -1  -1 1178.56 250.577   1
   3   1   1 1507.65 200.091  19
   3  -1   1 1687.89 262.765  19
  -3   1  -1 1238.30 192.620   1
   3  -1   1 1293.32 203.787  18
  -3   1  -1 1558.19 259.962  21
  -3  -1  -1 1363.79 128.921   2
   3   1   2 6636.15 408.025  19
  -3   1  -2 6375.19 357.134  20
  -3  -1  -2 6689.39 530.337   1
   3  -1   2 6257.37 488.021  19
   3  -1   2 6575.49 436.724  18
  -3   1  -2 6907.48 432.708   1
  -3   1  -2 5848.21 463.172  21
   3   1   2 6433.39 448.086  22
  -3  -1  -2 6985.50 266.924   2
   3   1   3 16379.6 742.389  22
  -3   1  -3 14931.5 596.275  20
  -3  -1  -3 16233.3 823.391   1
   3   1   3 17825.0 696.055  19
   3  -1   3 15048.2 710.457  18
  -3   1  -3 15729.5 794.415  21
  -3   1  -3 16131.7 688.495   1
   3  -1   3 16323.3 830.882  19
  -3   1  -4 410.680 121.079  20
   3   1   4 279.086 110.219  19
   3  -1   4 395.621 159.416  19
   3  -1   4 330.384 142.994  18
   3   1   4 523.068 157.740  22
  -3   1  -4 344.113 118.665   1
  -3   1  -4 433.151 160.514  21
  -3  -1  -4 204.805 96.3096   1
  -3   1  -5 1146.35 198.179  20
   3   1   5 1143.24 177.762  19
   3  -1   5 1046.65 229.599  19
  -3   1  -5 1002.84 181.675   1
   3  -1   5 1135.87 235.829  18
  -3   1  -5 1046.70 229.228  21
  -3  -1  -5 1103.12 242.100   1
   3   1   5 1115.94 214.979  22
  -3  -1  -6 2288.69 325.497   1
  -3  -1  -6 2683.33 304.825  20
   3  -1   6 2800.07 274.358  22
  -3   1  -6 2440.33 273.472  20
   3   1   6 2820.70 274.526  19
   3  -1   6 2406.98 338.311  19
  -3   1  -6 2856.47 288.991   1
   3  -1   6 2437.49 315.408  18
   3   1   6 2722.65 303.335  22
  -3   1  -6 2630.09 320.757  21
  -3   1  -7 562.426 146.116   1
  -3  -1  -7 639.963 151.841  20
  -3   1  -7 678.298 160.055  20
   3   1   7 707.369 153.698  19
   3  -1   7 561.988 185.555  19
   3  -1   7 803.510 214.372  18
  -3   1  -7 677.450 194.588  21
  -3  -1  -7 709.871 193.714   1
   3  -1   7 661.136 151.812  22
   3   1   7 656.245 167.617  22
  -3  -1  -8 11923.0 774.372   1
  -3  -1  -8 10390.6 651.070  20
  -3   1  -8 13367.1 659.009   1
   3  -1   8 12831.4 771.787  19
   3   1   8 12411.9 661.418  22
   3   1   8 12016.2 608.011  19
  -3   1  -8 13393.4 767.450  21
   3  -1   8 11970.6 754.298  18
  -3   1  -8 11712.4 679.889  20
   3  -1   8 12704.2 597.038  22
  -3  -1  -9 5185.10 546.046   1
  -3  -1  -9 4604.78 479.268  20
  -3   1  -9 5592.57 492.987  20
  -3   1  -9 5795.05 448.113   1
   3  -1   9 5612.89 539.200  19
   3  -1   9 5401.49 549.660  18
   3   1   9 5613.93 452.273  22
   3  -1   9 5826.72 397.236  22
  -3   1  -9 6084.01 553.125  21
  -3  -1 -10 39420.4 1516.91   1
  -3   1 -10 38700.5 1257.49   1
  -3   1 -10 39389.0 1376.18  20
   3  -1  10 39948.6 1493.04  19
   3  -1  10 36667.4 1486.36  18
  -3  -1 -10 38161.3 1412.11  20
   3   1  10 40730.7 1312.74  22
   3  -1  10 38067.3 1091.62  22
  -3   1 -10 42065.4 1431.93  21
  -3  -1 -11 8610.25 711.427   1
  -3   1 -11 9784.48 620.552   1
  -3  -1 -11 9222.72 704.829  20
  -3   1 -11 9214.93 664.905  20
   3  -1  11 9257.16 716.809  19
  -3   1 -11 9236.88 648.393  21
   3  -1  11 8606.03 725.917  18
   3  -1  11 8432.64 478.427  22
   3   1  11 9431.70 612.695  22
  -3   1 -12 5503.98 477.302   1
  -3  -1 -12 5993.17 585.122  20
  -3   1 -12 5798.44 549.880  20
   3  -1  12 5051.31 561.773  18
   3   1  12 5913.43 493.469  22
  -3  -1 -12 5695.38 591.847   1
  -3  -1 -13 11498.0 847.524  20
  -3   1 -13 10674.3 778.341  20
   3  -1  13 10688.7 826.200  18
   3   1  13 11843.3 731.154  22
  -3  -1 -13 10906.7 838.118   1
  -3  -1 -14 6780.47 665.969  20
  -3   1 -14 7304.32 658.093  20
   3   1  14 6291.48 536.748  22
   3  -1  14 6017.48 637.187  18
  -3  -1 -14 6323.29 654.450   1
  -3  -1 -15 305.493 191.701  20
  -3   1 -15 322.529 125.132  20
   3  -1  15 352.365 207.398  18
  -3  -1 -15 465.677 209.080   1
   3   1  15 328.350 161.364  22
  -3   1 -16-23.7777 139.061  20
   3  -1  16 159.758 206.325  18
  -3  -1 -16 111.891 117.503   1
  -3  -1 -16 68.0395 154.611  20
   3   1  16-52.3807 95.6389  22
  -3  -1 -17 166.512 131.013  20
  -3   1 -17 759.912 279.587  20
  -3  -1 -17 388.059 189.110   1
   3  -1  17 798.039 288.665  18
   3   1  17 768.021 220.488  22
   3   1  18 142.184 53.4255   7
  -3  -1 -18-53.2749 174.829  20
  -3   1 -18-49.0301 132.257  20
  -3   1 -18 55.0649 66.4200  23
   3  -1  18 4.33746 134.634  18
  -3  -1 -18-87.7237 236.120   1
  -3  -1 -18 92.0098 58.0863  23
   3  -1  18 167.790 56.5586   7
   3   1  18 240.083 143.622  22
  -3  -1 -19 286.363 152.748  20
  -3   1 -19-89.0615 138.765  20
   3  -1  19 36.2769 180.466  18
  -3  -1 -19-133.727 226.330   1
  -3   1 -19 182.454 70.5195  23
   3   1  19 289.766 89.3950   7
   3  -1  19 211.088 68.8163   7
   3   1  19 403.281 197.931  22
  -3  -1 -19 291.787 103.829  23
  -3   1 -20 7155.27 358.997  23
  -3  -1 -20 6501.47 733.048   1
  -3  -1 -20 6195.51 351.733  23
   3   1  20 6644.35 307.992   7
   3  -1  20 6833.93 328.586   7
   3   1  20 6001.21 570.723  22
  -3   1 -21 3454.72 256.494  23
   3   1  21 3274.09 224.721   7
   3  -1  21 3336.42 236.704   7
  -3  -1 -21 3679.76 268.862  23
  -3  -1 -22 4886.26 315.886  23
   3   1  22 5070.90 273.021   7
   3  -1  22 4902.36 284.302   7
  -3   1 -22 5239.78 310.773  23
  -3  -1 -23 608.389 125.197  23
  -3   1 -23 765.311 133.694  23
   3   1  23 739.189 108.271   7
   3  -1  23 674.531 124.351   7
   3   1  24 7586.42 337.099   7
   3  -1  24 7121.23 342.151   7
   3   1  24 7823.12 326.540  13
  -3  -1 -24 8064.11 396.441  23
  -3   1 -24 7049.90 369.209  23
  -3   1 -25 801.991 135.208  23
  -3  -1 -25 939.276 151.104  23
   3   1  25 1056.74 122.615   7
   3  -1  25 942.165 126.216   7
   3   1  25 975.113 117.509  13
  -3   1 -26 95.9303 68.2324  23
   3  -1  26 121.047 61.8202   7
  -3  -1 -26 86.9757 70.9284  23
   3   1  26 20.5462 59.2589   7
   3   1  26 107.675 59.3287  13
   3   1  27 43.7540 50.7475  13
   3  -1  27 90.7936 58.1610   7
   3   1  27 47.4169 57.1854   7
  -3  -1 -27 130.546 67.1330  23
  -3   1 -27 56.2213 57.7477  23
   3   1  28 453.042 85.7250   7
  -3  -1 -28 510.217 101.026  23
   3  -1  28 395.403 84.0166   7
  -3   1 -28 448.342 96.4198  23
   3   1  28 429.986 76.1106  13
   3   1  29 83.4435 55.4358   7
   3  -1  29 153.833 59.5111   7
  -3  -1 -29 152.941 70.1958  23
  -3   1 -29 175.953 61.1773  23
   3   1  29 61.0429 44.0761  13
  -3  -1 -30 534.727 85.2036  23
   3  -1  30 407.716 76.8458   7
   3   1  30 426.791 71.5509   7
  -3   1 -30 429.734 77.8775  23
   3   1  30 505.120 67.7764  13
  -3  -1 -31 384.765 64.6392  23
   3   1  31 357.594 57.9846   7
   3  -1  31 343.930 62.1190   7
   3   1  31 401.329 55.1708  13
  -3   1 -31 513.707 76.3235  23
   3   1  32 3628.34 143.758   7
   3  -1  32 3783.35 167.418   7
  -3   1 -32 4280.92 170.001  23
  -3  -1 -32 4159.47 155.662  23
  -3   2  32 91.7414 48.7752  13
   3  -2 -32-23.6342 32.9239   4
  -3   2  31 508.185 59.4250   9
   3  -2 -31 361.863 64.5316   4
  -3   2  31 302.248 58.0108  13
   3  -2 -30 359.001 57.8130   6
  -3   2  30 427.152 64.7850   9
   3  -2 -30 340.255 67.7192   4
  -3   2  30 328.913 69.4315  13
   3  -2 -29 1734.41 134.008   6
   3  -2 -29 1808.69 152.292   4
  -3   2  29 1556.35 148.795  13
   3  -2 -28 172.022 61.2637   6
  -3   2  28 110.267 50.4103   8
   3  -2 -28 33.5455 58.5577   4
  -3   2  28 130.177 68.9799  13
   3  -2 -27 2407.70 179.829   6
  -3   2  27 2290.72 173.279   8
   3  -2 -27 2740.86 202.730   4
  -3   2  27 2296.53 190.014  13
  -3   2  26 2708.72 198.631   8
   3  -2 -26 2523.25 197.684   4
  -3   2  26 2720.83 205.395  13
   3  -2 -26 2492.40 193.095   6
   3  -2 -25 266.237 83.5364   6
  -3   2  25 72.6988 61.4344   8
   3  -2 -25 161.220 85.0506   4
  -3   2  25 173.422 69.7540  13
  -3   2  24 3860.16 240.413   8
   3  -2 -24 3547.98 245.841   4
  -3   2  24 4015.55 254.879  13
  -3   2  23 2644.14 199.175   8
   3  -2 -23 2221.16 206.806   4
  -3   2  23 2970.49 224.311  13
  -3   2  22 741.084 125.045   8
   3  -2 -22 700.073 128.160   4
  -3   2  22 655.467 119.322  13
  -3   2  21 6420.78 313.720   8
   3  -2 -21 6479.13 334.363   4
  -3  -2  21 6986.46 327.526  13
  -3   2  21 6606.28 325.507  13
  -3   2  20 188.050 80.3722  13
  -3  -2  20 212.039 84.7672  13
  -3   2  20 298.215 82.5854   8
   3  -2 -20 270.778 93.1934   4
   3  -2 -19 719.595 330.130  19
  -3   2  19 576.052 245.259   2
  -3   2  19 360.389 95.5759   8
   3  -2 -19 307.384 92.4464   4
  -3   2  19 364.952 81.3130  13
  -3  -2  19 367.263 201.424   2
  -3  -2  19 213.708 56.0386  13
  -3   2  18 7088.62 648.979   2
   3  -2 -18 6826.07 700.105  19
  -3   2  18 6759.63 306.973   8
   3  -2 -18 6571.70 314.440   4
  -3  -2  18 5797.63 604.865   2
  -3   2  18 6293.77 301.213  13
  -3  -2  17 4547.34 523.816   2
   3  -2 -17 4776.32 581.318  19
  -3   2  17 5710.59 281.137   8
  -3   2  17 5881.79 578.814   2
   3  -2 -16 1262.64 285.191  19
  -3   2  16 1499.22 312.856   2
  -3  -2  16 1767.34 314.099   2
  -3   2  15 29562.1 1297.18   2
  -3  -2  15 29343.9 1266.24   2
   3  -2 -15 30681.6 1436.20  19
  -3   2  15 27653.0 1334.63   3
  -3  -2  14 3227.35 412.941   2
   3  -2 -14 3037.65 438.998  19
  -3   2  14 3155.65 404.540   2
  -3   2  14 2625.16 415.259   3
  -3  -2  13 3901.04 413.399   2
   3  -2 -13 3229.09 436.588  19
   3   2 -13 3575.26 460.491  19
  -3   2  13 3898.33 483.895   3
  -3   2  13 3633.80 409.595   2
   3  -2 -12 817.671 222.903  19
   3   2 -12 807.299 222.617  19
  -3   2  12 676.448 210.677   2
  -3  -2  12 986.655 211.918   2
  -3   2  12 636.326 196.805   3
  -3   2  11 427.135 161.471  21
  -3   2  11 684.690 199.643   2
   3   2 -11 505.992 170.413  19
  -3  -2  11 585.118 176.736   2
  -3   2  11 359.510 176.162   3
   3  -2 -11 508.896 198.285  19
  -3   2  10 5692.35 486.505  21
  -3  -2  10 6558.11 488.278   2
   3  -2 -10 5946.02 557.399  19
   3   2 -10 5497.33 498.502  19
  -3   2  10 5656.06 543.550   3
  -3   2  10 6653.71 544.760   2
  -3   2   9 120.419 112.600  21
   3  -2  -9 269.679 171.442  19
   3   2  -9 154.853 82.8031  19
  -3  -2   9 48.4815 74.8794   2
  -3   2   9 176.005 131.795   3
  -3  -2   8 4332.93 381.241   2
   3  -2  -8 4774.88 481.277  19
   3   2  -8 4635.04 425.946  19
  -3   2   8 4755.17 474.466   3
  -3   2   8 4916.73 450.669  21
  -3  -2   8 4934.90 492.368   1
  -3   2   7 5299.77 468.040  21
  -3  -2   7 5612.49 403.402   2
   3  -2  -7 5331.33 505.147  19
   3   2  -7 5546.06 450.223  19
  -3   2   7 4758.76 477.673   3
  -3  -2   7 5889.81 533.566   1
  -3  -2   6 44620.1 1203.78   2
   3  -2  -6 47876.1 1586.79  19
   3   2  -6 46256.7 1351.41  19
  -3   2   6 47368.2 1501.54  21
   3  -2  -6 47489.0 1199.48  18
  -3  -2   6 48237.8 1583.11   1
  -3   2   5 1832.15 316.435  21
  -3  -2   5 1055.44 169.384   2
   3  -2  -5 1847.51 339.413  19
   3   2  -5 1344.01 211.113  19
   3  -2  -5 1441.35 212.330  18
  -3  -2   5 1692.49 302.687   1
  -3   2   4 54497.7 1679.70  21
   3   2  -4 56426.8 1423.50  19
   3   2  -4 55283.1 1453.01  22
   3  -2  -4 55531.6 1412.39  18
  -3  -2   4 55841.9 1730.17   1
   3  -2  -4 54306.4 1702.23  19
  -3   2   3 50847.0 1613.37  21
   3  -2  -3 50809.3 1619.25  19
   3   2  -3 51244.9 1302.92  19
   3  -2  -3 49432.0 1355.41  18
  -3  -2   3 49709.3 1643.43   1
   3   2  -3 48911.9 1369.79  22
  -3   2   2 83150.1 2176.63  21
   3  -2  -2 85539.7 2220.56  19
   3   2  -2 89546.0 1810.63  19
   3   2  -2 88476.9 1958.33  22
   3  -2  -2 87995.8 1992.80  18
  -3  -2   2 87856.9 2294.51   1
  -3   2   1 68255.4 1669.23  20
  -3   2   1 66979.9 1902.45  21
   3  -2  -1 69808.0 1940.57  19
   3  -2  -1 67967.0 1741.48  18
  -3  -2   1 70571.7 2031.72   1
   3   2  -1 70089.0 1701.50  22
  -3   2   0 165234. 3428.86  21
   3  -2   0 173049. 3498.05  19
  -3  -2   0 170690. 3594.37   1
   3  -2   0 166175. 3246.25  18
   3   2   0 169834. 3158.16  22
  -3   2   0 173175. 3155.72  20
  -3   2  -1 983.513 228.416  20
  -3  -2  -1 1131.75 290.797   1
   3  -2   1 991.948 275.348  19
   3  -2   1 1206.71 249.480  18
   3   2   1 1204.92 219.110  22
  -3   2  -1 1500.95 341.467  21
  -3   2  -2 133325. 2693.21  20
   3  -2   2 133878. 3007.78  19
  -3  -2  -2 138572. 3123.17   1
   3  -2   2 129543. 2833.81  18
   3   2   2 138873. 2718.99  22
  -3   2  -2 129687. 2937.24  21
  -3   2  -3 5334.54 516.860  21
  -3   2  -3 4698.44 410.496  20
  -3  -2  -3 4606.94 503.641   1
   3  -2   3 5252.18 503.482  19
   3  -2   3 5147.94 483.014  18
   3   2   3 5049.21 428.527  22
  -3   2  -4 16740.0 794.538  20
  -3  -2  -4 17917.3 979.525   1
   3  -2   4 17141.5 921.896  19
   3  -2   4 16024.2 861.370  18
  -3   2  -4 17291.5 902.930  21
   3   2   4 16711.0 781.011  22
  -3   2  -5 240.360 126.702  20
   3  -2   5 171.407 153.942  19
  -3  -2  -5 108.317 102.013   1
   3  -2   5 38.4729 121.841  18
   3   2   5 145.771 96.4025  22
  -3   2  -5-19.4146 132.820  21
  -3   2  -6 1662.84 306.692  21
  -3  -2  -6 1462.36 307.690   1
  -3   2  -6 1548.72 253.285  20
   3  -2   6 1741.38 319.715  19
   3  -2   6 1940.37 307.523  18
   3   2   6 1641.46 255.808  22
  -3   2  -7 1885.80 342.045  21
  -3   2  -7 1755.46 284.543  20
   3  -2   7 1855.97 325.533  19
   3  -2   7 1712.34 315.813  18
   3   2   7 1917.71 271.088  22
  -3  -2  -7 1828.52 350.985   1
  -3  -2  -8 6076.87 612.629   1
  -3   2  -8 5792.37 524.849  20
   3  -2   8 5630.71 541.415  18
  -3   2  -8 5909.95 552.482  21
   3  -2   8 6333.48 595.174  19
   3   2   8 6141.67 495.536  22
  -3   2  -9 189.909 157.954  21
  -3   2  -9-21.1144 102.751  20
   3  -2   9 8.32748 94.8828  19
   3  -2   9 1.48786 93.7447  18
  -3  -2  -9 13.1003 141.724   1
   3   2   9 175.304 111.760  22
   3  -2  10 4986.10 555.871  19
  -3   2 -10 6044.20 566.251  20
   3   2  10 6063.36 510.946  22
  -3   2 -10 6242.87 578.986  21
   3  -2  10 5589.00 585.647  18
  -3  -2 -10 6089.37 625.864   1
   3   2  11 7997.97 606.520  22
  -3   2 -11 6539.22 615.347  20
   3  -2  11 7166.58 673.190  18
  -3  -2 -11 7436.86 709.543   1
  -3   2 -11 6933.65 626.547  21
  -3   2 -12 1042.35 246.271  21
  -3   2 -12 1016.73 271.830  20
   3  -2  12 1150.48 320.152  18
  -3  -2 -12 530.847 217.082   1
   3   2  12 781.750 222.802  22
  -3  -2 -13 4283.46 589.326   1
   3   2  13 4670.45 494.449  22
  -3   2 -13 4269.91 531.150  20
   3  -2  13 3860.46 545.357  18
  -3   2 -13 5142.68 532.024  21
  -3  -2 -14 46764.9 1973.60   1
  -3   2 -14 43534.8 1801.37  20
   3  -2  14 42577.6 1851.23  18
   3   2  14 48398.8 1700.53  22
   3  -2  15 115.656 55.6257  10
  -3   2 -15 371.759 160.397  20
   3  -2  15 425.491 195.903  18
  -3  -2 -15-80.9013 125.713   1
   3   2  15 265.335 170.542  22
  -3   2 -16 2680.75 446.533  20
   3  -2  16 2425.06 472.794  18
   3  -2  16 2395.40 188.850  15
  -3  -2 -16 1916.54 409.621   1
   3  -2  16 2281.77 172.016   7
  -3  -2 -16 2294.91 203.599  23
   3   2  16 2133.99 368.671  22
  -3  -2 -17 14738.7 1143.88   1
  -3   2 -17 15183.4 1112.31  20
   3  -2  17 14397.3 1080.85  18
   3  -2  17 15041.8 510.620  15
   3   2  17 14136.2 920.178  22
   3  -2  17 14735.8 473.242   7
  -3  -2 -17 14241.0 531.694  23
  -3  -2 -18 5380.48 688.030   1
  -3   2 -18 6133.42 721.390  20
   3  -2  18 5193.80 659.743  18
  -3  -2 -18 5829.51 327.461  23
   3  -2  18 5305.25 283.232  15
   3  -2  18 5179.53 267.786   7
   3   2  18 5522.60 588.789  22
  -3   2 -18 5339.52 309.459  23
   3  -2  19 1064.08 143.656  15
   3  -2  19 1021.34 139.546   7
  -3  -2 -19 663.170 143.520  23
  -3   2 -19 999.833 168.425  23
   3  -2  20 72985.4 1357.34  15
   3  -2  20 70283.2 1343.19   7
  -3  -2 -20 67709.5 1425.54  23
  -3   2 -20 70507.3 1421.58  23
   3  -2  21 2539.38 198.944  15
   3  -2  21 2471.69 202.254   7
  -3  -2 -21 3174.39 253.158  23
  -3   2 -21 2593.07 227.154  23
  -3  -2 -22 17529.6 595.911  23
   3  -2  22 17567.4 521.178  15
   3  -2  22 17464.6 543.612   7
  -3   2 -22 17302.6 587.820  23
  -3  -2 -23 471.916 105.281  23
  -3   2 -23 459.169 112.121  23
   3  -2  23 600.055 106.918   7
  -3   2 -24 2352.97 207.178  23
  -3  -2 -24 2238.22 201.058  23
   3  -2  24 2290.79 185.141   7
   3   2  24 2242.40 176.512  13
   3   2  25 1115.13 127.435  13
  -3  -2 -25 1114.44 143.681  23
   3  -2  25 943.348 124.159   7
  -3   2 -25 1083.96 144.484  23
  -3  -2 -26 4198.54 252.780  23
  -3   2 -26 4600.41 272.414  23
   3  -2  26 3871.23 225.663   7
   3   2  26 4390.31 227.994  13
   3   2  27 336.801 80.1703  13
  -3  -2 -27 339.105 86.1310  23
   3  -2  27 250.844 71.5351   7
  -3   2 -27 369.327 95.9767  23
  -3   2 -28 38.7875 52.2851  23
  -3  -2 -28-6.77021 55.5615  23
   3  -2  28-4.15830 46.6265   7
   3   2  28 4.39368 44.6066  13
   3   2  29 113.668 50.5925  13
  -3   2 -29 101.033 50.9516  23
   3  -2  29 26.2855 41.8487   7
  -3  -2 -29 37.9919 47.2817  23
   3  -2  30-20.9929 40.6129   7
  -3  -2 -30 57.2702 41.5577  23
  -3   2 -30 70.2563 44.8386  23
   3   2  30-10.5880 34.6410  13
   3   2  31 8.44876 30.9691  13
   3  -2  31-65.5538 32.8304   7
  -3  -2 -31-39.1108 29.1880  23
  -3   3  30 1868.11 110.629   9
  -3   3  30 1700.16 103.404  13
  -3   3  29 3211.22 160.701  13
   3  -3 -28 387.126 80.0148   4
  -3   3  28 294.334 72.5839   8
  -3   3  28 326.693 69.0518  13
   3  -3 -27 1727.96 124.580   6
   3  -3 -27 1743.02 147.297   4
  -3   3  27 1460.18 130.323   8
  -3   3  27 1490.22 129.756  13
   3  -3 -26 1628.20 147.754   4
  -3   3  26 1609.99 145.276   8
  -3   3  26 1525.64 135.544  13
   3  -3 -26 1678.89 130.646   6
   3  -3 -25 188.585 70.7126   6
   3  -3 -25 155.220 73.3203   4
  -3   3  25 233.617 76.1913   8
  -3   3  25 309.553 77.8475  13
  -3   3  24 2693.73 196.936   8
  -3   3  24 2655.97 189.219  13
   3  -3 -24 2691.92 193.215   6
   3  -3 -24 2735.07 212.028   4
   3  -3 -23 1338.99 145.417   6
   3  -3 -23 1418.45 157.837   4
  -3   3  23 1342.31 147.798   8
  -3   3  23 1406.02 145.172  13
   3  -3 -22 5055.96 274.619   6
   3  -3 -22 4922.11 281.437   4
  -3   3  22 4576.04 267.778   8
  -3   3  22 4485.74 253.624  13
   3  -3 -21 2803.89 210.765   6
   3  -3 -21 2870.44 226.983   4
  -3   3  21 2754.30 219.103   8
  -3   3  21 2693.99 200.698  13
   3  -3 -20 1313.37 151.050   6
   3  -3 -20 1375.96 157.215   4
  -3   3  20 1299.29 152.970   8
  -3   3  20 1252.40 128.897  14
  -3   3  20 1014.21 128.512  13
   3  -3 -19 4794.56 288.249   6
   3  -3 -19 4715.12 290.378   4
  -3   3  19 4700.77 273.142   8
  -3   3  19 4681.75 245.960  14
  -3   3  19 4724.67 260.117  13
   3  -3 -18 5781.80 315.133   6
   3  -3 -18 5676.81 318.686   4
  -3   3  18 5749.89 293.511   8
  -3   3  18 5371.95 275.733  14
   3  -3 -17 132.501 93.5984   6
   3  -3 -17 203.301 92.5754   4
  -3   3  17 187.653 84.7630   8
  -3   3  17 211.664 82.7654  14
   3  -3 -16 233.890 84.2261   6
  -3   3  16-53.8055 101.032   2
   3  -3 -16 274.351 88.4906   4
  -3   3  16 246.858 73.0962   8
  -3   3  16 359.526 101.839  14
  -3   3  16 528.702 247.441   3
  -3   3  15 7782.46 659.741   2
   3  -3 -15 6668.50 340.841   6
   3  -3 -15 6712.56 318.380   4
  -3   3  15 6868.47 313.112   8
  -3   3  15 6846.50 302.894  14
   3  -3 -14 515.074 110.474   6
  -3   3  14 941.956 222.197   2
   3  -3 -14 624.493 105.705   4
  -3   3  14 378.593 85.8128   8
  -3   3  14 571.414 91.3328  14
  -3   3  14 557.418 210.750   3
   3  -3 -13 242.752 85.4150   6
  -3   3  13 83.8194 121.732   2
  -3   3  13 258.848 79.7097   8
  -3   3  13 271.717 92.4225  14
  -3   3  13-6.75294 114.779   3
  -3   3  12-39.9368 128.130   2
  -3   3  12 154.564 179.457   3
  -3   3  11 680.401 188.651  21
  -3   3  11 487.757 175.099   2
  -3   3  11 512.304 204.941   3
  -3   3  10 800.245 241.698   2
  -3   3  10 851.991 266.210   3
  -3   3  10 548.431 204.828  21
  -3   3   9 8169.58 676.817  21
  -3   3   9 8759.53 744.040   3
  -3   3   8 12443.4 833.785  21
   3   3  -8 14064.2 765.461  21
   3  -3  -8 14948.1 866.733  19
  -3   3   8 12573.1 872.248   3
   3   3  -7 1771.49 289.698  21
   3  -3  -7 1510.63 282.646  19
  -3   3   7 1291.13 279.908  21
  -3  -3   7 1404.24 281.426   1
  -3   3   7 1288.63 294.683   3
  -3   3   6 1067.26 270.295  21
   3   3  -6 805.273 208.587  21
   3  -3  -6 956.872 214.263  19
   3  -3  -6 1274.02 207.192  18
  -3   3   6 947.605 249.622   3
  -3  -3   6 851.806 183.128   1
  -3   3   5 732.731 237.925  21
   3   3  -5 433.881 148.663  21
   3  -3  -5 732.839 207.101  19
  -3  -3   5 633.515 186.000   1
   3  -3  -5 670.491 196.041  18
  -3   3   4 1828.27 329.882  21
   3  -3  -4 2543.14 363.151  19
   3  -3  -4 2226.51 315.942  18
  -3  -3   4 2321.37 353.394   1
  -3   3   3 844.503 266.419  21
   3  -3  -3 711.623 194.140  19
  -3  -3   3 1012.63 237.709   1
   3  -3  -3 530.671 161.730  18
  -3   3   2 248.820 161.543  21
  -3  -3   2 110.555 99.7137   1
   3  -3  -2 266.093 124.271  19
   3  -3  -2 337.014 155.069  18
   3   3  -2 264.218 124.547  22
  -3   3   1 732.329 218.863  21
   3  -3  -1 936.580 244.246  19
   3  -3  -1 780.826 203.952  18
  -3  -3   1 640.815 228.768   1
   3   3  -1 581.746 154.486  22
  -3   3   0 1572.75 305.466  21
  -3   3   0 1636.69 286.291  20
   3  -3   0 1736.23 312.223  19
   3  -3   0 1220.86 268.478  18
  -3  -3   0 1736.18 314.039   1
   3   3   0 1391.83 216.484  22
  -3   3  -1 4510.48 511.443  21
  -3   3  -1 4116.13 446.323  20
   3  -3   1 4619.49 496.172  19
  -3  -3  -1 4595.60 531.928   1
   3  -3   1 3856.97 458.202  18
   3   3   1 4560.42 399.561  22
  -3   3  -2 16699.2 987.292  21
   3   3   2 18173.2 816.461  22
  -3   3  -2 17470.2 942.728  20
   3  -3   2 17546.0 979.762  19
  -3  -3  -2 18929.0 1073.39   1
   3  -3   2 16321.8 956.551  18
  -3   3  -3 215.916 157.721  21
  -3   3  -3 429.008 168.542  20
  -3  -3  -3 354.931 209.959   1
   3  -3   3 451.487 177.672  19
   3  -3   3 248.125 153.657  18
   3   3   3 213.215 144.750  22
  -3   3  -4 7999.67 652.107  20
   3  -3   4 8268.37 676.867  19
  -3  -3  -4 8712.48 742.309   1
   3  -3   4 8287.04 689.477  18
   3   3   4 7959.34 556.511  22
  -3   3  -4 7804.94 691.300  21
  -3   3  -5 4666.02 507.116  20
   3  -3   5 4323.87 507.885  19
  -3  -3  -5 4920.76 580.456   1
   3  -3   5 4882.56 549.381  18
   3   3   5 4716.08 439.191  22
  -3   3  -5 5074.72 554.078  21
  -3   3  -6 11306.6 828.249  21
  -3   3  -6 10544.5 771.197  20
  -3  -3  -6 9849.39 804.164   1
   3  -3   6 10406.2 798.513  19
   3  -3   6 10742.1 824.989  18
   3   3   6 9848.31 651.117  22
  -3   3  -7 10554.5 822.126  21
  -3   3  -7 10003.9 787.456  20
  -3  -3  -7 10705.5 851.572   1
   3  -3   7 10106.1 811.176  19
   3  -3   7 9287.07 782.179  18
   3   3   7 10007.9 671.761  22
  -3   3  -8 20662.1 1130.76  20
  -3  -3  -8 22439.1 1254.00   1
   3  -3   8 20558.6 1184.34  19
   3  -3   8 19201.3 1156.98  18
  -3   3  -8 21928.9 1182.70  21
   3   3   8 21067.8 1015.08  22
  -3   3  -9 644.984 205.753  20
   3  -3   9 174.029 144.212  18
  -3   3  -9 724.626 217.100  21
  -3  -3  -9 590.384 246.700   1
   3   3   9 436.538 157.106  22
  -3   3 -10 82.1911 146.049  21
  -3   3 -10-114.499 180.604  20
   3  -3  10 250.672 201.337  18
  -3  -3 -10 472.948 237.940   1
   3   3  10 370.095 174.033  22
  -3   3 -11 1765.62 374.137  21
  -3   3 -11 1165.24 288.733  20
   3  -3  11 1092.12 295.336  18
  -3  -3 -11 1753.38 383.357   1
  -3  -3 -11 1452.82 155.409  23
   3   3  11 1225.28 248.091  22
   3   3  12 1717.93 311.981  21
   3  -3  12 1610.31 166.065  10
  -3   3 -12 1290.68 307.975  20
  -3  -3 -12 1701.76 169.918  23
   3  -3  12 2083.87 415.570  18
  -3  -3 -12 1508.98 339.934   1
  -3   3 -12 1454.65 289.492  21
   3   3  12 1547.61 312.831  22
   3   3  13 10274.2 768.286  21
  -3  -3 -13 8477.34 842.716   1
   3  -3  13 9412.46 408.292  10
  -3   3 -13 9648.76 875.696  20
   3  -3  13 9962.74 376.751  11
   3  -3  13 8843.43 858.565  18
  -3  -3 -13 8426.69 404.274  23
   3   3  13 9186.90 736.460  22
   3   3  14 95033.4 2564.70  21
  -3  -3 -14 93263.1 3050.93   1
  -3   3 -14 92493.0 2947.58  20
   3  -3  14 90989.9 2988.77  18
   3  -3  14 93846.4 1752.96  15
   3   3  14 97984.7 2658.64  22
  -3  -3 -14 96796.2 1751.51  23
  -3  -3 -15 14768.8 546.641  23
   3  -3  15 13885.2 530.603  15
   3  -3  16 547.121 109.862  15
  -3  -3 -16 1068.89 151.819  23
   3  -3  17 1051.56 157.105  15
  -3  -3 -17 849.132 138.735  23
   3  -3  18 8937.96 406.984  15
   3  -3  18 8883.67 343.429   7
  -3  -3 -18 9242.52 420.709  23
   3  -3  19 8655.28 397.128  15
   3  -3  19 9187.20 350.764   7
  -3  -3 -19 8685.06 405.966  23
   3  -3  20 38754.9 911.800  15
   3  -3  20 38215.3 831.161   7
  -3  -3 -20 38798.9 938.147  23
  -3   3 -20 38831.2 940.148  23
   3  -3  21 3401.50 236.962  15
   3  -3  21 3357.92 203.189   7
  -3  -3 -21 3351.80 245.613  23
  -3   3 -21 3442.90 249.505  23
   3  -3  22 128.380 65.8025  15
   3   3  22 442.713 93.2506   8
   3  -3  22 279.851 67.5121   7
  -3   3 -22 287.239 89.5305  23
  -3  -3 -22 435.400 106.629  23
   3   3  23 2379.61 173.879  13
   3   3  23 2095.99 144.574   8
  -3  -3 -23 2149.04 184.622  23
   3  -3  23 2104.34 156.619   7
  -3   3 -23 2249.20 195.785  23
  -3  -3 -24 1697.44 158.150  23
   3   3  24 1610.48 119.708   8
   3  -3  24 1643.34 130.340   7
   3   3  24 1841.25 148.652  13
  -3   3 -24 1760.16 165.320  23
   3   3  25 479.143 69.4774   8
  -3  -3 -25 347.025 78.3510  23
   3  -3  25 500.177 76.5614   7
  -3   3 -25 477.691 92.0822  23
   3   3  25 469.978 88.5666  13
  -3   3 -26 248.168 70.2894  23
   3   3  26 408.466 55.8163   8
   3  -3  26 301.342 50.4781   7
  -3  -3 -26 421.516 84.3611  23
   3   3  26 394.327 72.8662  13
  -3  -3 -27 1676.16 124.806  23
   3   3  27 1669.20 123.102  13
  -3   3 -27 1519.13 134.662  23
  -3  -3 -28 2920.10 149.216  23
  -3   3 -28 2723.51 159.924  23
   3   3  28 3003.37 151.064  13
   3   3  29 1061.47 83.2965  13
  -3   3 -29 1031.90 90.9219  23
  -3   4  27 55.3568 43.3551   8
  -3   4  26 1105.36 99.9878   8
  -3   4  25 834.912 99.0735   8
  -3   4  24 588.888 89.0822   8
   3  -4 -23 464.838 76.1733   6
  -3   4  23 380.658 80.0348   8
   3  -4 -22 1625.22 138.280   6
  -3   4  22 1424.69 141.702   8
  -3   4  22 1461.69 118.401  14
   3  -4 -21 491.089 87.9519   6
  -3   4  21 449.806 96.5349   8
  -3   4  21 298.031 63.2910  14
   3  -4 -20 190.590 77.2195   6
  -3   4  20 89.5104 59.0347   8
  -3   4  20 152.936 63.2180  14
   3  -4 -19 9565.51 380.728   6
  -3   4  19 9010.58 365.691   8
  -3   4  19 8619.10 344.275  14
   3  -4 -18 4325.35 261.361   6
  -3   4  18 4090.25 246.630   8
  -3   4  18 3928.45 236.999  14
   3  -4 -17 4452.29 266.682   6
  -3   4  17 4328.34 252.178   8
  -3   4  17 4326.99 248.247  14
   3  -4 -16 542.467 102.314   6
  -3   4  16 523.057 88.1518   5
  -3   4  16 511.304 98.1655   8
  -3   4  16 529.163 98.7708  14
   3  -4 -15 178.215 88.7088   6
  -3   4  15 178.374 78.9152   5
  -3   4  15 75.6371 57.1811   8
  -3   4  15 111.813 74.9322  14
   3  -4 -14 5069.65 292.229   6
  -3   4  14 4918.75 270.681   5
  -3   4  14 5216.08 268.660   8
  -3   4  14 4704.71 263.574  14
   3  -4 -13 94.7885 70.9684   6
  -3   4  13 59.1453 67.3898   5
  -3   4  13 18.0145 63.7767   8
  -3   4  13 172.059 71.6382  14
   3  -4 -12 3576.92 256.382   6
  -3   4  12 4017.74 251.408   5
  -3   4  12 3908.76 236.148   8
  -3   4  12 4124.61 247.794  14
   3  -4 -11 2411.79 218.637   6
  -3   4  11 2643.16 187.928   8
  -3   4  11 2683.33 201.419  14
   3  -4 -10 16367.4 562.252   6
  -3   4  10 17385.7 500.208   8
  -3   4  10 18103.9 539.603  14
   3  -4  -9 3881.97 320.482   6
  -3   4   9 3214.35 505.029  21
  -3   4   9 3207.02 450.000   2
  -3   4   9 4101.57 240.150   8
  -3   4   9 4358.77 618.746   3
  -3   4   9 4975.85 305.544  14
   3  -4  -8 158072. 2619.53   6
  -3   4   8 155059. 3849.18  21
  -3   4   8 163526. 2556.88  14
  -3   4   7 14143.0 1029.26  21
   3   4  -7 13668.7 879.479  21
   3  -4  -7 15705.9 546.134   6
  -3   4   7 16449.6 519.966  14
   3   4  -6 6098.27 591.188  21
  -3   4   6 6939.86 718.595  21
   3  -4  -6 7231.39 365.166   6
  -3   4   6 7714.05 335.106  14
  -3   4   5 19135.8 1208.24  21
   3   4  -5 20434.7 1092.43  21
   3  -4  -5 21405.2 629.912   6
   3  -4  -5 19375.6 1027.98  18
  -3   4   5 20818.8 573.445  14
  -3   4   4 2309.81 424.878  21
   3   4  -4 2367.34 392.046  21
  -3   4   4 3503.74 250.599   5
   3  -4  -4 2138.40 359.776  18
  -3   4   4 2892.62 208.848  14
   3  -4  -4 2663.65 214.304   6
  -3   4   3 142.162 144.264  21
   3   4  -3 366.603 167.259  21
   3  -4  -3 291.171 116.086   6
  -3   4   3 522.312 133.501   5
   3  -4  -3 402.785 178.850  18
  -3   4   3 428.129 98.5190  14
  -3   4   2 12722.9 978.967  21
  -3   4   2 12908.0 930.813  20
   3   4  -2 14211.1 923.767  21
  -3   4   2 14880.6 486.214   5
   3  -4  -2 12780.5 879.955  18
  -3   4   2 14112.8 430.671  14
  -3   4   1 355.116 191.155  21
  -3   4   1 644.270 242.615  20
  -3   4   1 627.619 126.823   5
   3  -4  -1 431.246 181.433  18
  -3   4   1 535.751 93.8040  14
   3   4  -1 649.783 221.692  21
  -3   4   0 4348.28 572.720  21
   3  -4   0 4208.05 262.483  11
   3   4   0 4226.63 521.116  21
  -3   4   0 4252.32 525.953  20
  -3   4   0 4365.85 255.558   5
   3  -4   0 3527.02 459.829  18
  -3   4   0 4086.17 219.323  14
   3  -4   1 2409.19 211.722  11
  -3   4  -1 2196.49 367.544  21
   3   4   1 2391.93 382.432  21
  -3   4  -1 2388.02 411.782  20
  -3   4  -1 2753.99 206.084   5
   3  -4   1 2280.51 386.411  18
  -3   4  -2 30.1648 116.571  21
   3  -4   2 490.995 105.391  11
  -3   4  -2 389.431 176.591  20
   3  -4   2 601.997 278.452  18
  -3   4  -2 334.701 91.3955   5
   3   4   2 262.501 149.034  21
  -3   4  -3-31.3557 122.079  21
   3   4   3 5.56280 156.941  21
   3  -4   3-55.8990 76.2367  11
  -3   4  -3 113.139 118.435  20
  -3   4  -3-6.87368 70.7195   5
   3  -4   3-66.5842 139.187  18
  -3   4  -4 17044.0 1127.70  21
   3  -4   4 16669.6 557.228  11
   3   4   4 14258.3 1002.35  21
  -3   4  -4 16054.6 1044.53  20
   3  -4   4 16011.5 1068.29  18
  -3   4  -4 17593.4 530.895   5
   3  -4   5 1047.56 164.391  11
  -3   4  -5 601.379 226.820  21
   3   4   5 934.532 307.361  21
  -3   4  -5 999.661 356.058  20
  -3   4  -5 1358.84 160.842   5
   3  -4   5 762.912 247.915  18
   3  -4   6 1755.59 186.532  11
  -3   4  -6 1975.92 409.175  21
  -3   4  -6 1566.74 366.001  20
  -3   4  -6 1829.97 172.547   5
   3  -4   6 1955.73 414.265  18
   3   4   6 1356.85 323.044  21
   3  -4   7 2359.68 210.073  11
  -3   4  -7 2555.02 465.315  21
   3   4   7 2237.62 439.072  21
  -3   4  -7 2662.77 416.309  20
  -3   4  -7 2617.73 201.561   5
   3  -4   7 1898.44 370.216  18
   3   4   7 1922.22 335.878  22
   3  -4   8 2338.17 201.876  11
   3   4   8 2477.85 401.669  21
  -3   4  -8 1452.95 336.503  20
  -3   4  -8 2432.42 183.780   5
   3  -4   8 1785.67 375.951  18
  -3   4  -8 2222.68 398.346  21
   3   4   8 2720.22 374.393  22
   3  -4   9 3162.25 238.331  11
  -3  -4  -9 3132.60 237.534  23
   3  -4  10 8400.80 376.582  11
  -3  -4 -10 8068.32 375.030  23
   3  -4  11 53.3139 56.7438  11
  -3  -4 -11 176.087 97.9917  23
  -3  -4 -12 1610.99 171.675  23
   3  -4  12 1545.13 173.922  15
   3  -4  12 1381.66 150.963  11
   3  -4  13 1335.53 171.044  15
  -3  -4 -13 1266.06 167.296  23
   3  -4  13 1194.89 149.829  11
  -3  -4 -14 2887.29 231.744  23
   3  -4  14 2991.67 240.018  15
   3  -4  14 2806.53 223.009  11
   3  -4  15 4584.85 298.727  15
  -3  -4 -15 4607.22 290.519  23
   3  -4  15 3923.31 257.784  11
   3  -4  16 5232.32 313.033  15
  -3  -4 -16 4892.16 292.104  23
   3  -4  16 5179.72 286.515  11
   3  -4  17 144.878 62.2861  15
  -3  -4 -17 171.708 84.0284  23
   3  -4  17 108.450 67.6987  11
  -3  -4 -18 3095.17 226.501  23
   3  -4  18 3029.94 230.305  15
  -3  -4 -19 2097.36 181.101  23
   3  -4  19 1870.61 185.975  15
   3  -4  20 371.182 88.6938  15
  -3  -4 -20 301.693 74.9481  23
  -3   4 -20 451.280 83.4617  23
   3   4  20 465.750 82.4168  13
  -3  -4 -21-35.8621 52.5865  23
   3  -4  21 94.2372 59.7387  15
   3   4  21 143.974 52.3641   8
  -3   4 -21 44.8254 54.9120  23
   3   4  21 153.045 56.5660  13
   3   4  22 10.2490 40.6699   8
  -3   4 -22 146.858 65.5371  23
   3   4  22 17.6788 45.7557  13
   3   4  23 101.315 47.0522   8
  -3   4 -23 59.8903 44.6150  23
   3   4  23 71.4381 45.8235  13
   3   4  24 239.871 51.3434   8
  -3   4 -24 222.777 55.2766  23
   3   4  24 292.569 58.3267  13
   3   4  25 162.209 39.1056   8
   3   4  25 169.838 44.4194  13
  -3   4 -25 200.046 53.7109  23
   3   4  26 1278.85 74.3235   8
   3   4  26 1346.94 86.3593  13
  -3   4 -26 1541.06 107.234  23
  -3   5  23 491.120 58.8186   8
  -3   5  22 2424.25 134.871   8
  -3   5  21 192.012 54.6281   8
  -3   5  21 60.9726 35.2426  14
  -3   5  20 4250.69 195.450   8
  -3   5  20 4229.36 192.857  14
   3  -5 -19 21133.3 503.317  11
  -3   5  19 21859.0 518.850   8
  -3   5  19 21212.2 517.848  14
   3  -5 -18 3318.09 192.011  11
  -3   5  18 3667.67 200.577   8
  -3   5  18 3682.55 207.808  14
   3  -5 -17 9605.44 347.475  11
  -3   5  17 8661.21 313.855   5
  -3   5  17 9451.82 326.663   8
  -3   5  17 9777.62 345.633  14
  -3   5  16 2876.34 184.320   5
  -3   5  16 3314.73 190.681   8
  -3   5  16 3201.13 203.825  14
  -3   5  15 600.556 93.6807   8
  -3   5  15 649.152 110.480  14
  -3   5  15 488.295 96.9739   5
  -3   5  14 99.1705 61.7090   5
  -3   5  14-2.41606 57.1674   8
  -3   5  14 42.4259 58.6645  14
  -3   5  13 461.345 96.7883   5
  -3   5  13 349.151 72.1716   8
  -3   5  13 327.933 81.6474  14
  -3   5  12 1551.43 159.574   5
  -3   5  12 1411.23 123.659   8
  -3   5  12 1417.69 146.552  14
  -3   5  11 433.056 78.9138   5
  -3   5  11 362.380 97.9775  14
  -3   5  10 1963.48 182.846   5
  -3   5  10 1907.32 176.653  14
   3  -5  -9 2044.17 197.827  11
  -3   5   9 2275.10 203.533   5
  -3   5   9 2254.85 196.366  14
   3  -5  -8 6112.28 335.254  11
  -3   5   8 6662.99 351.284   5
  -3   5   8 6608.44 318.390  14
   3  -5  -7 4064.97 279.704  11
  -3   5   7 4145.33 271.545   5
  -3   5   7 4346.09 257.269  14
   3  -5  -6 453.565 124.270  11
  -3   5   6 443.422 119.623   5
  -3   5   6 403.185 98.2133  14
   3  -5  -5 3270.49 252.162  11
  -3   5   5 3599.53 251.132   5
  -3   5   5 3160.05 216.170  14
   3  -5  -4 3222.50 249.804  11
  -3   5   4 3467.17 247.962   5
  -3   5   4 3260.06 215.908  14
   3  -5  -3 129.530 76.6546  11
  -3   5   3 257.845 99.1076   5
  -3   5   3 184.921 63.3408  14
   3  -5  -2 559.854 122.522  11
  -3   5   2 554.760 115.897   5
  -3   5   2 682.514 104.108  14
   3  -5  -1 1760.96 190.053  11
  -3   5   1 1728.83 175.162   5
  -3   5   1 1846.49 155.276  14
   3  -5   0 535.446 122.358  11
  -3   5   0 400.080 105.039   5
  -3   5   0 347.995 79.0673  14
   3  -5   1 83.0483 72.7891  11
  -3   5  -1 48.9411 78.4058   5
   3  -5   2 184.381 78.8716  11
  -3   5  -2 215.502 76.6043   5
   3  -5   3 1125.37 156.921  11
  -3   5  -3 1071.29 139.157   5
   3  -5   4 561.028 138.814  11
  -3   5  -4 515.388 112.250   5
   3  -5   5 756.224 137.207  11
  -3   5  -5 720.449 119.432   5
   3  -5   6 233.349 99.1997  11
  -3   5  -6 208.452 82.4524   5
   3  -5   6 315.441 87.8448  15
   3  -5   7 123.872 86.3491  11
  -3   5  -7 137.153 77.2832   5
   3  -5   7 187.224 80.7154  15
   3  -5   8 1197.46 149.446  11
   3  -5   8 1338.96 158.708  15
   3  -5   9 22.6185 62.0838  11
   3  -5   9 77.6119 72.8618  15
   3  -5  10 174.192 58.7936  11
   3  -5  10 123.761 73.2381  15
   3  -5  11 463.842 103.381  15
   3  -5  11 462.404 107.559  11
   3  -5  12 309.204 84.4014  11
   3  -5  12 253.623 82.8881  15
   3  -5  13 221.667 84.4608  15
   3  -5  13 146.027 76.3300  11
   3  -5  14 459.487 95.1972  11
   3  -5  14 426.982 101.357  15
   3  -5  15 437.185 95.0636  11
   3  -5  15 493.706 94.6780  15
   3  -5  16 12598.4 435.303  15
   3   5  17 5791.73 237.713   8
   3  -5  17 5586.84 271.181  15
   3   5  18 18193.2 450.618   8
   3  -5  18 18384.9 507.499  15
   3   5  19 975.871 93.9301   8
  -3   5 -19 1041.53 109.775  23
   3   5  20 75.2585 35.7042   8
  -3   5 -20 204.873 53.9597  23
   3   5  21 163.723 45.1031   8
  -3   5 -21 174.313 43.5539  23
   3   5  22 75.9684 33.3277   8
  -3   5 -22 41.9366 31.8665  23
  -3   6  17 66.7264 35.0308  14
  -3   6  16 1286.72 85.1979   5
  -3   6  16 1333.98 96.3820  14
  -3   6  15 2035.69 118.882   5
  -3   6  15 2267.53 133.297  14
   3  -6 -14 209.682 46.3851  11
  -3   6  14 160.338 54.6871   5
  -3   6  14 173.293 53.2140  14
   3  -6 -13 266.217 51.8483  11
  -3   6  13 367.768 72.7103   5
  -3   6  13 367.753 68.7431  14
   3  -6 -12 3327.14 173.060  11
  -3   6  12 3194.68 178.606   5
  -3   6  12 3363.24 175.931  14
   3  -6 -11 176.772 59.7044  11
  -3   6  11 207.573 68.3859   5
  -3   6  11 46.5100 47.6424  14
   3  -6 -10 219.176 66.1319  11
  -3   6  10 167.678 65.3677   5
  -3   6  10 226.681 66.9119  14
   3  -6  -9 1016.40 115.652  11
  -3   6   9 769.951 104.632   5
  -3   6   9 1149.50 114.017  14
   3  -6  -8 423.211 83.2148  11
  -3   6   8 479.497 101.427   5
  -3   6   8 424.001 84.5660  14
   3  -6  -7 3707.56 221.852  11
  -3   6   7 4048.32 233.877   5
  -3   6   7 4067.33 208.211  14
   3  -6  -6 2292.04 177.115  11
  -3   6   6 1958.08 169.202   5
  -3   6   6 2504.73 167.751  14
   3  -6  -5 593.640 112.043  11
  -3   6   5 622.757 114.646   5
  -3   6   5 516.035 83.8855  14
   3  -6  -4 5344.15 269.552  11
  -3   6   4 5177.70 260.784   5
  -3   6   4 5056.57 226.653  14
   3  -6  -3 176.594 89.6812  11
  -3   6   3 324.471 100.352   5
  -3   6   3 261.395 60.5749  14
   3  -6  -2 1491.81 146.372  11
  -3   6   2 1406.46 139.424   5
  -3   6   2 1389.92 110.782  14
   3  -6  -1 43.4925 60.4667  11
  -3   6   1 235.500 89.4546   5
  -3   6   1 114.341 50.7623  14
   3  -6   0 3016.46 206.453  11
  -3   6   0 2976.33 196.051   5
   3  -6   1 715.739 126.306  11
  -3   6  -1 558.086 102.317   5
   3  -6   2 6755.76 316.383  11
  -3   6  -2 6446.65 285.074   5
   3  -6   3 35096.1 800.265  11
  -3   6  -3 32952.0 732.869   5
   3  -6   4 21636.3 597.928  11
   3  -6   5 29285.7 697.666  11
   3  -6   5 26540.0 600.656  15
   3  -6   6 1695.52 168.059  11
   3  -6   6 1372.67 123.287  15
   3  -6   7 1995.58 167.557  11
   3   6   7 1936.23 111.071   8
   3  -6   7 1710.57 131.673  15
   3  -6   8 6557.25 288.663  11
   3   6   8 6574.81 209.766   8
   3   6   9 210.482 42.8778   8
   3  -6   9 241.375 62.3552  15
   3  -6   9 210.492 75.2910  11
   3  -6  10 343.503 75.2261  11
   3   6  10 503.694 61.0430   8
   3  -6  10 393.545 66.7195  15
   3  -6  11 649.739 89.5234  11
   3   6  11 756.606 68.5838   8
   3  -6  11 559.094 78.1168  15
   3   6  12 60.4579 33.2189   8
   3  -6  12 200.912 64.4181  11
   3   6  13 73.4786 33.3363   8
   3   6  14 92.1541 33.4600   8
  -3   6 -14 117.486 33.9687  23
   3   6  15 291.913 41.5785   8
  -3   6 -15 295.782 45.8175  23
  -4   0  32 87.7290 36.8146  13
  -4   0  31-30.4829 42.4928  13
   4   0 -30 149.001 43.7517   4
  -4   0  30 292.960 78.5877  13
   4   0 -29 150.560 50.7159   4
  -4   0  29 464.261 100.015  13
  -4   0  28 21896.6 611.936  13
  -4   0  27 193.881 83.9011  13
  -4   0  26 10968.0 443.068  13
  -4   0  25 112.670 71.4745  13
  -4   0  24 864.706 120.719   9
  -4   0  24 707.435 120.435  13
  -4   0  23 253.074 77.2339   9
  -4   0  23 164.913 92.1393  13
  -4   0  22 18881.1 563.105   9
  -4   0  22 17602.3 597.927  13
  -4   0  21 179.639 90.2747   9
  -4   0  21 259.514 103.165  13
  -4   0  20 6165.39 309.481   9
  -4   0  20 5827.28 325.753  13
   4   0 -19-13.3337 193.054  19
  -4   0  19 145.520 68.3782   9
  -4   0  19 78.6440 130.608   2
  -4   0  19 32.6667 77.9052  13
   4   0 -18 1086.31 349.269  19
  -4   0  18 1259.10 140.862   9
  -4   0  18 1381.11 301.843   2
  -4   0  18 1156.99 143.003  13
   4   0 -17 147.027 191.542  19
  -4   0  17 113.755 113.584   2
  -4   0  17 25.3834 67.6786  13
  -4   0  16 18219.9 1047.23   2
   4   0 -16 18070.0 1184.11  19
   4   0 -15 134.384 172.082  19
  -4   0  15 78.5634 102.343   2
  -4   0  14 6546.79 588.261   2
   4   0 -14 5849.10 649.376  19
   4   0 -13 393.809 213.463  19
  -4   0  13 205.400 124.427   2
  -4   0  12 19676.2 1002.88   2
   4   0 -12 19696.3 1138.49  19
   4   0 -11 726.750 275.724  19
  -4   0  11 741.266 215.403   2
  -4   0  10 54710.2 1624.45   2
   4   0 -10 51113.1 1829.58  19
   4   0  -9 280.144 192.591  19
  -4   0   9 464.945 160.765   2
   4   0  -8 1331.60 273.901  19
  -4   0   8 1322.12 238.765   2
   4   0  -7 173.323 142.496  19
  -4   0   7-62.2429 96.8352   2
   4   0  -6 4091.85 449.219  19
  -4   0   6 4228.30 462.049   1
  -4   0   6 3953.43 377.353   2
   4   0  -5 242.996 136.877  19
  -4   0   5 113.676 101.790   2
  -4   0   5 128.939 154.419   1
  -4   0   4 90.5291 98.6950   2
   4   0  -4-66.1035 106.772  19
  -4   0   4 60.5949 142.239   1
  -4   0   3 47.6003 131.432   1
   4   0  -3 101.074 105.498  19
   4   0  -2 395.410 149.196  19
  -4   0   2 317.147 167.653   1
  -4   0   1-77.9010 108.079   1
   4   0  -1 8.41599 102.314  19
  -4   0   0 1267.11 264.002   1
   4   0   0 925.938 226.481  19
   4   0   0 690.431 128.754  18
   4   0   1 57.7481 89.0665  19
  -4   0  -1-48.4586 88.5545   1
   4   0   2 3617.57 396.308  19
  -4   0  -2 3460.03 410.059   1
   4   0   3 265.609 178.135  19
  -4   0  -3 183.140 138.467   1
   4   0   4 20476.9 990.026  19
  -4   0  -4 21442.2 1050.57   1
   4   0   5 528.870 195.912  19
  -4   0  -5 555.696 211.643   1
   4   0   5 491.540 197.271  22
   4   0   6 8029.00 620.901  19
  -4   0  -6 8220.09 664.035   1
   4   0   6 8417.56 582.388  22
  -4   0  -7 404.653 219.676   1
   4   0   7 140.988 102.597  19
   4   0   7 348.061 131.531  22
  -4   0  -8 4751.18 518.083   1
   4   0   8 4923.44 499.249  19
   4   0   8 4760.90 452.840  22
  -4   0  -9 2316.96 470.615   1
   4   0   9 1944.93 387.673  19
   4   0   9 1980.38 329.653  22
  -4   0 -10 219955. 4492.19   1
   4   0  10 216726. 4358.56  19
   4   0  10 217190. 4087.09  22
  -4   0 -11 51.1538 106.072  20
   4   0  11 119.915 151.726  19
  -4   0 -11 403.058 196.892   1
   4   0  11 336.886 187.589  22
  -4   0 -12 10837.4 780.441  20
  -4   0 -12 10117.7 803.071   1
   4   0  12 11210.6 707.868  22
  -4   0 -13 146.102 154.883  20
  -4   0 -13 110.711 129.070   1
   4   0  13 101.017 92.1723  22
  -4   0 -14 1374.32 300.227  20
  -4   0 -14 924.347 276.862   1
   4   0  14 725.122 209.264  22
  -4   0 -15 442.979 241.327  20
  -4   0 -15 42.7597 65.7925  23
  -4   0 -15 157.043 197.382   1
   4   0  15 73.0352 67.9515   7
   4   0  15-27.1430 123.013  22
  -4   0 -16 8400.70 756.870  20
  -4   0 -16 8143.47 792.246   1
   4   0  16 8985.44 368.741   7
  -4   0 -16 8693.94 386.676  23
  -4   0 -17 55.2961 127.917  20
  -4   0 -17-167.717 149.388   1
  -4   0 -17 89.1124 68.1908  23
   4   0  17 54.1659 63.7344   7
  -4   0 -18 222.152 91.4953  23
   4   0  18 226.388 85.8015   7
  -4   0 -19 644.733 147.022  23
   4   0  19 411.740 108.930   7
  -4   0 -20 662.692 147.615  23
   4   0  20 597.063 118.139   7
  -4   0 -21 115.426 93.5245  23
   4   0  21 97.4125 75.7584   7
   4   0  22 32353.6 794.640   7
  -4   0 -22 32639.8 861.441  23
  -4   0 -23 143.704 93.1029  23
   4   0  23 343.560 106.623   7
   4   0  24 23167.6 635.762   7
  -4   0 -24 23469.1 701.202  23
   4   0  25 68.2653 59.5690   7
  -4   0 -25 8.89258 74.4851  23
   4   0  26 1717.30 155.393   7
  -4   0 -26 1891.80 180.877  23
  -4   0 -27-19.5590 53.9009  23
   4   0  27-8.53121 47.0257   7
   4   0  28 145.432 54.5018   7
  -4   0 -28 95.7440 55.1953  23
   4   0  29 13.4101 41.7164   7
  -4   0 -29 23.7855 44.1411  23
   4   0  30-36.1720 32.0475   7
  -4   0 -30 41.8677 38.4402  23
   4  -1 -32 859.029 73.6917   6
  -4   1  32 865.402 86.8633  13
   4  -1 -31 318.948 60.7377   6
   4  -1 -31 285.585 47.3314   4
  -4  -1  31 275.216 55.0334  13
  -4   1  31 329.221 66.2158  13
   4  -1 -30 882.210 97.0924   6
   4  -1 -30 743.635 78.3036   4
  -4   1  30 872.595 106.831  13
  -4  -1  30 742.014 91.0645  13
  -4   1  29 4372.58 197.538   9
   4  -1 -29 4314.36 203.698   4
  -4  -1  29 4345.60 223.627  13
  -4   1  29 4873.43 249.936  13
  -4   1  28 16357.8 451.412   9
   4  -1 -28 16175.1 451.030   4
  -4  -1  28 16293.4 485.619  13
  -4   1  28 16385.9 507.700  13
  -4   1  27 650.289 105.842   9
   4  -1 -27 419.014 84.8547   4
  -4  -1  27 482.194 98.6999  13
  -4   1  27 666.718 119.536  13
  -4   1  26 4815.32 257.253   9
   4  -1 -26 4685.96 243.936   4
  -4  -1  26 4609.80 271.020  13
  -4   1  26 4676.53 275.209  13
  -4   1  25 17898.5 558.759   9
   4  -1 -25 17570.6 530.112   4
  -4  -1  25 17559.9 568.141  13
  -4   1  25 18669.1 585.532  13
   4  -1 -24 4619.45 252.088   4
  -4  -1  24 4367.82 273.985  13
  -4   1  24 4978.92 293.451  13
  -4  -1  23 44.8823 87.3558  13
   4  -1 -23 300.041 90.5540   4
  -4   1  23 119.680 83.1946  13
   4  -1 -22 2823.30 198.867   4
  -4  -1  22 2477.72 211.546  13
  -4   1  22 2494.97 210.456  13
  -4   1  21 1705.90 166.562   8
  -4  -1  21 1983.59 191.703  13
  -4   1  21 1856.17 196.957  13
  -4   1  20 1075.72 130.316   8
  -4  -1  20 1040.88 141.708  13
  -4   1  20 1065.94 147.584  13
   4  -1 -19-108.991 270.687  19
   4   1 -19 645.275 313.521  19
  -4   1  19-89.3557 119.510   2
  -4   1  19-74.4708 66.1699   8
  -4  -1  19 454.557 254.397   2
  -4  -1  19-9.95441 58.7076  13
  -4   1  19-96.0476 84.4064  13
   4   1 -18 184.803 162.090  19
  -4   1  18 545.944 230.862   2
  -4   1  18 443.447 87.3926   8
  -4  -1  18 319.994 189.098   2
  -4  -1  18 386.209 102.277  13
  -4   1  18 297.236 81.3479  13
   4  -1 -18 599.755 227.416  19
   4  -1 -17 261.739 144.535  19
   4   1 -17 551.991 257.656  19
  -4   1  17 372.241 203.441   2
  -4   1  17 253.855 56.9937   8
  -4  -1  17 461.188 200.025   2
  -4  -1  17 253.547 86.2057  13
  -4   1  17 392.006 85.9494  13
   4  -1 -16 283.188 164.004  19
   4   1 -16 593.444 224.378  19
  -4   1  16 665.562 249.118   2
  -4  -1  16 495.849 194.918   2
   4  -1 -15 169.116 168.886  19
   4   1 -15 151.007 148.137  19
  -4   1  15 225.944 128.988   2
  -4  -1  15 404.716 195.231   2
   4  -1 -14 515.512 245.458  19
   4   1 -14 936.583 245.949  19
  -4   1  14 1327.21 293.957   2
  -4  -1  14 1119.79 253.982   2
   4  -1 -13 10361.9 869.907  19
   4   1 -13 8795.35 761.997  19
  -4  -1  13 10283.4 698.551   2
  -4   1  13 10193.7 748.801   2
  -4  -1  12 27087.2 1121.03   2
   4  -1 -12 23942.0 1294.74  19
   4   1 -12 23401.2 1227.15  19
  -4   1  12 26019.8 1193.29   2
  -4  -1  11 6692.00 532.349   2
   4  -1 -11 5596.71 608.456  19
   4   1 -11 5703.46 588.665  19
  -4   1  11 5489.47 527.375   2
  -4   1  10 826.648 212.711  21
   4  -1 -10 919.645 257.884  19
   4   1 -10 823.270 230.543  19
  -4   1  10 856.454 202.657   2
  -4  -1  10 1080.86 219.819   2
   4  -1  -9 325.475 184.017  19
   4   1  -9 710.920 217.189  19
  -4   1   9 371.206 148.750   2
  -4   1   9 236.846 141.914  21
  -4  -1   9 447.388 157.747   2
  -4  -1   8 6569.37 481.757   2
  -4  -1   8 6281.84 604.753   1
   4  -1  -8 5991.81 598.613  19
   4   1  -8 5986.00 554.651  19
  -4   1   8 6668.49 531.893   2
  -4   1   8 6237.15 519.984  21
   4  -1  -7 322.459 190.067  19
   4   1  -7 371.076 196.645  19
  -4  -1   7 271.093 124.874   2
  -4   1   7 634.289 221.629   2
  -4  -1   7 465.828 222.335   1
  -4   1   7 279.051 181.361  21
  -4  -1   6 47197.6 1323.42   2
   4  -1  -6 45579.2 1667.80  19
   4   1  -6 46433.7 1575.89  19
  -4  -1   6 45928.8 1672.95   1
  -4   1   6 47855.8 1580.29  21
  -4  -1   5 49811.6 1344.01   2
   4  -1  -5 52330.3 1792.48  19
   4   1  -5 50073.2 1634.13  19
  -4  -1   5 50341.2 1757.83   1
  -4   1   5 52320.9 1692.78  21
  -4  -1   4 120387. 2306.81   2
   4  -1  -4 114318. 2887.99  19
   4   1  -4 117560. 2708.47  19
  -4   1   4 116439. 2805.18  21
  -4  -1   4 120212. 2933.65   1
  -4  -1   3 122737. 2348.11   2
   4  -1  -3 130557. 3076.29  19
   4   1  -3 127115. 2822.09  19
  -4  -1   3 125481. 3044.04   1
  -4   1   3 126113. 2981.50  21
  -4   1   3 128401. 2761.10   1
  -4  -1   2 294049. 4546.86   2
   4  -1  -2 292614. 5411.93  19
   4   1  -2 300755. 5161.06  19
  -4  -1   2 293383. 5451.74   1
  -4   1   2 290904. 5051.19   1
  -4   1   2 285424. 5386.20  21
   4  -1  -1 97143.5 2590.52  19
   4   1  -1 103398. 2403.24  19
  -4  -1   1 101817. 2667.30   1
  -4   1   1 99114.3 2325.27   1
  -4   1   1 98811.3 2594.26  21
   4  -1   0 94991.3 2484.49  19
   4   1   0 99112.1 2294.92  19
   4  -1   0 91710.1 2030.35  18
  -4  -1   0 95924.6 2582.43   1
  -4   1   0 96378.3 2242.94   1
  -4   1   0 95921.0 2521.43  21
  -4   1  -1 12210.1 811.588  21
   4  -1   1 11431.7 787.881  19
   4   1   1 12295.5 695.707  19
   4  -1   1 10019.6 587.357  18
  -4  -1  -1 12637.0 848.075   1
  -4   1  -1 11938.0 682.947   1
  -4   1  -2 441.689 188.200  21
   4  -1   2 201.917 153.402  19
   4   1   2-13.8288 81.6770  19
   4  -1   2 6.65496 89.0225  18
  -4   1  -2 499.199 167.948   1
  -4  -1  -2 194.321 172.965   1
   4   1   2 85.8800 93.9801  22
   4   1   3 3456.35 377.459  19
   4  -1   3 3547.00 449.649  19
  -4  -1  -3 3694.05 475.562   1
   4  -1   3 3062.45 356.888  18
   4   1   3 3044.24 371.586  22
  -4   1  -3 3691.79 380.586   1
  -4   1  -3 3327.37 434.872  21
   4   1   4 11891.7 668.919  19
   4  -1   4 11046.2 776.556  19
  -4  -1  -4 11477.5 818.814   1
   4   1   4 11480.8 703.177  22
   4  -1   4 9612.33 650.092  18
  -4   1  -4 11228.7 660.101   1
  -4   1  -4 11317.5 794.626  21
  -4  -1  -5 2125.01 351.303   1
   4   1   5 1899.20 267.222  19
   4  -1   5 1909.15 324.546  19
   4  -1   5 1648.18 268.192  18
  -4   1  -5 2319.98 309.778   1
   4   1   5 2053.58 300.164  22
  -4   1  -5 2268.27 374.403  21
  -4  -1  -6 2174.39 374.924   1
   4   1   6 2447.62 317.837  19
   4  -1   6 2392.19 363.268  19
   4  -1   6 2027.93 315.466  18
  -4   1  -6 2532.50 313.951   1
   4   1   6 2497.58 330.968  22
   4  -1   6 2236.59 295.400  22
  -4   1  -6 2596.72 405.414  21
  -4  -1  -7 2603.51 425.233   1
   4   1   7 2435.84 317.468  19
   4  -1   7 2396.41 387.731  19
   4  -1   7 1919.56 343.076  18
  -4   1  -7 2709.55 351.649   1
   4   1   7 2487.39 361.950  22
   4  -1   7 2512.27 324.274  22
  -4   1  -7 2866.59 424.940  21
  -4   1  -8 440.636 159.156  20
   4   1   8 455.734 130.853  19
   4  -1   8 456.740 172.915  19
   4  -1   8 432.493 211.844  18
  -4   1  -8 430.454 180.830   1
   4   1   8 721.285 232.220  22
   4  -1   8 287.473 155.664  22
  -4  -1  -8 552.640 238.713   1
  -4   1  -8 377.333 170.327  21
  -4   1  -9 2834.20 383.538  20
  -4  -1  -9 2940.76 453.825   1
   4  -1   9 2809.13 432.543  19
   4  -1   9 2196.33 383.346  18
   4  -1   9 2780.63 321.898  22
   4   1   9 2528.28 346.499  22
  -4   1 -10 28897.2 1214.30  20
  -4  -1 -10 29783.6 1456.00   1
   4  -1  10 31098.9 1424.82  19
   4  -1  10 27667.5 1358.51  18
   4   1  10 31506.8 1256.59  22
   4  -1  10 28362.7 1070.94  22
  -4   1 -11 4716.43 502.884  20
  -4  -1 -11 4803.41 596.327   1
   4  -1  11 5476.08 619.287  19
   4  -1  11 4483.64 552.758  18
   4   1  11 4883.51 501.104  22
  -4   1 -12 831.074 226.117  20
   4  -1  12 904.512 273.452  18
   4   1  12 1098.90 250.298  22
  -4  -1 -12 804.554 249.855   1
  -4   1 -13 1849.57 374.055  20
   4  -1  13 1822.59 385.658  18
  -4  -1 -13 1483.61 341.859   1
   4   1  13 1907.03 323.433  22
  -4   1 -14 8133.31 715.622  20
  -4  -1 -14 9575.13 853.986   1
   4  -1  14 9939.83 381.952  10
   4  -1  14 8577.60 796.179  18
   4  -1  14 9345.84 358.905   7
   4   1  14 9218.02 698.475  22
   4   1  15 209.974 75.9700   7
  -4   1 -15 50.3125 113.562  20
   4  -1  15 132.507 64.8371  10
   4  -1  15-80.5919 129.528  18
  -4  -1 -15 242.563 236.463   1
  -4  -1 -15 82.7396 81.4509  23
  -4   1 -15 179.003 66.0972  23
   4  -1  15 114.317 65.3560   7
   4   1  15 308.994 185.380  22
  -4  -1 -16 3390.64 552.509   1
   4  -1  16 3077.25 215.404  10
  -4   1 -16 2858.38 458.920  20
   4  -1  16 2905.66 496.703  18
   4   1  16 2736.83 188.683   7
   4  -1  16 2843.65 197.692   7
  -4  -1 -16 2826.51 231.198  23
  -4   1 -16 2819.38 214.993  23
   4   1  16 2627.76 414.683  22
  -4   1 -17 347.243 244.453  20
   4  -1  17-86.0794 120.095  18
  -4  -1 -17 271.015 251.735   1
  -4  -1 -17 30.1371 85.1124  23
  -4   1 -17 148.310 86.5552  23
   4   1  17 82.4834 65.5073   7
   4  -1  17 250.285 80.2576   7
   4   1  17-267.872 142.032  22
  -4  -1 -18 245.746 84.5956  23
  -4   1 -18 183.577 78.6223  23
   4   1  18 209.103 72.8054   7
   4  -1  18 181.977 83.6762   7
  -4  -1 -19 366.880 108.716  23
  -4   1 -19 675.637 122.822  23
   4   1  19 418.281 85.5729   7
   4  -1  19 469.688 84.6243   7
  -4  -1 -20 336.309 108.473  23
  -4   1 -20 489.397 118.200  23
   4   1  20 396.480 94.1850   7
   4  -1  20 463.628 99.2757   7
  -4  -1 -21 122.078 82.7122  23
  -4   1 -21 142.769 90.9205  23
   4   1  21 136.062 77.1013   7
   4  -1  21 108.153 72.3336   7
   4   1  22 2147.69 178.818   7
   4  -1  22 1822.91 177.036   7
  -4  -1 -22 2237.29 211.197  23
  -4   1 -22 1961.71 192.795  23
   4   1  23 1240.78 141.196   7
   4  -1  23 1275.00 151.101   7
  -4  -1 -23 1354.64 163.368  23
  -4   1 -23 1384.77 166.675  23
   4   1  24 1287.04 132.858  13
   4   1  24 1257.44 136.485   7
  -4  -1 -24 1368.50 161.034  23
  -4   1 -24 899.357 138.368  23
   4  -1  24 1025.80 132.027   7
  -4  -1 -25-93.1230 75.4206  23
  -4   1 -25 80.4925 77.5694  23
   4   1  25 26.5602 44.4500   7
   4  -1  25 44.5790 50.1505   7
   4   1  25 62.4952 45.9997  13
  -4  -1 -26-22.9472 59.4575  23
   4   1  26-30.6001 45.8341   7
  -4   1 -26 105.794 70.8303  23
   4  -1  26-7.99251 51.7324   7
   4   1  26 14.7284 37.4006  13
   4   1  27 221.957 62.7379   7
  -4  -1 -27 165.178 71.7876  23
  -4   1 -27 141.950 67.5470  23
   4  -1  27 59.7461 44.0140   7
   4   1  27 145.884 48.2739  13
   4   1  28 37.1961 39.5089   7
  -4  -1 -28 51.0246 47.3793  23
  -4   1 -28-12.4778 52.3964  23
   4  -1  28 44.8690 42.1587   7
   4   1  28 103.834 43.7046  13
  -4  -1 -29 1131.78 105.315  23
   4   1  29 1061.37 91.7256   7
   4  -1  29 1001.19 102.525   7
   4   1  29 1101.05 76.1601  13
  -4   1 -29 1252.67 113.276  23
   4   1  30 61.3673 31.0122   7
   4  -1  30-36.8006 35.5003   7
  -4  -1 -30 111.588 43.7513  23
  -4   1 -30 40.0399 32.9493  23
  -4   2  31 373.259 59.6412  13
   4  -2 -30 702.056 76.5566   6
  -4   2  30 632.345 68.9902   9
  -4   2  30 650.341 81.2711  13
   4  -2 -29 74.6414 44.7861   6
  -4   2  29 127.477 49.6355   9
   4  -2 -29 94.0203 43.3504   4
  -4   2  29 156.389 59.6104  13
   4  -2 -28-14.0919 45.5625   6
  -4   2  28-49.1437 49.0737   9
   4  -2 -28 33.8471 41.5805   4
  -4   2  28 16.4088 50.2035  13
   4  -2 -27 116.106 58.6998   6
  -4   2  27 35.3459 54.5028   9
   4  -2 -27-48.0612 48.1649   4
  -4   2  27 16.7222 56.2825  13
   4  -2 -26 1144.34 129.479   6
   4  -2 -26 1019.47 115.831   4
  -4   2  26 1020.42 126.907  13
   4  -2 -25 493.924 102.461   6
   4  -2 -25 554.095 90.3289   4
  -4  -2  25 573.815 94.4740  13
  -4   2  25 469.404 102.574  13
   4  -2 -24 3151.20 222.389   6
  -4   2  24 2445.10 205.100   8
   4  -2 -24 2960.09 200.721   4
  -4  -2  24 3145.37 208.889  13
  -4   2  24 2779.73 206.993  13
   4  -2 -23 3025.89 227.430   6
  -4   2  23 2759.03 210.422   8
   4  -2 -23 2641.92 194.475   4
  -4  -2  23 2813.15 204.513  13
  -4   2  23 2835.41 215.936  13
  -4  -2  22 504.251 115.262  13
   4  -2 -22 225.357 87.0186   4
  -4   2  22 300.388 92.1394   8
  -4   2  22 375.862 94.3186  13
  -4   2  21 5312.15 295.530   8
   4  -2 -21 5081.44 276.524   4
  -4  -2  21 4781.99 286.246  13
  -4   2  21 5205.22 294.060  13
  -4  -2  20 433.755 108.931  13
   4  -2 -20 350.698 80.0542   4
  -4   2  20 213.452 80.8865   8
  -4   2  20 325.586 91.3755  13
   4  -2 -19 873.458 123.071   4
  -4   2  19 1081.87 138.969   8
  -4   2  19 936.778 135.498  13
  -4  -2  19 639.121 136.248  13
  -4   2  18 2439.14 193.786   8
   4  -2 -18 2250.14 187.366   4
  -4  -2  18 2707.32 222.134  13
  -4   2  18 2400.01 206.221  13
  -4   2  17 4762.56 561.340   2
  -4  -2  17 5104.90 575.088   2
   4  -2 -17 4260.25 589.493  19
   4   2 -17 3319.33 527.177  19
  -4   2  17 4339.16 264.086   8
  -4   2  17 4816.93 248.487  14
  -4  -2  17 4858.33 282.331  13
  -4   2  17 4398.22 267.340  13
  -4   2  16 4944.45 549.370   2
  -4  -2  16 3640.06 470.204   2
   4  -2 -16 4093.04 569.308  19
   4   2 -16 3137.02 478.255  19
  -4   2  16 4086.89 249.050   8
  -4   2  16 3893.68 222.645  14
  -4  -2  16 3781.52 247.124  13
  -4   2  16 3446.70 228.931  13
  -4   2  15 4525.40 516.401   2
  -4  -2  15 4347.64 488.471   2
   4  -2 -15 4415.27 580.679  19
   4   2 -15 3985.99 557.404  19
  -4   2  15 4518.23 254.424   8
  -4   2  15 4751.49 241.143  14
  -4  -2  15 4366.74 261.573  13
  -4   2  15 4552.95 250.545  13
  -4  -2  14 2317.79 356.035   2
   4  -2 -14 2715.64 455.753  19
   4   2 -14 2116.10 378.324  19
  -4   2  14 2510.99 389.354   2
  -4   2  14 2592.94 189.567   8
   4  -2 -13 157.366 155.464  19
   4   2 -13-45.9261 131.184  19
  -4   2  13 150.945 192.959   2
  -4  -2  13 130.158 151.717   2
   4  -2 -12 1661.99 353.305  19
   4   2 -12 1221.05 269.857  19
  -4   2  12 1155.85 280.620   2
   4  -2 -11 184.937 137.183  19
  -4   2  11 336.616 91.3859   2
  -4   2  10 116.417 108.080  21
   4  -2 -10 252.947 182.768  19
  -4   2  10 205.757 135.649   2
   4   2 -10 114.551 84.5534  19
  -4   2   9 24.9497 106.060  21
  -4   2   9 83.3736 164.059   2
   4  -2  -9 13.1592 109.681  19
   4   2  -9-157.085 94.4933  19
  -4   2   8 1092.84 247.123  21
   4  -2  -8 1111.14 279.350  19
   4   2  -8 1221.57 249.955  19
  -4  -2   8 1039.76 260.298   1
   4  -2  -7 5341.09 609.017  19
   4   2  -7 4410.45 459.704  19
  -4   2   7 4925.51 548.958  21
  -4  -2   7 4585.85 569.430   1
   4  -2  -6 83964.0 2485.26  19
  -4  -2   6 85783.9 2502.98   1
  -4   2   6 81750.4 2368.04  21
   4   2  -5 26026.8 1066.08  22
   4  -2  -5 25489.5 1273.82  19
  -4  -2   5 25414.8 1268.72   1
  -4   2   5 23953.8 1199.14  21
   4   2  -4 5952.76 512.865  22
   4  -2  -4 5765.79 624.852  19
  -4  -2   4 5507.50 608.182   1
  -4   2   4 5741.15 619.778  21
  -4   2   3 95888.7 2701.90  21
   4  -2  -3 100704. 2720.01  19
  -4  -2   3 100451. 2774.92   1
   4   2  -3 101312. 2399.50  22
  -4   2   2 17738.8 1063.27  21
   4  -2  -2 17759.6 1039.79  19
  -4  -2   2 18317.0 1097.96   1
   4   2  -2 18655.9 901.516  22
   4  -2  -1 22225.4 1154.09  19
  -4   2   1 21859.0 1155.90  21
   4  -2  -1 21054.5 922.745  18
  -4  -2   1 23203.0 1233.31   1
   4   2  -1 22672.1 1000.62  22
   4   2   0 5300.64 489.650  22
   4  -2   0 5807.68 593.454  19
   4  -2   0 4484.06 412.342  18
  -4  -2   0 5847.91 620.808   1
  -4   2   0 5400.91 579.656  21
   4  -2   1 4247.57 526.694  19
   4  -2   1 3935.55 412.203  18
  -4  -2  -1 3497.75 501.265   1
   4   2   1 3703.41 415.289  22
  -4   2  -1 4166.07 528.487  21
   4   2   2 13067.5 767.624  22
   4  -2   2 13451.8 898.880  19
  -4  -2  -2 13065.7 950.724   1
   4  -2   2 11506.6 733.236  18
  -4   2  -2 12482.6 864.648  21
   4  -2   3 8792.73 742.152  19
  -4  -2  -3 9046.60 798.990   1
   4  -2   3 7481.91 605.927  18
   4   2   3 8085.67 610.062  22
  -4   2  -3 8543.11 722.332  21
  -4   2  -4 1086.28 281.693  21
  -4  -2  -4 807.086 244.733   1
   4  -2   4 818.395 238.407  19
   4  -2   4 817.773 203.907  18
   4   2   4 940.506 215.382  22
  -4   2  -5 2132.07 374.748  21
  -4  -2  -5 2155.94 386.354   1
   4  -2   5 2127.87 379.376  19
   4  -2   5 1860.20 335.180  18
   4   2   5 1991.11 315.762  22
  -4   2  -6 307.275 158.910  21
  -4  -2  -6 639.000 240.837   1
   4  -2   6 290.800 208.002  19
   4  -2   6 492.864 172.874  18
   4   2   6 304.817 147.446  22
  -4   2  -7 235.212 99.8362  21
  -4  -2  -7 138.446 105.365   1
  -4   2  -7 135.483 86.2913  20
   4  -2   7 604.179 238.010  19
   4  -2   7 112.947 112.722  18
   4   2   7 420.745 198.713  22
  -4  -2  -8 257.512 192.433   1
  -4   2  -8 166.573 172.835  21
  -4   2  -8 244.201 172.681  20
   4  -2   8 73.3242 134.092  19
   4  -2   8 25.8544 144.815  18
   4   2   8 13.3627 120.603  22
  -4   2  -9 314.514 216.679  21
  -4   2  -9 6.77676 108.888  20
   4  -2   9 204.380 129.665  19
   4  -2   9 252.900 116.777  18
   4   2   9 335.022 124.081  22
  -4  -2  -9 390.229 224.069   1
  -4   2 -10 554.717 261.024  21
  -4   2 -10 342.975 180.861  20
   4  -2  10 351.290 195.918  19
   4  -2  10 370.115 227.374  18
  -4  -2 -10 432.793 238.013   1
   4   2  10 456.615 208.730  22
  -4   2 -11 6104.25 610.243  20
  -4  -2 -11 6383.05 724.387   1
   4  -2  11 5942.37 693.380  19
   4  -2  11 5909.68 665.950  18
   4   2  11 6119.14 579.980  22
  -4   2 -11 6457.91 665.408  21
  -4   2 -12 10028.2 782.434  20
  -4  -2 -12 10254.6 932.279   1
   4  -2  12 11360.4 419.829  10
   4  -2  12 10769.3 913.552  18
   4  -2  12 11140.9 383.104   7
  -4  -2 -12 10809.5 427.203  23
   4   2  12 10866.0 784.418  22
  -4   2 -12 11095.0 851.022  21
  -4   2 -13 574.696 231.418  20
   4  -2  13 793.923 136.930  10
   4  -2  13 346.311 225.635  18
  -4  -2 -13 561.206 155.842  23
  -4   2 -13 679.917 130.921  23
  -4  -2 -13 471.095 225.527   1
   4  -2  13 742.515 118.430   7
   4   2  13 63.9651 113.549  22
  -4   2 -14 63224.0 2204.22  20
  -4  -2 -14 65784.2 2490.20   1
   4  -2  14 62312.8 1263.23  10
  -4  -2 -14 65412.0 1325.77  23
   4  -2  14 62232.9 2344.31  18
   4  -2  14 62559.6 1211.77   7
  -4   2 -14 59643.8 1212.94  23
   4   2  14 68731.9 2147.46  22
  -4   2 -15 6972.34 717.631  20
  -4  -2 -15 8972.31 898.365   1
   4  -2  15 8399.15 386.976  10
   4  -2  15 7873.49 795.796  18
  -4  -2 -15 8649.26 411.942  23
   4  -2  15 8164.06 355.017   7
  -4   2 -15 7603.01 352.073  23
  -4  -2 -16 3802.36 272.226  23
   4  -2  16 3442.93 228.649  15
   4  -2  16 3477.58 232.238   7
  -4   2 -16 3357.03 233.234  23
   4  -2  17 81.1869 67.8007  15
  -4  -2 -17 111.065 78.0037  23
  -4   2 -17 215.114 99.0394  23
   4  -2  17 154.233 77.8415   7
   4  -2  18 6174.89 303.521  15
   4  -2  18 5564.40 297.688   7
  -4  -2 -18 5015.09 309.818  23
  -4   2 -18 5738.80 314.855  23
  -4  -2 -19 2896.75 247.145  23
   4  -2  19 2733.02 203.056  15
   4  -2  19 2656.62 209.239   7
  -4   2 -19 2468.46 219.592  23
   4  -2  20 44404.8 971.908   7
  -4  -2 -20 44903.4 1059.96  23
  -4   2 -20 45991.6 1037.32  23
   4  -2  21 3205.86 219.417   7
  -4  -2 -21 3075.78 243.364  23
  -4   2 -21 3368.47 245.810  23
  -4  -2 -22-37.2566 64.1678  23
  -4   2 -22 16.4217 64.7902  23
   4  -2  22-1.05096 59.3678   7
  -4  -2 -23 128.882 65.7628  23
  -4   2 -23 301.966 96.6205  23
   4  -2  23 142.433 71.0808   7
  -4  -2 -24 434.146 99.6811  23
  -4   2 -24 440.627 91.3942  23
   4  -2  24 395.136 81.6969   7
   4   2  24 514.759 91.1130  13
  -4  -2 -25 175.260 73.2274  23
  -4   2 -25 263.525 80.5835  23
   4  -2  25 214.101 66.5754   7
   4   2  25 185.446 61.9894  13
  -4  -2 -26 131.385 63.2764  23
  -4   2 -26 48.8058 66.8282  23
   4  -2  26 1.82953 42.6584   7
   4   2  26-3.23100 45.7402  13
  -4  -2 -27 259.102 65.6478  23
   4  -2  27 204.651 54.9809   7
  -4   2 -27 312.216 73.4221  23
   4   2  27 295.703 58.4616  13
  -4  -2 -28 106.072 47.7292  23
   4  -2  28 106.744 43.4601   7
  -4   2 -28 60.0247 50.2935  23
   4   2  28-8.71879 33.1565  13
   4  -2  29 322.964 46.2462   7
  -4  -2 -29 388.629 61.5277  23
  -4   2 -29 362.665 60.7425  23
   4   2  29 302.724 47.2050  13
  -4   3  29 3952.37 161.653   9
   4  -3 -28 1581.41 102.271   6
  -4   3  28 1600.61 120.009   9
  -4   3  28 1482.64 95.6588  13
   4  -3 -27 2410.72 145.255   6
  -4   3  27 2280.65 131.410  13
   4  -3 -26 368.988 80.8745   6
  -4   3  26 267.263 58.3926  13
   4  -3 -25 35.4650 47.4586   6
  -4   3  25 121.810 69.2228   8
  -4   3  25 181.444 65.1357  13
   4  -3 -24 242.075 82.3759   6
  -4   3  24 367.464 84.3947   8
  -4   3  24 342.092 74.7667  13
   4  -3 -23 4493.51 252.941   6
  -4   3  23 3962.71 237.337   8
  -4   3  23 3811.02 212.571  13
   4  -3 -22 4154.75 249.511   6
   4  -3 -22 4034.31 232.832   4
  -4   3  22 3857.92 240.917   8
  -4   3  22 4198.23 224.982  13
   4  -3 -21 1057.08 134.816   6
   4  -3 -21 795.987 118.102   4
  -4   3  21 860.339 125.005   8
  -4   3  21 957.916 122.639  13
   4  -3 -20 2347.31 197.250   6
   4  -3 -20 2790.36 203.971   4
  -4   3  20 2480.36 198.774   8
   4  -3 -19 1601.80 175.441   6
   4  -3 -19 1640.20 160.899   4
  -4   3  19 1485.17 159.793   8
  -4   3  19 1459.85 150.011  14
   4  -3 -18 9675.27 427.492   6
   4  -3 -18 9445.08 381.289   4
  -4   3  18 10077.4 402.486   8
  -4   3  18 9473.02 371.970  14
   4  -3 -17 1758.20 197.159   6
   4  -3 -17 1808.78 165.563   4
  -4   3  17 1820.82 190.735   8
  -4   3  17 1928.43 178.250  14
   4  -3 -16 612.364 141.364   6
  -4   3  16 620.345 120.415   8
  -4   3  16 492.058 100.611  14
   4  -3 -15 3885.20 271.346   6
  -4   3  15 3837.97 245.020   8
  -4   3  15 4004.67 241.966  14
   4  -3 -14 2965.91 236.113   6
  -4   3  14 3168.33 221.538   8
  -4   3  14 3208.85 219.806  14
   4  -3 -13 2105.75 211.703   6
  -4   3  13 2089.64 375.776   2
  -4   3  13 2185.17 192.529   8
   4  -3 -13 2223.49 175.989  17
  -4   3  13 2041.68 188.453  14
   4  -3 -12 27762.1 749.844   6
  -4   3  12 29727.4 705.262   5
  -4   3  12 27340.5 707.767   8
   4  -3 -12 28019.4 685.527  17
  -4   3  12 28716.9 716.816  14
  -4   3  12 28902.7 1379.95   2
   4  -3 -11 22858.6 667.555   6
  -4   3  11 23870.3 624.159   5
  -4   3  11 22810.0 621.680   8
   4  -3 -11 23982.0 613.254  17
  -4   3  11 24247.4 638.476  14
  -4   3  11 23010.3 1197.90   2
   4  -3 -10 22632.0 649.132   6
   4  -3 -10 24123.7 1258.47  19
  -4   3  10 23095.4 621.413   5
  -4   3  10 22270.8 595.315   8
   4  -3 -10 23677.9 605.739  17
  -4   3  10 23789.1 633.875  14
  -4   3  10 22730.0 1176.57   2
  -4   3   9 14978.6 992.514  21
   4  -3  -9 16336.9 526.443   6
   4  -3  -9 16383.7 1027.35  19
  -4   3   9 17155.8 515.151   5
  -4   3   9 16207.7 477.847   8
   4  -3  -9 17318.7 501.128  17
  -4   3   9 16494.6 514.540  14
  -4   3   9 16510.9 988.451   2
  -4   3   8 4098.38 530.337  21
   4  -3  -8 4816.67 276.520   6
   4  -3  -8 5164.15 571.591  19
  -4   3   8 4893.23 267.685  14
  -4   3   7 3445.30 479.558  21
   4   3  -7 3540.90 404.953  21
   4  -3  -7 4395.72 546.601  19
  -4   3   7 3491.83 224.848  14
  -4  -3   7 3815.61 489.577   1
  -4   3   6 7372.54 709.234  21
   4  -3  -6 7667.46 690.496  19
  -4  -3   6 8890.94 756.260   1
  -4   3   5-78.4066 170.611  21
   4  -3  -5-3.63885 117.071  19
  -4  -3   5 11.0549 123.891   1
  -4  -3   4 518.913 218.172   1
  -4   3   4 490.150 214.828  21
   4  -3  -4 433.578 200.038  19
  -4   3   3 124.651 206.679  21
   4  -3  -3 129.889 188.442  19
  -4  -3   3 81.8092 91.1020   1
  -4   3   2 1237.54 305.350  21
   4  -3  -2 1065.76 275.511  19
  -4  -3   2 1780.21 356.559   1
   4   3  -2 1341.72 229.316  22
  -4   3   1 693.781 261.445  21
  -4  -3   1 833.766 292.774   1
   4  -3  -1 455.909 207.004  19
   4   3  -1 624.861 172.233  22
  -4   3   0 2990.58 483.262  21
   4  -3   0 3713.05 491.814  19
   4  -3   0 3146.52 406.428  18
  -4  -3   0 3406.27 484.846   1
   4   3   0 3195.71 367.754  22
  -4   3  -1 1612.62 354.714  21
   4  -3   1 2159.27 392.020  19
   4  -3   1 1903.27 322.742  18
  -4  -3  -1 1937.90 391.956   1
   4   3   1 1714.59 270.964  22
  -4   3  -2 449.598 222.572  21
   4  -3   2 385.651 204.502  19
   4  -3   2 630.331 237.301  18
  -4  -3  -2 871.049 305.308   1
   4   3   2 434.324 165.766  22
  -4   3  -3-20.9918 122.705  21
   4  -3   3 66.7791 110.263  19
   4  -3   3-99.7509 128.096  18
  -4  -3  -3-83.0262 193.510   1
   4   3   3 81.5449 88.9976  22
  -4   3  -4 478.305 253.230  21
   4  -3   4 653.175 221.784  19
   4  -3   4 314.037 159.774  18
  -4  -3  -4 312.077 144.154   1
   4   3   4 374.762 122.015  22
   4  -3   5 4815.59 596.878  19
  -4  -3  -5 4169.11 584.042   1
   4  -3   5 3960.26 518.669  18
   4   3   5 3897.02 433.685  22
  -4   3  -5 3907.84 526.688  21
   4  -3   6 4694.44 252.951  10
   4  -3   6 5445.93 626.770  19
  -4  -3  -6 5063.11 620.663   1
   4  -3   6 4706.99 585.503  18
   4   3   6 4639.92 484.645  22
  -4   3  -6 4532.44 580.058  21
  -4   3  -7 3397.24 487.755  21
   4  -3   7 3691.48 233.960  10
   4  -3   7 3883.75 550.864  19
  -4  -3  -7 3622.90 527.826   1
   4  -3   7 3558.45 517.250  18
  -4  -3  -7 3040.13 218.692  23
   4   3   7 3513.71 433.050  22
   4  -3   8 6666.70 312.906  10
  -4  -3  -8 7004.90 334.726  23
   4  -3   8 6509.24 712.670  19
  -4  -3  -8 7582.50 792.791   1
   4  -3   8 6440.89 671.540  18
   4   3   8 6938.33 607.452  22
  -4   3  -8 7047.00 728.837  21
  -4   3  -9 2618.20 438.275  21
  -4  -3  -9 2576.57 457.725   1
   4  -3   9 2693.97 202.885  10
   4  -3   9 2519.43 446.782  18
  -4  -3  -9 2583.23 209.520  23
   4   3   9 2554.20 369.797  22
   4  -3  10 5807.01 299.531  10
  -4  -3 -10 5701.12 702.750   1
   4  -3  10 5694.15 667.378  18
   4  -3  10 5736.32 261.881   7
  -4  -3 -10 5390.90 305.090  23
   4   3  10 6341.36 595.346  22
  -4   3 -10 6315.64 675.003  21
   4  -3  11 831.046 134.131  10
   4  -3  11 991.398 314.913  18
  -4  -3 -11 833.642 136.037  23
   4  -3  11 859.649 116.590   7
   4  -3  12 24749.4 698.281  10
   4  -3  12 25441.4 629.829   7
  -4  -3 -12 24914.8 714.562  23
   4  -3  13 12583.4 485.972  10
  -4  -3 -13 11487.9 479.648  23
   4  -3  13 12979.6 432.428   7
  -4  -3 -14 43697.7 1026.92  23
   4  -3  14 41254.2 894.075   7
   4  -3  15 6489.14 343.632  15
   4  -3  15 6730.22 298.435   7
  -4  -3 -15 6892.96 364.792  23
  -4   3 -15 6312.71 319.811  23
   4  -3  16 3089.46 240.921  15
   4  -3  16 2935.99 191.957   7
  -4  -3 -16 2833.80 232.985  23
  -4   3 -16 3037.47 218.790  23
   4  -3  17 8682.27 394.346  15
   4  -3  17 8641.89 338.745   7
  -4  -3 -17 8415.15 400.808  23
  -4   3 -17 8648.02 376.836  23
   4  -3  18 1346.15 149.185  15
   4  -3  18 1235.68 130.250   7
  -4   3 -18 1262.66 155.623  23
  -4  -3 -18 1279.93 158.877  23
   4  -3  19 2179.77 193.167  15
   4  -3  19 2180.01 171.585   7
  -4  -3 -19 2117.83 203.720  23
  -4   3 -19 2283.94 198.572  23
   4  -3  20 17780.2 531.063  15
   4  -3  20 17806.6 494.686   7
  -4  -3 -20 17756.3 562.752  23
  -4   3 -20 18398.6 551.569  23
   4  -3  21 9649.23 357.186  15
   4  -3  21 9168.65 328.360   7
  -4  -3 -21 9361.13 387.901  23
  -4   3 -21 9858.22 389.124  23
  -4  -3 -22 2015.77 173.151  23
   4   3  22 2124.20 142.903   8
   4  -3  22 2145.06 147.228   7
  -4   3 -22 2569.89 189.935  23
   4   3  23 2374.74 130.310   8
   4  -3  23 2116.14 139.485   7
   4   3  23 2379.38 163.202  13
  -4  -3 -23 2244.65 176.413  23
  -4   3 -23 1874.35 159.426  23
   4   3  24 725.076 69.8425   8
  -4  -3 -24 704.121 98.6340  23
   4  -3  24 693.018 77.8894   7
  -4   3 -24 704.856 99.4170  23
   4   3  24 729.451 88.6367  13
  -4  -3 -25 462.883 77.7119  23
   4  -3  25 411.949 58.4008   7
  -4   3 -25 583.340 86.0998  23
   4   3  25 337.884 67.9800  13
   4   3  26 6743.34 232.106  13
  -4  -3 -26 6571.99 244.330  23
  -4   3 -26 6669.77 249.844  23
   4   3  27 1978.88 108.836  13
  -4  -3 -27 2091.79 120.349  23
  -4   3 -27 1958.95 122.252  23
  -4   4  26 404.199 63.8209   9
   4  -4 -25 292.959 48.2347   6
   4  -4 -24 166.750 52.1554   6
   4  -4 -23 80.8234 47.4570   6
  -4   4  23 74.8682 43.6242   8
  -4   4  22 2607.47 168.677   8
   4  -4 -22 3155.83 182.323   6
   4  -4 -21 94.5980 60.1722   6
  -4   4  21-3.02329 52.6247   8
   4  -4 -20 119.624 72.7486   6
  -4   4  20 65.0534 50.2777   8
   4  -4 -19 55.4402 65.6538   6
  -4   4  19 2.25118 52.8971   8
  -4   4  19-19.8513 51.6348  14
   4  -4 -18-12.8365 71.1518   6
  -4   4  18 75.8328 60.7846   8
  -4   4  18 9.81685 51.6345  14
   4  -4 -17 90.5368 62.2589   6
  -4   4  17 65.5921 63.9952   8
  -4   4  17 30.1687 72.0906  14
   4  -4 -16 246.866 82.6105   6
  -4   4  16 84.2762 61.4488   8
  -4   4  16 83.1659 59.4539  14
   4  -4 -15 442.332 112.245   6
  -4   4  15 191.692 66.7830   5
  -4   4  15 380.989 86.2438   8
  -4   4  15 272.795 85.7431  14
   4  -4 -14 880.744 141.584   6
  -4   4  14 774.637 109.924   5
  -4   4  14 705.565 103.492   8
  -4   4  14 836.881 127.048  14
   4  -4 -13 396.640 96.4660   6
  -4   4  13 373.249 75.0235   5
  -4   4  13 627.534 111.908   8
  -4   4  13 544.074 116.719  14
   4  -4 -12 84.5924 75.5514   6
  -4   4  12 268.972 90.2868   5
  -4   4  12 283.377 86.6431   8
  -4   4  12 238.168 92.8320  14
   4  -4 -11 1618.42 185.475   6
  -4   4  11 1205.70 154.400   5
  -4   4  11 1112.96 131.987   8
  -4   4  11 1327.05 156.020  14
   4  -4 -10 20776.2 641.219   6
  -4   4  10 20866.1 620.000   5
  -4   4  10 19877.0 551.426   8
  -4   4  10 21193.7 618.259  14
  -4   4   9 1782.96 189.849   5
  -4   4   9 1670.49 196.451  14
   4  -4  -9 1547.84 214.181   6
  -4   4   8 28895.9 772.556   5
   4  -4  -8 28254.5 692.788  17
  -4   4   8 29324.7 757.251  14
   4  -4  -8 28761.5 775.244   6
  -4   4   7 9434.99 405.102   5
   4  -4  -7 9115.31 355.122  17
  -4   4   7 8615.09 384.085  14
   4  -4  -7 9038.84 405.848   6
  -4   4   6 1519.34 194.932   5
   4  -4  -6 1253.30 165.170  17
  -4   4   6 1359.95 172.486  14
   4  -4  -6 1214.64 177.514   6
  -4   4   5 12118.1 462.970   5
   4  -4  -5 12122.1 424.998  17
  -4   4   5 11496.8 428.956  14
   4  -4  -5 12011.6 466.431   6
  -4   4   4 1707.25 180.028   5
   4  -4  -4 1926.04 164.870  16
  -4   4   4 1666.58 166.106  14
   4  -4  -4 1541.26 165.934   6
  -4   4   3 443.775 101.226   5
   4  -4  -3 428.622 72.5174  16
  -4   4   3 390.268 76.0617  14
   4  -4  -3 243.287 81.5637   6
  -4   4   2 191.870 91.6866   5
   4  -4  -2-22.7841 40.4018  16
  -4   4   2 185.206 79.4933  14
  -4   4   1 9.74503 66.3516   5
   4  -4  -1 128.586 53.4584  16
  -4   4   1 107.319 59.4589  14
   4  -4   0 993.655 142.369  11
  -4   4   0 1145.22 148.815   5
   4  -4   0 877.247 100.825  16
  -4   4   0 977.635 122.316  14
   4  -4   1 1149.54 146.516  11
  -4   4  -1 1238.11 156.243   5
   4  -4   1 923.437 110.466  16
  -4   4  -1 1446.25 136.400  14
   4  -4   2 2170.12 194.886  11
  -4   4  -2 2348.27 207.413   5
   4  -4   3 1490.62 180.571  11
  -4   4  -3 1241.76 170.659   5
   4  -4   4 22392.8 662.380  11
  -4   4  -4 21805.6 653.648   5
   4  -4   5 7421.36 357.956  11
   4  -4   5 8091.31 333.860  10
   4  -4   6 3398.86 238.959  11
   4  -4   6 3680.44 228.109  10
   4  -4   7 10510.0 424.316  11
   4  -4   7 11003.4 409.346  10
   4  -4   8 1233.10 147.155  11
   4  -4   8 1136.40 130.938  10
   4  -4   9 841.351 121.331  11
   4  -4   9 869.105 120.903  10
   4  -4  10 3033.63 218.869  11
   4  -4  11 288.231 88.1226  11
   4  -4  12 145.192 69.1540  11
   4  -4  12 120.970 66.9618  15
   4  -4  13 487.244 93.6090  11
   4  -4  13 447.645 110.040  15
  -4  -4 -13 670.766 123.332  23
   4  -4  14 915.449 116.270  11
   4  -4  14 817.179 128.408  15
  -4  -4 -14 894.932 125.491  23
   4  -4  15 93.4031 69.4752  15
  -4  -4 -15 105.916 83.9040  23
   4  -4  16 84.7701 70.4061  15
  -4  -4 -16 159.060 78.8050  23
  -4   4 -16 66.1949 53.4710  23
   4  -4  17 26.3985 60.0476  15
  -4  -4 -17 64.5508 65.2538  23
  -4   4 -17 57.6041 60.8391  23
   4  -4  18 454.053 89.3841  15
  -4   4 -18 528.383 87.5648  23
   4  -4  19 7.99244 46.4606  15
  -4   4 -19 8.25172 59.2752  23
   4  -4  20 468.988 88.2477  15
  -4   4 -20 427.139 78.9395  23
   4   4  21 531.775 71.0211   8
  -4   4 -21 702.698 89.2874  23
   4   4  21 620.079 77.9907  13
   4   4  22 1443.61 99.9787   8
   4   4  22 1459.90 104.266  13
  -4   4 -22 1358.32 116.383  23
   4   4  23 203.817 40.9547   8
  -4   4 -23 169.519 48.4357  23
   4   4  23 319.111 53.4777  13
   4   4  24 169.412 33.3066   8
  -4   4 -24 262.190 50.9390  23
   4   4  24 179.617 37.0578  13
   4  -5 -21 964.975 69.7867  11
  -4   5  21 1184.84 85.8025   9
   4  -5 -20 1004.81 85.4064  11
   4  -5 -19 8264.06 272.654  11
   4  -5 -18 554.881 84.9369  11
   4  -5 -17 376.704 79.6597  11
  -4   5  17 444.909 77.7791  14
  -4   5  16 9302.03 322.951  14
  -4   5  15 563.658 89.2025   5
  -4   5  15 743.187 103.312  14
  -4   5  14 270.592 74.2977   5
  -4   5  14 158.199 70.3894  14
  -4   5  13 258.802 81.8385   5
  -4   5  13 244.293 81.0298  14
  -4   5  12 1518.87 149.918   5
  -4   5  12 1732.51 155.900  14
  -4   5  11 1619.89 156.109   5
  -4   5  11 1723.26 156.072  14
   4  -5 -10 1505.65 164.608  11
  -4   5  10 1530.32 159.087   5
  -4   5  10 1761.84 162.552  14
   4  -5  -9 616.914 123.470  11
  -4   5   9 703.399 120.527   5
  -4   5   9 617.894 111.456  14
   4  -5  -8 6242.79 327.484  11
  -4   5   8 5739.17 311.519   5
  -4   5   8 6221.65 299.330  14
   4  -5  -7 4947.58 289.302  11
  -4   5   7 4411.81 279.169   5
  -4   5   7 4595.60 259.200  14
   4  -5  -6 841.779 139.460  11
  -4   5   6 889.021 143.724   5
  -4   5   6 831.611 123.454  14
   4  -5  -5 1175.35 154.001  11
  -4   5   5 1009.41 146.336   5
  -4   5   5 1169.92 139.904  14
   4  -5  -4 5364.39 307.918  11
  -4   5   4 4961.99 285.190   5
  -4   5   4 5393.97 265.676  14
   4  -5  -3 1075.50 152.919  11
  -4   5   3 1163.69 154.028   5
  -4   5   3 1047.86 123.413  14
   4  -5  -2 268.929 92.6503  11
  -4   5   2 206.413 74.1425   5
  -4   5   2 276.270 74.6143  14
   4  -5  -1 371.677 108.226  11
  -4   5   1 371.680 91.3210   5
  -4   5   1 389.525 76.8351  14
   4  -5   0 559.407 106.691  11
  -4   5   0 410.995 101.258   5
  -4   5   0 389.581 74.8282  14
   4  -5   1-66.5653 76.7356  11
  -4   5  -1 11.6207 66.9306   5
   4  -5   2 1216.63 156.234  11
  -4   5  -2 1147.56 143.426   5
   4  -5   3 759.640 140.761  11
   4  -5   4 9989.77 410.195  11
   4  -5   5 1399.34 156.315  11
   4  -5   6 720.012 114.759  11
   4  -5   7 1110.03 139.268  11
   4  -5   7 1139.49 137.797  15
   4  -5   8 453.260 91.6363  11
   4  -5   8 547.087 101.746  15
   4  -5   9 891.996 117.725  11
   4  -5   9 1025.47 131.130  15
   4  -5  10 406.840 83.6776  11
   4  -5  10 503.743 91.8353  15
   4  -5  11 73.7964 54.1503  11
   4  -5  11 57.8829 53.1943  15
   4  -5  12 1135.91 134.405  15
   4  -5  12 1092.98 125.315  11
   4  -5  13 6354.79 297.038  15
  -4   5 -13 5483.19 228.787  23
   4  -5  13 6004.75 263.841  11
   4  -5  14 343.515 82.1561  15
  -4   5 -14 348.852 62.3509  23
   4  -5  14 311.971 66.0848  11
   4  -5  15 4086.80 219.229  15
  -4   5 -15 3920.34 179.526  23
   4  -5  16 1948.22 146.636  15
  -4   5 -16 1664.09 114.430  23
   4   5  17 883.555 83.7718   8
   4  -5  17 719.846 91.9751  15
  -4   5 -17 835.277 78.5167  23
   4   5  18 919.124 79.1361   8
  -4   5 -18 568.251 59.9054  23
   4   5  19 8.80839 29.3621   8
  -4   5 -19 105.629 30.8971  23
   4  -6 -14 1491.93 87.4401  11
   4  -6 -13 150.992 46.0101  11
   4  -6 -12 727.910 77.7380  11
   4  -6 -11 510.948 74.4598  11
   4  -6 -10 616.736 84.4410  11
   4  -6  -9 1497.27 122.499  11
   4  -6  -8 280.658 73.7162  11
   4  -6  -7 2147.73 162.896  11
  -4   6   7 2373.55 166.474   5
   4  -6  -6 11694.7 375.002  11
  -4   6   6 11695.0 377.116   5
   4  -6  -5 554.941 102.641  11
   4  -6  -4 388.210 75.0242  11
   4  -6  -3 604.462 91.7678  11
   4  -6  -2 24.1903 43.5374  11
   4  -6  -1 413.910 83.9169  11
   4  -6   0 174.292 69.5204  11
   4  -6   1 3590.95 204.111  11
   4  -6   2 1034.62 129.073  11
   4  -6   3 10748.2 350.144  11
   4  -6   3 9442.32 287.432  15
   4  -6   4 3752.36 173.355  15
   4  -6   4 4401.26 221.034  11
   4  -6   5 3688.49 171.824  15
   4  -6   5 3845.51 196.075  11
   4  -6   6 813.505 94.7428  11
   4   6   6 783.449 63.2807   8
   4  -6   6 810.062 82.9013  15
   4  -6   7 213.844 51.0533  11
   4   6   7 337.549 47.6953   8
   4  -6   7 290.764 50.8348  15
   4  -6   8 136.814 56.4176  11
   4   6   8 119.109 35.0258   8
   4  -6   8 15.8706 35.0846  15
   4  -6   9 408.367 61.7349  11
   4   6   9 529.065 53.4547   8
   4  -6   9 372.522 57.6155  15
   4  -6  10 267.218 51.8864  11
   4   6  10 228.170 38.4283   8
   4  -6  10 190.643 45.7701  15
   4  -6  11 302.801 46.0902  15
   4   6  11 300.187 41.0556   8
  -5   0  30 68.2565 43.8796  13
  -5   0  29 317.340 67.4524  13
  -5   0  28 228.393 74.3983  13
  -5   0  27 37539.6 835.016  13
  -5   0  26 1341.39 134.077   9
  -5   0  26 1854.74 189.887  13
  -5   0  25 38625.1 822.794   9
  -5   0  25 39509.1 911.239  13
  -5   0  24 479.873 102.234   9
  -5   0  24 440.715 111.245  13
  -5   0  23 27.1935 62.3768   9
  -5   0  23-22.3536 57.9588  13
  -5   0  22 42.0277 57.4187   9
  -5   0  22 47.7600 66.1883  13
  -5   0  21 135.354 81.0658   9
  -5   0  21-26.4704 66.6054  13
  -5   0  20 14.4343 59.3985   9
  -5   0  20 83.0309 79.4242  13
  -5   0  19 926.811 134.403   9
  -5   0  19 998.857 164.568  13
  -5   0  18 81.5585 67.7081   9
  -5   0  18 15.5986 83.4999  13
  -5   0  17 1179.64 154.924   9
  -5   0  17 1070.08 148.820  13
   5   0 -16 85.1348 190.175  19
  -5   0  16 412.700 111.590   9
  -5   0  16 481.074 186.372   2
  -5   0  16 214.885 102.100  13
  -5   0  15 13437.4 930.570   2
   5   0 -15 12110.3 1016.61  19
  -5   0  15 12969.8 481.653   9
  -5   0  15 12044.9 468.368  13
  -5   0  14 2075.11 211.609   9
   5   0 -14 1925.61 443.603  19
  -5   0  14 1548.03 362.711   2
  -5   0  14 1815.63 208.371  13
  -5   0  13 62665.0 2026.98   2
   5   0 -13 57923.2 2249.20  19
  -5   0  13 59501.6 1209.40   9
  -5   0  13 60615.1 1224.67  13
   5   0 -12 1496.24 384.899  19
  -5   0  12 871.127 259.563   2
  -5   0  11 7349.50 619.612   2
   5   0 -11 6727.96 716.253  19
   5   0 -10 138.695 96.8664  19
  -5   0  10 72.7340 135.086   2
  -5   0   9 3281.49 404.883   2
   5   0  -9 2527.08 415.944  19
   5   0  -8 173.848 130.975  19
  -5   0   8-85.4138 125.433   2
   5   0  -7 57.3456 122.336  19
  -5   0   7 74.4065 80.3668   2
   5   0  -6-224.465 137.109  19
  -5   0   6 162.303 136.059   2
   5   0  -5 606.411 210.565  19
  -5   0   5 495.381 137.603   2
  -5   0   5 550.052 207.581   1
   5   0  -4-7.69797 101.236  19
  -5   0   4-37.8967 85.2228   2
   5   0  -3 71.5069 151.250  19
  -5   0   3 64.8161 102.391   2
  -5   0   3 81.1232 130.183   1
  -5   0   2 426.412 216.878   1
   5   0  -2 394.921 191.838  19
  -5   0   2 376.220 128.252   2
   5   0  -1 13316.1 904.028  19
  -5   0   1 12385.2 696.105   2
  -5   0   1 12584.2 882.684   1
   5   0   0 444.021 178.482  19
  -5   0   0 570.583 269.009   1
   5   0   1 8072.23 692.634  19
  -5   0  -1 7889.99 705.621   1
  -5   0  -2 20.3627 98.1053   1
   5   0   2 68.9338 113.491  19
  -5   0  -3 853.759 229.133   1
   5   0   3 895.960 266.660  19
   5   0   3 492.406 160.690  22
   5   0   4 122.750 154.248  19
  -5   0  -4-2.64590 158.899   1
   5   0   4-70.7183 146.124  22
   5   0   5 567.258 244.691  19
  -5   0  -5 514.137 153.782   1
   5   0   5 584.352 213.386  22
   5   0   6 226.731 88.5943  19
   5   0   6 122.638 159.827  18
  -5   0  -6 141.830 153.510   1
   5   0   6 41.8724 117.228  22
   5   0   7 924.988 262.069  19
  -5   0  -7 934.979 202.244   1
   5   0   7 1008.77 253.436  22
   5   0   8 326.947 184.889  19
  -5   0  -8 188.501 179.801   1
   5   0   8 107.592 95.8436  22
   5   0   9 129.649 189.548  19
  -5   0  -9 159.413 196.162   1
   5   0   9 124.067 88.3630  22
   5   0  10 230.449 192.820  19
  -5   0 -10-274.765 188.618   1
  -5   0 -10-117.488 82.9723  12
   5   0  10 320.474 149.837  22
   5   0  11 1919.34 159.925  10
   5   0  11 1327.97 315.344  19
  -5   0 -11 1261.95 316.995   1
  -5   0 -11 1834.08 187.900  12
   5   0  11 1856.73 333.144  22
   5   0  12 230.755 75.4862  10
  -5   0 -12 31.1077 54.0149  23
   5   0  12 94.8409 76.8346   7
   5   0  12 174.542 147.709  22
   5   0  13 319.067 83.8055  10
  -5   0 -13 306.471 206.904   1
   5   0  13 521.797 199.762  18
  -5   0 -13 289.774 76.3718  23
   5   0  13 290.246 80.0575   7
   5   0  13 261.051 132.798  22
   5   0  14 84.6460 66.2507  10
  -5   0 -14 76.4542 67.8547  23
   5   0  14-25.5576 78.7476   7
   5   0  15 214.720 66.9605  10
  -5   0 -15 202.349 62.1954  23
   5   0  15 195.397 67.4478   7
  -5   0 -16 100.249 74.7271  23
   5   0  16 14.6276 63.2641   7
   5   0  17 191.133 74.0596   7
  -5   0 -17 85.0151 81.7690  23
  -5   0 -18 312.746 102.221  23
   5   0  18 68.4768 73.5851   7
   5   0  19 6970.18 327.801   7
  -5   0 -19 7192.76 360.822  23
  -5   0 -20 820.269 147.244  23
   5   0  20 564.334 115.008   7
   5   0  21 6391.50 310.664   7
  -5   0 -21 6585.94 338.095  23
  -5   0 -22 428.451 107.064  23
   5   0  22 281.717 90.1748   7
  -5   0 -23 66.4187 65.2790  23
   5   0  23 140.767 65.3111   7
  -5   0 -24 96.1029 69.3830  23
   5   0  24 160.696 62.4390   7
   5   0  25 2667.65 172.913   7
  -5   0 -25 2977.81 190.659  23
  -5   0 -26-26.0114 48.1598  23
   5   0  26 58.9465 38.4899   7
  -5   0 -27 233.271 57.3601  23
   5   0  27 272.999 58.5242   7
   5   0  28 63.1683 33.5117   7
  -5   0 -28-26.4985 35.2513  23
   5  -1 -30 1113.75 93.9083   6
  -5   1  30 1087.10 96.4938  13
   5  -1 -29 2551.63 156.316   6
  -5   1  29 2113.59 116.816   9
  -5   1  29 2192.84 148.752  13
   5  -1 -28 12018.5 371.504   6
  -5   1  28 11105.3 324.440   9
  -5   1  28 10879.6 366.214  13
  -5   1  27 9622.96 331.713   9
  -5  -1  27 10112.6 359.711  13
  -5   1  27 10363.3 370.507  13
  -5   1  26 1625.78 151.534   9
  -5  -1  26 1745.81 163.009  13
  -5   1  26 1735.07 167.358  13
  -5   1  25 9814.17 368.169   9
  -5  -1  25 9188.43 378.182  13
  -5   1  25 9793.33 389.606  13
  -5   1  24 17561.6 526.327   9
  -5  -1  24 16405.7 533.480  13
  -5   1  24 16359.3 535.917  13
  -5   1  23 4970.93 281.448   9
  -5  -1  23 5203.13 298.056  13
  -5   1  23 4641.02 287.834  13
  -5   1  22 2079.76 183.059   9
  -5  -1  22 1646.38 176.260  13
  -5   1  22 1805.60 178.549  13
  -5  -1  21 2745.05 198.118   9
  -5   1  21 2849.74 222.698   9
  -5  -1  21 2670.30 222.855  13
  -5   1  21 2306.29 204.585  13
  -5  -1  20 498.320 106.578   9
  -5   1  20 594.849 120.108   9
  -5  -1  20 387.293 107.955  13
  -5   1  20 649.790 125.461  13
  -5  -1  19 470.706 104.106   9
  -5   1  19 522.143 119.943   9
  -5  -1  19 279.554 95.8481  13
  -5   1  19 217.271 89.3491  13
  -5  -1  18 1507.70 162.522   9
  -5   1  18 1472.90 168.556   9
  -5  -1  18 1430.11 169.839  13
  -5   1  18 1402.38 159.751  13
  -5  -1  17 499.986 104.585   9
  -5   1  17 526.320 119.272   9
  -5  -1  17 518.351 121.146  13
  -5   1  17 495.735 121.916  13
  -5  -1  16 4261.79 259.479   9
  -5   1  16 4082.49 266.786   9
  -5  -1  16 4117.24 276.812  13
  -5   1  16 3503.65 243.717  13
  -5  -1  15 2659.00 208.353   9
   5  -1 -15 2167.89 464.494  19
  -5   1  15 2583.70 222.005   9
   5   1 -15 2106.69 444.842  19
  -5   1  15 2574.78 437.537   2
  -5  -1  15 2268.69 373.171   2
  -5  -1  15 2567.54 222.061  13
  -5   1  15 2521.54 214.424  13
  -5   1  14 13234.6 927.526   2
  -5  -1  14 13158.0 849.335   2
   5  -1 -14 12771.5 1038.98  19
   5   1 -14 10610.2 921.703  19
  -5  -1  14 11789.9 451.216   9
  -5   1  14 12681.3 471.504   9
  -5  -1  14 11737.7 463.699  13
  -5   1  14 11524.5 436.946  13
  -5   1  13 5123.62 556.246   2
  -5  -1  13 6051.00 567.042   2
   5  -1 -13 4398.47 612.279  19
   5   1 -13 4648.95 621.239  19
  -5  -1  13 5905.24 305.532   9
  -5   1  13 5492.58 299.778   9
  -5  -1  13 5203.44 301.864  13
  -5   1  13 5253.07 288.447  13
  -5  -1  12 4876.65 492.967   2
   5  -1 -12 4243.33 591.237  19
   5   1 -12 3904.67 543.094  19
  -5  -1  12 4808.20 269.045   9
  -5   1  12 4163.61 263.851   9
  -5  -1  12 4441.51 268.812  13
  -5   1  12 4216.36 251.351  13
  -5   1  12 4470.07 504.986   2
   5  -1 -11 585.389 263.528  19
   5   1 -11 354.646 152.165  19
  -5   1  11 575.282 179.510   2
  -5  -1  11 688.785 150.876   2
   5  -1 -10 1363.91 323.017  19
   5   1 -10 1139.17 282.617  19
  -5   1  10 1299.32 261.681   2
  -5  -1  10 1498.24 279.106   2
   5  -1  -9 1280.95 327.198  19
   5   1  -9 766.280 225.393  19
  -5   1   9 1272.14 267.468   2
   5  -1  -8 4458.54 574.634  19
   5   1  -8 4508.35 534.370  19
  -5   1   8 4585.70 502.183   2
  -5  -1   7 1193.23 285.271   1
   5  -1  -7 1500.72 350.036  19
   5   1  -7 1147.72 272.974  19
  -5   1   7 1412.51 295.537   2
  -5  -1   6 1662.46 350.204   1
  -5   1   6 1915.17 315.396   2
   5  -1  -6 2065.63 416.466  19
   5   1  -6 1312.30 316.996  19
   5  -1  -5 10969.6 884.682  19
   5   1  -5 9440.54 769.167  19
  -5  -1   5 9410.54 815.210   1
  -5   1   5 8929.05 662.866   2
   5  -1  -4 19387.0 1166.82  19
   5   1  -4 21087.8 1126.34  19
  -5  -1   4 19461.9 1162.28   1
  -5   1   4 18958.7 1114.99  21
   5  -1  -3 2064.42 391.270  19
   5   1  -3 2142.53 360.648  19
  -5  -1   3 2337.66 425.030   1
  -5   1   3 1916.62 372.254  21
   5  -1  -2 9471.15 803.223  19
   5   1  -2 10331.1 742.416  19
  -5  -1   2 10261.7 864.199   1
  -5   1   2 10127.6 828.492  21
   5  -1  -1 3740.27 498.943  19
   5   1  -1 4290.94 484.624  19
  -5  -1   1 3938.59 562.095   1
  -5   1   1 3965.02 463.350   1
  -5   1   1 3506.33 488.299  21
   5  -1   0 21262.9 1204.23  19
   5   1   0 20571.9 1043.37  19
  -5  -1   0 22068.7 1255.31   1
  -5   1   0 22302.9 1073.68   1
   5   1   0 21219.9 1111.15  22
  -5   1   0 21593.9 1238.65  21
   5  -1   1 12096.4 900.932  19
   5   1   1 12657.0 818.357  19
  -5  -1  -1 11941.1 953.136   1
  -5   1  -1 10600.8 743.826   1
   5   1   1 12367.6 847.174  22
  -5   1  -1 10039.4 837.420  21
   5   1   2 159.034 105.900  19
   5  -1   2 711.551 271.910  19
  -5   1  -2 619.484 206.808   1
  -5  -1  -2 237.200 166.749   1
   5   1   2 707.279 214.240  22
   5   1   3 246.979 112.612  19
   5  -1   3 114.893 141.557  19
  -5  -1  -3 253.791 214.870   1
  -5   1  -3 265.467 155.182   1
   5   1   3 403.430 206.456  22
   5  -1   4 3369.85 483.955  19
  -5  -1  -4 3445.71 534.222   1
   5   1   4 3360.41 442.627  22
   5  -1   5 3029.16 474.366  19
  -5  -1  -5 3247.03 516.380   1
   5   1   5 2993.21 414.581  22
   5  -1   5 2674.89 377.252  22
   5  -1   6 11042.8 876.484  19
   5  -1   6 10412.6 756.589  18
  -5  -1  -6 11105.4 943.616   1
   5   1   6 11842.3 820.016  22
   5  -1   6 10992.2 748.724  22
   5  -1   7 12753.2 962.411  19
  -5  -1  -7 12898.5 1017.82   1
   5  -1   7 9814.14 766.752  18
   5   1   7 12268.0 836.002  22
   5  -1   7 11971.2 772.880  22
   5  -1   8 2048.01 418.220  19
  -5  -1  -8 2470.65 472.098   1
   5  -1   8 1806.56 354.047  18
   5   1   8 2979.19 432.428  22
   5  -1   8 1946.76 331.387  22
   5  -1   9 4741.26 256.786  10
   5  -1   9 4537.64 584.610  19
  -5  -1  -9 4810.69 638.458   1
   5  -1   9 3683.31 514.579  18
  -5   1  -9 4795.75 279.802  12
   5   1   9 4367.76 505.102  22
   5  -1  10 3630.29 226.175  10
   5  -1  10 4217.15 557.603  19
  -5  -1 -10 3275.23 525.183   1
   5  -1  10 3208.84 491.960  18
  -5   1 -10 4324.64 249.762  12
   5   1  10 3770.06 478.081  22
  -5  -1 -11-289.080 189.858   1
   5  -1  11 217.824 84.4354  10
   5  -1  11-35.0443 105.111  19
   5  -1  11 121.185 132.006  18
  -5  -1 -11 117.462 76.8289  23
  -5   1 -11-52.9315 69.5225  12
   5   1  11 29.6515 51.7597   7
   5   1  11-91.5866 118.132  22
  -5  -1 -12 1344.25 376.249   1
   5  -1  12 673.753 120.816  10
   5  -1  12 882.208 299.641  18
  -5  -1 -12 762.652 108.991  23
  -5   1 -12 719.743 110.845  12
   5   1  12 773.676 85.8949   7
   5   1  12 799.039 246.760  22
  -5  -1 -13 627.192 250.652   1
   5  -1  13 717.381 112.906  10
   5  -1  13 299.994 162.942  18
  -5  -1 -13 709.387 127.804  23
  -5   1 -13 633.538 101.646  23
  -5   1 -13 665.060 115.900  12
   5   1  13 740.098 105.877   7
   5  -1  13 870.003 118.870   7
   5  -1  14 875.996 124.552  10
  -5  -1 -14 814.307 134.923  23
  -5   1 -14 909.874 132.857  23
  -5   1 -14 1079.92 147.037  12
   5   1  14 776.796 113.783   7
   5  -1  14 760.810 113.587   7
   5  -1  15 7940.14 364.555  10
   5   1  15 7805.84 344.062   7
   5  -1  15 8094.79 357.820   7
  -5  -1 -15 8033.29 384.523  23
  -5   1 -15 7396.25 345.316  23
   5  -1  16 3585.64 245.694  10
   5   1  16 3973.30 235.748   7
   5  -1  16 3636.32 245.941   7
  -5  -1 -16 4140.74 276.228  23
  -5   1 -16 3558.77 235.980  23
   5   1  17 2512.83 199.446   7
   5  -1  17 2313.53 203.724   7
  -5  -1 -17 2466.55 216.747  23
  -5   1 -17 2524.96 211.670  23
   5   1  18 1257.44 137.439   7
   5  -1  18 1414.43 159.286   7
  -5  -1 -18 1297.81 168.889  23
  -5   1 -18 1390.66 156.649  23
   5   1  19 5285.31 270.283   7
   5  -1  19 4620.10 282.272   7
  -5  -1 -19 5482.24 316.417  23
  -5   1 -19 4720.13 282.948  23
  -5  -1 -20 272.841 97.7819  23
  -5   1 -20 321.487 89.6243  23
   5   1  20 255.079 79.6513   7
   5  -1  20 396.885 98.9589   7
  -5  -1 -21 881.298 140.152  23
  -5   1 -21 570.468 102.993  23
   5   1  21 750.543 110.260   7
   5  -1  21 720.934 115.251   7
   5   1  22 4736.97 237.733   7
   5  -1  22 5086.80 264.201   7
  -5  -1 -22 5237.14 282.839  23
  -5   1 -22 5028.23 270.806  23
   5   1  23 2995.97 184.642   7
   5  -1  23 2686.35 195.331   7
  -5  -1 -23 2969.92 209.466  23
  -5   1 -23 2825.48 210.544  23
  -5  -1 -24 243.347 67.7734  23
  -5   1 -24 151.112 65.9348  23
   5   1  24 164.361 57.0451   7
   5  -1  24 261.170 72.4319   7
   5   1  24 148.989 52.1786  13
  -5  -1 -25 214.375 64.5698  23
  -5   1 -25 288.634 78.1363  23
   5   1  25 284.999 58.1136   7
   5  -1  25 247.413 68.6301   7
   5   1  25 210.893 48.5467  13
   5   1  26 1723.96 112.985   7
   5  -1  26 1808.82 131.943   7
   5   1  26 1653.36 99.1835  13
  -5   1 -26 2010.72 143.601  23
  -5  -1 -26 1827.90 141.345  23
   5   1  27 50.3115 31.5065   7
  -5  -1 -27 49.8174 42.3229  23
  -5   1 -27 137.018 49.2512  23
   5  -1  27 73.3897 38.5189   7
  -5   2  29 71.5202 36.1944   9
  -5   2  29 16.9073 30.7738  13
   5  -2 -28 565.301 75.5158   6
  -5   2  28 459.267 67.0060   9
  -5   2  28 375.616 59.0799  13
   5  -2 -27 32.9392 44.4612   6
  -5   2  27 21.4007 46.0387   9
  -5   2  27 70.5749 48.0852  13
   5  -2 -26 5681.68 256.888   6
  -5   2  26 5464.43 245.450   9
  -5   2  26 4989.49 237.037  13
   5  -2 -25 1101.00 125.350   6
  -5   2  25 1000.28 121.742   9
  -5   2  25 1013.62 116.301  13
   5  -2 -24 735.170 111.463   6
  -5   2  24 745.551 111.218   9
  -5   2  24 756.354 108.559  13
   5  -2 -23 1638.58 170.474   6
  -5   2  23 1887.25 175.535   9
  -5   2  23 1572.51 153.356  13
   5  -2 -22 88.9463 64.4244   6
  -5   2  22 131.494 80.1287   9
  -5   2  22 179.630 80.7422  13
   5  -2 -21 736.766 129.721   6
  -5   2  21 570.265 106.375  13
   5  -2 -20 1660.56 173.934   6
  -5   2  20 1190.93 145.216  13
   5  -2 -19 1041.89 145.884   6
  -5   2  19 1130.35 148.113  13
   5  -2 -18 472.900 110.090   6
  -5   2  18 522.622 108.907  13
   5  -2 -17 3082.95 250.136   6
  -5   2  17 3433.59 235.068  13
   5  -2 -16 1558.03 185.132   6
  -5  -2  16 1647.87 166.047   9
  -5   2  16 1699.32 169.542  13
   5  -2 -15 3047.47 237.075   6
  -5  -2  15 3360.01 229.687   9
  -5   2  15 3544.22 229.498  13
   5  -2 -14 7566.51 360.485   6
  -5  -2  14 7673.46 350.901   9
  -5   2  14 7629.26 331.876  13
   5  -2 -13 120.057 62.9608   6
  -5  -2  13 131.397 69.3034   9
   5  -2 -12 2406.48 198.179   6
  -5  -2  12 2941.97 217.011   9
   5  -2 -12 2319.66 449.727  19
  -5   2  12 2514.26 418.740   2
   5  -2 -11 4870.24 279.736   6
   5  -2 -11 5297.34 662.309  19
  -5  -2  11 5451.80 291.538   9
  -5   2  11 5861.50 616.557   2
   5  -2 -10 207.786 74.1218   6
   5  -2 -10 80.0281 151.039  19
  -5   2  10 166.423 112.037   2
   5  -2  -9 256.392 94.4000   6
   5  -2  -9 481.528 206.796  19
  -5   2   9 205.440 99.2955   2
   5   2  -9 234.000 112.390  22
  -5   2   8 243.120 138.668  21
   5  -2  -8 121.468 64.8348   6
   5  -2  -8 384.733 256.574  19
  -5   2   8 155.457 119.063   2
  -5   2   8 199.171 72.0812   9
   5   2  -8 170.018 136.439  22
  -5   2   7 105.239 135.800  21
   5  -2  -7 628.391 328.587  19
  -5  -2   7 151.363 149.243   1
  -5   2   7 396.595 229.210   2
   5   2  -7 314.310 128.712  22
   5  -2  -6 43457.3 1858.49  19
  -5  -2   6 44210.3 1880.62   1
   5   2  -6 41866.9 1541.20  22
  -5   2   6 42427.8 1766.25  21
   5   2  -5 36276.5 1437.99  22
   5  -2  -5 36943.7 1703.00  19
  -5  -2   5 38282.4 1753.90   1
  -5   2   5 36410.5 1658.43  21
   5  -2  -4 18772.8 1205.36  19
  -5  -2   4 19161.6 1239.07   1
   5   2  -4 18624.3 1024.81  22
  -5   2   4 18147.9 1163.59  21
   5  -2  -3 73664.2 2493.75  19
  -5  -2   3 80784.0 2639.99   1
   5   2  -3 76317.0 2202.61  22
  -5   2   3 73170.0 2505.67  21
   5  -2  -2 9789.80 881.548  19
  -5  -2   2 8795.99 864.415   1
   5   2  -2 8205.10 693.118  22
  -5   2   2 9237.22 859.117  21
   5  -2  -1 11375.3 951.742  19
  -5  -2   1 12630.0 1001.38   1
   5   2  -1 12528.4 836.308  22
  -5   2   1 11254.3 958.982  21
   5  -2   0 91477.0 2833.00  19
  -5  -2   0 94934.8 2950.65   1
   5   2   0 95559.3 2523.59  22
   5  -2   1 5041.41 641.547  19
  -5  -2  -1 4785.75 655.736   1
   5   2   1 4171.83 497.335  22
  -5   2  -1 4213.17 548.894  21
   5  -2   2 5060.41 618.942  19
  -5  -2  -2 5610.86 680.571   1
   5   2   2 5836.08 572.567  22
  -5   2  -2 5519.41 641.493  21
  -5   2  -3 872.453 314.631  21
   5  -2   3 1039.51 291.012  19
  -5  -2  -3 1285.56 332.577   1
   5   2   3 705.719 224.707  22
  -5   2  -4 1498.11 318.885  21
   5  -2   4 1416.53 142.657  10
   5  -2   4 1423.11 289.369  19
   5  -2   4 1254.74 132.648  17
   5  -2   4 1301.76 128.470  16
  -5  -2  -4 1233.98 378.475   1
   5   2   4 1069.35 260.076  22
  -5   2  -5 247.755 187.332  21
   5  -2   5 50.7971 51.3299  10
   5  -2   5 13.7062 110.125  19
   5  -2   5 61.9607 73.0690  17
   5  -2   5 36.6137 41.7593  16
  -5  -2  -5-53.7971 149.582   1
   5   2   5 68.8701 85.0667  22
  -5   2  -6 433.089 215.976  21
   5  -2   6 356.176 80.2283  10
   5  -2   6 309.117 181.521  19
   5  -2   6 345.938 164.298  18
  -5  -2  -6 141.943 123.203   1
   5  -2   6 319.663 72.3369  16
   5   2   6 401.975 121.547  22
  -5   2  -7 143.712 186.564  21
   5  -2   7 176.814 78.1159  10
   5  -2   7 124.887 133.309  19
   5  -2   7-111.474 89.4569  18
  -5  -2  -7-70.9962 163.602   1
   5  -2   7 83.9058 54.4535  16
   5   2   7 217.308 162.019  22
  -5   2  -8 235.634 154.653  21
   5  -2   8 221.460 83.8491  10
   5  -2   8 85.0161 115.227  19
  -5  -2  -8-85.7928 139.772   1
   5  -2   8 55.3192 183.947  18
  -5  -2  -8 319.731 78.3276  23
  -5   2  -8 188.282 67.2625  12
   5   2   8 172.178 142.242  22
   5  -2   9 4284.13 261.974  10
   5  -2   9 4649.76 629.726  19
  -5  -2  -9 4346.53 637.750   1
   5  -2   9 3398.09 484.514  18
  -5  -2  -9 4224.05 255.968  23
   5   2   9 5120.84 554.789  22
  -5   2  -9 4694.42 278.457  12
  -5   2  -9 4097.11 582.570  21
   5  -2  10 3978.54 257.547  10
  -5  -2 -10 5042.63 687.871   1
  -5  -2 -10 4710.93 273.191  23
  -5   2 -10 4345.05 270.498  12
   5  -2  11 20764.3 635.978  10
  -5  -2 -11 21330.3 638.333  23
  -5   2 -11 22258.7 633.583  12
   5  -2  12 90436.8 1681.64  10
   5  -2  12 90886.1 1636.42   7
  -5  -2 -12 89646.9 1672.08  23
  -5   2 -12 95049.0 1657.93  12
   5  -2  13 616.783 133.337  10
  -5  -2 -13 562.079 146.841  23
  -5   2 -13 803.029 129.996  12
   5  -2  13 737.368 141.964   7
   5  -2  14 23033.7 670.422  10
   5  -2  14 21834.7 624.454   7
  -5  -2 -14 22586.2 685.869  23
  -5   2 -14 21223.6 600.495  23
   5  -2  15 1137.29 151.114  10
   5  -2  15 1056.47 135.215  15
  -5  -2 -15 1067.00 150.617  23
  -5   2 -15 1127.04 138.404  23
   5  -2  15 1032.57 133.762   7
   5  -2  16 4878.23 261.933  15
   5  -2  16 4684.12 272.588   7
  -5  -2 -16 5089.56 301.916  23
  -5   2 -16 4464.20 258.287  23
   5  -2  17 1757.31 165.334   7
  -5  -2 -17 1560.76 169.362  23
  -5   2 -17 1737.69 165.210  23
   5  -2  18 4139.06 246.763   7
  -5  -2 -18 3758.16 260.025  23
  -5   2 -18 4295.89 249.995  23
   5  -2  19 1014.82 132.775   7
  -5   2 -19 1174.40 142.765  23
   5  -2  20 7929.18 335.775   7
  -5  -2 -20 8039.50 356.068  23
  -5   2 -20 8200.20 341.135  23
  -5  -2 -21 811.718 117.907  23
  -5   2 -21 795.543 117.808  23
   5  -2  21 835.796 118.256   7
  -5  -2 -22 133.070 66.4360  23
  -5   2 -22 167.355 64.8337  23
   5  -2  22 81.5907 50.5059   7
  -5  -2 -23 153.692 71.8944  23
  -5   2 -23 109.740 52.7666  23
   5  -2  23 244.256 70.6774   7
   5  -2  24 837.173 97.4238   7
   5   2  24 885.005 90.3461  13
  -5   2 -24 1095.25 113.485  23
  -5  -2 -24 1001.38 111.669  23
  -5  -2 -25 136.723 55.7472  23
  -5   2 -25 195.001 56.2832  23
   5  -2  25 121.457 47.5612   7
   5   2  25 135.822 45.2131  13
   5  -2  26 767.672 75.4603   7
   5   2  26 794.374 70.3154  13
  -5  -2 -26 885.119 86.2050  23
  -5   2 -26 865.463 83.8684  23
   5  -3 -27 731.476 70.7585   6
  -5   3  27 621.893 68.3023   9
   5  -3 -26 145.258 44.8231   6
  -5   3  26 159.334 43.1328   9
   5  -3 -25 99.2067 52.2426   6
  -5   3  25 187.445 60.1794   9
   5  -3 -24 162.260 61.8534   6
  -5   3  24 186.784 65.6609   9
   5  -3 -23 358.228 90.9134   6
  -5   3  23 233.252 72.0515   9
   5  -3 -22 1642.32 151.307   6
  -5   3  22 1580.83 154.845   9
   5  -3 -21 3608.90 228.976   6
   5  -3 -20 7511.54 342.476   6
   5  -3 -19 510.704 109.760   6
   5  -3 -18 2329.51 206.023   6
   5  -3 -18 2195.47 162.418  17
   5  -3 -17 7850.34 373.561   6
   5  -3 -17 6978.16 305.213  17
   5  -3 -16 1567.66 183.085   6
   5  -3 -16 1648.32 152.205  17
   5  -3 -15 1795.90 183.555   6
   5  -3 -15 2183.75 178.180  17
   5  -3 -14 558.628 113.267   6
   5  -3 -14 482.512 88.9493  17
   5  -3 -13 751.468 143.103   6
   5  -3 -13 734.631 120.269  17
   5  -3 -12 4643.17 287.825   6
   5  -3 -12 4702.68 266.103  17
   5  -3 -11 14796.6 529.782   6
   5  -3 -11 15232.9 501.901  17
  -5   3  11 14489.4 497.762  14
   5  -3 -10 42693.1 989.233   6
   5  -3 -10 43287.5 951.381  17
  -5   3  10 42465.8 959.551  14
   5  -3  -9 29397.5 779.120   6
   5  -3  -9 29457.8 747.616  17
  -5   3   9 29859.1 761.413  14
   5  -3  -8 1640.67 199.468   6
  -5   3   8 1360.10 167.062   9
   5  -3  -8 1766.82 196.345  17
  -5   3   8 1663.11 206.803  14
   5  -3  -7 11276.8 450.520   6
   5  -3  -7 12235.1 451.001  17
  -5   3   7 10711.5 426.371  14
   5  -3  -6 36733.7 880.268   6
   5  -3  -6 41125.3 1794.38  19
   5  -3  -6 37990.8 870.003  17
  -5   3   6 36276.3 852.222  14
  -5  -3   6 41028.3 1810.12   1
  -5   3   6 36328.2 1705.99  21
   5  -3  -5 4199.06 267.966   6
   5  -3  -5 4837.01 618.899  19
   5  -3  -5 4844.02 289.901  17
  -5  -3   5 3572.32 540.521   1
  -5   3   5 3777.36 551.857  21
   5  -3  -4 7654.43 343.313   6
   5  -3  -4 8428.50 793.506  19
  -5   3   4 7863.63 796.080  21
   5  -3  -4 8184.80 353.950  17
  -5  -3   4 8446.53 798.118   1
   5  -3  -3 4751.01 585.859  19
   5  -3  -3 3932.62 255.862  17
   5  -3  -3 4461.78 243.760  16
  -5  -3   3 4144.15 546.313   1
  -5   3   3 4188.98 608.763  21
   5  -3  -3 4047.81 259.929   6
   5  -3  -2 7305.66 317.528  10
   5  -3  -2 7669.24 754.819  19
   5  -3  -2 7305.12 331.291  17
   5  -3  -2 7046.67 307.931  16
  -5  -3   2 7887.84 806.758   1
   5  -3  -2 7174.21 326.757   6
  -5   3   2 7749.98 810.861  21
  -5   3   1 181.823 207.738  21
   5  -3  -1 266.866 92.4469   6
   5  -3  -1 426.000 90.7544  10
   5  -3  -1 118.242 172.754  19
   5  -3  -1 422.265 98.5735  17
  -5  -3   1 217.054 160.151   1
   5   3  -1 167.829 88.4462  22
   5  -3   0 5745.18 283.946  10
   5  -3   0 5826.81 660.876  19
   5  -3   0 5604.38 290.382  17
   5  -3   0 5230.16 259.684  16
  -5  -3   0 6496.22 728.109   1
   5   3   0 6813.67 584.222  22
  -5   3   0 5576.44 684.014  21
   5  -3   1 5802.74 293.156  10
   5  -3   1 6024.78 674.199  19
   5  -3   1 6003.70 303.822  17
  -5  -3  -1 6717.01 756.706   1
   5  -3   1 5523.04 275.724  16
   5   3   1 5483.96 519.811  22
  -5   3  -1 6241.06 727.160  21
   5  -3   2 5709.71 292.139  11
   5  -3   2 5755.29 291.825  10
   5  -3   2 6123.61 691.545  19
   5  -3   2 5579.35 293.055  17
  -5  -3  -2 6182.06 769.847   1
   5  -3   2 5274.53 264.385  16
   5   3   2 5546.34 536.941  22
   5  -3   3 766.578 125.119  11
   5  -3   3 670.889 114.669  10
   5  -3   3 716.622 112.347  16
   5  -3   4 1463.12 159.441  10
   5  -3   4 1485.97 146.825  16
   5  -3   5 3241.20 227.995  10
   5  -3   5 2746.34 197.762  16
  -5  -3  -5 3350.00 219.471  23
   5  -3   6 6610.29 322.419  10
  -5  -3  -6 6853.55 317.497  23
   5  -3   7 160.655 71.3119  10
  -5  -3  -7 291.147 88.5672  23
   5  -3   8 56.5558 58.9422  10
  -5  -3  -8 163.449 76.7191  23
   5  -3   9 158.441 74.4269  10
  -5  -3  -9 266.562 94.2063  23
   5  -3  10-39.0322 62.9813  10
  -5  -3 -10 107.455 61.1676  23
   5  -3  10 74.3913 53.4793   7
  -5   3 -10-83.8733 65.8466  12
   5  -3  11 1943.18 187.130  10
   5  -3  11 2013.24 167.822   7
  -5   3 -11 2038.74 188.577  12
  -5  -3 -11 1761.16 177.859  23
   5  -3  12 14249.9 512.586  10
   5  -3  12 14951.5 466.381   7
  -5  -3 -12 14783.9 516.065  23
  -5   3 -12 14189.3 480.718  12
   5  -3  13 4433.27 283.153  10
   5  -3  13 4775.51 252.452   7
  -5  -3 -13 5050.22 294.159  23
   5  -3  14 4543.10 282.254  15
   5  -3  14 5013.04 254.532   7
  -5  -3 -14 5227.19 295.732  23
  -5   3 -14 4470.28 233.430  23
   5  -3  15 1926.42 180.556  15
   5  -3  15 1869.79 157.637   7
  -5  -3 -15 1983.36 191.487  23
  -5   3 -15 1788.82 156.898  23
   5  -3  16 9291.81 380.911  15
   5  -3  16 9504.61 346.509   7
  -5  -3 -16 10151.8 409.335  23
  -5   3 -16 8980.80 348.498  23
   5  -3  17 18891.4 547.754  15
   5  -3  17 18452.4 502.300   7
  -5  -3 -17 18637.4 567.098  23
  -5   3 -17 18301.5 517.459  23
   5  -3  18 21585.9 572.488  15
   5  -3  18 21722.0 542.100   7
  -5  -3 -18 21157.5 605.906  23
  -5   3 -18 21521.7 559.092  23
   5  -3  19 7878.72 303.782  15
   5  -3  19 7947.89 293.008   7
  -5  -3 -19 8515.36 346.136  23
  -5   3 -19 8267.58 315.608  23
   5  -3  20 12290.8 361.684  15
   5  -3  20 12244.5 358.673   7
  -5   3 -20 12233.7 384.764  23
   5   3  21 2883.80 136.678   8
   5  -3  21 2633.23 147.915   7
  -5  -3 -21 2797.83 180.327  23
  -5   3 -21 2802.78 172.176  23
   5  -3  22 1586.30 105.644   7
  -5  -3 -22 1701.86 137.626  23
  -5   3 -22 1744.90 126.195  23
   5  -3  23 1184.46 83.8683   7
   5   3  23 1512.27 105.703  13
  -5  -3 -23 1457.43 116.469  23
  -5   3 -23 1127.14 95.8627  23
   5   3  24 663.985 68.2038  13
  -5  -3 -24 547.669 72.8640  23
  -5   3 -24 651.325 67.2173  23
   5  -4 -23 203.164 50.7931   6
  -5   4  23 160.252 42.3739   9
   5  -4 -22 200.135 50.8474   6
  -5   4  22 196.357 56.3978   9
   5  -4 -21 221.453 62.3114   6
  -5   4  21 252.250 65.2305   9
   5  -4 -20 145.005 54.0524   6
  -5   4  20 256.849 69.0600   9
   5  -4 -19 522.352 84.4873   6
  -5   4  19 591.917 92.0579   9
  -5   4  18 1523.28 136.946   9
   5  -4 -18 1631.73 150.450   6
   5  -4 -17 563.084 99.5309   6
   5  -4 -16 73.8458 71.3258   6
   5  -4 -15 596.894 111.917   6
   5  -4 -14 805.836 128.690   6
   5  -4 -13 937.748 134.816   6
   5  -4 -13 653.336 92.0142  16
   5  -4 -12 493.489 106.316   6
  -5   4  12 460.633 83.4115   9
   5  -4 -12 448.689 79.2447  17
   5  -4 -12 434.871 78.1702  16
  -5   4  12 697.187 117.305  14
  -5   4  11 1611.53 152.263   9
   5  -4 -11 1745.58 171.808  17
   5  -4 -11 2521.17 205.448  16
  -5   4  11 2048.48 202.786  14
   5  -4 -11 2195.70 238.670   6
   5  -4 -10 53380.9 1045.15  17
  -5   4  10 54428.0 1096.41  14
   5  -4 -10 53232.4 1131.06   6
   5  -4  -9 2713.66 207.756  17
   5  -4  -9 3288.13 208.876  16
  -5   4   9 2589.04 218.547  14
   5  -4  -9 2524.29 229.950   6
  -5   4   8 2097.92 198.544   5
   5  -4  -8 2402.94 187.562  17
   5  -4  -8 2428.10 182.246  16
  -5   4   8 2216.63 193.260  14
   5  -4  -8 2217.20 203.865   6
  -5   4   7 6725.55 353.001   5
   5  -4  -7 6862.95 313.445  17
   5  -4  -7 6672.83 289.335  16
  -5   4   7 6682.76 323.698  14
   5  -4  -7 7153.97 349.532   6
  -5   4   6 3935.80 266.568   5
   5  -4  -6 3928.92 236.683  17
   5  -4  -6 3799.76 226.756  16
  -5   4   6 4041.64 248.245  14
   5  -4  -6 4376.77 272.436   6
  -5   4   5 471.434 117.546   5
   5  -4  -5 369.933 91.2681   6
   5  -4  -4 1371.96 129.900  16
   5  -4  -3 530.958 91.3936  16
   5  -4  -2 133.274 92.5614  11
   5  -4  -2 184.965 97.8790  16
   5  -4  -1 1572.96 168.203  11
   5  -4  -1 1546.56 138.787  16
   5  -4   0 99.7797 59.4381  11
   5  -4   0 215.098 75.6760  10
   5  -4   0 164.632 86.2797  16
   5  -4   1 1148.94 143.285  11
   5  -4   1 1390.17 131.946  10
   5  -4   1 1120.72 123.094  16
   5  -4   2 476.166 98.6044  11
   5  -4   2 488.561 91.7628  10
   5  -4   3 356.563 92.4586  11
   5  -4   3 330.067 79.8259  10
   5  -4   4 410.917 105.004  11
   5  -4   4 375.297 95.0655  10
   5  -4   5 4993.64 273.989  11
   5  -4   5 5277.81 271.711  10
   5  -4   6 1456.10 154.342  11
   5  -4   6 1657.18 158.955  10
   5  -4   7 3619.84 224.624  11
   5  -4   7 3796.50 230.924  10
   5  -4   8 1144.10 124.735  11
   5  -4   8 1163.37 132.032  10
   5  -4   9 728.756 107.166  10
  -5   4 -10 288.624 78.6056  12
  -5   4 -11 1125.06 127.112  12
   5  -4  12 366.328 85.6093  15
   5  -4  13 409.386 98.5583  15
   5  -4  14 58.3737 58.0408  15
   5  -4  15 214.612 77.5298  15
   5  -4  16 14304.3 444.026  15
   5  -4  17 1090.07 116.293  15
   5  -4  18 387.637 70.3819  15
  -5   4 -18 359.336 60.9699  23
   5  -4  19 3258.67 164.054  15
  -5   4 -19 3400.26 144.705  23
   5   4  20 795.570 67.6649   8
   5   4  20 763.925 72.6238  13
   5   4  21 1732.43 84.9905   8
   5   4  21 2000.60 101.780  13
   5  -5 -18 3191.49 150.454  11
   5  -5 -17 617.112 72.6910  11
   5  -5 -16 499.154 71.9608  11
   5  -5 -15 40.7689 43.0904  11
   5  -5 -14 146.201 59.3935  11
   5  -5 -13-17.6119 57.6212  11
   5  -5 -12 61.2371 47.7016  11
   5  -5 -11 821.656 117.434  11
   5  -5 -10 9235.68 362.759  11
   5  -5  -9 554.499 104.298  11
   5  -5  -8 1543.44 147.726  11
   5  -5  -7 1398.33 146.663  11
   5  -5  -6 486.057 95.0778  11
   5  -5  -5 226.682 97.6370  11
   5  -5  -4 5746.23 288.997  11
   5  -5  -3 1345.05 151.781  11
   5  -5  -2 217.293 82.2585  11
   5  -5  -1 98.6419 60.6111  11
   5  -5   0 1422.00 142.300  11
   5  -5   1 626.075 111.735  11
   5  -5   2 12914.2 439.797  11
   5  -5   3 4237.69 239.161  11
   5  -5   4 9427.28 347.697  11
   5  -5   5 226.371 65.6612  11
   5  -5   6 1111.03 113.981  11
   5  -5   6 1332.67 140.629  15
   5  -5   7 152.494 61.7105  11
   5  -5   7 51.5649 61.3093  15
   5  -5   8 1041.42 120.584  15
  -5   5  -8 1012.25 103.657  12
   5  -5   8 1016.60 100.067  11
   5  -5   9 653.506 86.7224  11
   5  -5   9 574.209 93.6954  15
  -5   5  -9 732.432 83.5320  12
   5  -5  10 2600.55 177.779  15
   5  -5  10 2482.19 142.061  11
   5  -5  11 552.050 64.6206  11
   5  -5  11 609.044 86.1807  15
   5  -5  12 1296.02 118.775  15
   5  -5  13 255.050 64.0884  15
   5  -5  14 3650.71 175.970  15
   5  -5  15 3486.04 161.802  15
   5  -6  -7 2419.78 134.813  11
   5  -6  -6 11964.5 319.187  11
   5  -6  -5 427.053 75.1673  11
   5  -6  -4 162.205 46.0489  11
   5  -6  -3 127.264 41.2583  11
   5  -6  -2 585.376 70.7989  11
   5  -6  -1 83.3957 40.2397  11
   5  -6   0 1184.66 97.8860  11
   5  -6   1 5288.62 196.583  11
   5  -6   2 869.301 85.9773  11
  -5   6  -3 3049.50 134.760  12
   5  -6   3 3096.24 141.684  11
  -5   6  -4 583.087 57.5838  12
   5  -6   4 644.677 66.2765  11
   5  -6   5 108.119 36.3105  11
   6   0 -28 296.791 54.0572   6
   6   0 -27 72.9033 44.6141   6
  -6   0  26 896.513 84.7868   9
  -6   0  25 209.846 60.0619   9
  -6   0  24 4034.00 215.764   9
  -6   0  23 135.877 60.1842   9
  -6   0  23 68.7255 60.2571  13
  -6   0  22 12.2772 49.1922   9
  -6   0  22 79.7641 63.9677  13
  -6   0  21-58.9514 72.1777   9
  -6   0  21 197.357 94.1512  13
  -6   0  20 607.436 106.470   9
  -6   0  20 674.265 116.556  13
  -6   0  19-62.5760 57.6589   9
  -6   0  19 78.5111 64.7131  13
  -6   0  18 2563.60 214.617   9
  -6   0  18 2879.05 230.679  13
  -6   0  17 345.696 108.927   9
  -6   0  17 311.974 121.050  13
  -6   0  16 17446.0 585.563   9
  -6   0  16 16801.0 579.608  13
  -6   0  15 667.798 146.499   9
  -6   0  15 821.633 169.391  13
  -6   0  14 9392.50 421.674   9
  -6   0  13 268.546 109.861   9
  -6   0  12 1842.26 187.941   9
  -6   0  11 104.384 81.1820   9
  -6   0  10 12106.9 464.834   9
   6   0  -9 524.539 264.065  19
  -6   0   9 545.994 140.759   9
   6   0  -8 6925.75 755.622  19
  -6   0   8 6672.47 341.251   9
   6   0  -7-63.8118 123.795  19
  -6   0   7 331.680 115.613   9
   6   0  -6 5342.59 661.229  19
  -6   0   6 4573.82 287.783   9
  -6   0   5 977.213 176.042   9
   6   0  -5 952.663 421.360  19
  -6   0   5 988.551 177.901  12
   6   0  -4 86774.1 2745.48  19
  -6   0   4 88487.4 1623.79   9
  -6   0   4 91385.7 1603.22  12
  -6   0   3 1834.98 194.308   9
  -6   0   3 2421.01 535.252   1
  -6   0   3 2195.38 256.420  12
  -6   0   2 1147.32 343.114   1
   6   0  -2 729.171 217.230  19
  -6   0   2 675.504 116.145   9
  -6   0   2 696.908 137.347  12
  -6   0   1 298.612 96.8133   9
  -6   0   1 283.459 189.999   1
  -6   0   1 135.072 101.270  12
   6   0   0 4513.59 589.114  19
  -6   0   0 4437.35 560.025   1
  -6   0   0 4639.76 271.227  12
  -6   0  -1 639.276 203.186   1
   6   0   1 381.310 244.794  19
  -6   0  -1 901.243 163.384  12
   6   0   1 209.107 109.492  22
   6   0   2 32309.1 1550.58  19
  -6   0  -2 32438.8 1573.71   1
  -6   0  -2 32037.9 811.331  12
   6   0   2 33275.9 1523.04  22
   6   0   3 153.673 131.083  19
  -6   0  -3 288.205 203.411   1
   6   0   3 200.409 131.113  22
   6   0   4 454.990 89.2691  10
   6   0   4 399.587 140.789  19
  -6   0  -4 956.109 281.483   1
  -6   0  -4 561.957 127.239  12
   6   0   4 828.270 279.577  22
   6   0   5 12.7668 52.3037  10
   6   0   5 200.402 217.844  19
  -6   0  -5-218.981 230.812   1
  -6   0  -5 178.150 94.2606  12
   6   0   5 127.102 134.067  22
   6   0   6 1251.87 135.894  10
  -6   0  -6 1131.62 266.749   1
   6   0   6 1268.72 308.894  19
  -6   0  -6 1487.44 167.349  12
   6   0   6 1529.55 302.647  22
   6   0   7 543.562 108.050  10
  -6   0  -7 450.625 143.470  12
   6   0   8 10216.3 387.012  10
  -6   0  -8 11043.9 455.405  12
   6   0   9 124.930 52.9034  10
   6   0  10 2687.41 192.300  10
   6   0  11 80.7203 49.9792  10
   6   0  11 101.166 64.4017   7
   6   0  12 2821.71 196.775  10
   6   0  12 2708.12 199.885   7
   6   0  13-42.4729 53.0116  10
   6   0  13-109.920 63.9122   7
   6   0  14 219.238 60.6465  10
   6   0  14 276.624 72.9021   7
  -6   0 -15 89.8731 61.3780  23
   6   0  15 12.9003 57.0431   7
  -6   0 -16 63.1797 48.5399  23
   6   0  16 129.225 69.9795   7
  -6   0 -17 15.5720 49.0061  23
   6   0  17 93.5542 57.7690   7
   6   0  18 1669.57 152.055   7
  -6   0 -18 1562.78 151.237  23
  -6   0 -19 41.7396 57.1437  23
   6   0  19 77.0594 49.0041   7
   6   0  20 11630.1 380.610   7
  -6   0 -20 10269.4 367.107  23
  -6   0 -21 271.951 66.4932  23
   6   0  21 286.648 82.0866   7
   6   0  22 21944.2 525.138   7
  -6   0 -22 21116.1 518.843  23
  -6   0 -23 58.2707 42.5324  23
   6   0  23 42.6365 38.6647   7
  -6   0 -24 6.58268 36.9584  23
   6   0  24 30.4387 38.4480   7
  -6   0 -25-34.1839 31.4823  23
   6   0  25-52.0547 32.3494   7
   6  -1 -28 2722.50 135.241   6
   6  -1 -27 5091.16 205.091   6
  -6   1  27 4529.05 181.320   9
   6  -1 -26 551.132 84.3592   6
  -6   1  26 321.304 69.8665   9
   6  -1 -25 1773.10 141.594   6
  -6   1  25 1614.01 131.941   9
   6  -1 -24 4466.31 231.114   6
  -6   1  24 4256.24 220.658   9
  -6   1  24 4136.27 224.262  13
   6  -1 -23 117.271 62.7915   6
  -6   1  23 115.338 60.0915   9
  -6   1  23 41.1920 51.1158  13
   6  -1 -22 1199.54 138.439   6
  -6  -1  22 1226.23 120.758   9
  -6   1  22 1244.09 137.827   9
  -6   1  22 1110.24 126.813  13
   6  -1 -21 63.5724 63.0036   6
  -6  -1  21 174.224 70.1937   9
  -6   1  21 131.692 87.3673   9
  -6   1  21 162.235 81.5874  13
   6  -1 -20 671.227 120.910   6
  -6  -1  20 658.985 119.583   9
  -6   1  20 719.477 118.989   9
  -6   1  20 631.710 114.415  13
   6  -1 -19 548.980 113.256   6
  -6  -1  19 629.423 108.721   9
  -6   1  19 674.973 118.187   9
  -6   1  19 613.936 118.970  13
   6  -1 -18 186.136 82.5677   6
  -6  -1  18 45.2552 74.9115   9
  -6   1  18 157.341 89.4873   9
  -6   1  18 98.7672 80.2420  13
   6  -1 -17 407.391 102.787   6
  -6  -1  17 522.010 96.8846   9
  -6   1  17 556.323 116.988   9
  -6   1  17 495.975 105.648  13
   6  -1 -16 4383.66 269.887   6
  -6  -1  16 4307.38 270.158   9
  -6   1  16 4355.64 277.029   9
  -6   1  16 4056.67 257.518  13
   6  -1 -15 1108.98 146.909   6
  -6  -1  15 1383.17 177.359   9
  -6   1  15 1444.77 176.550   9
  -6   1  15 1502.14 165.953  13
   6  -1 -14 571.284 109.454   6
  -6  -1  14 655.908 130.312   9
  -6   1  14 702.514 135.280   9
  -6   1  14 620.706 121.170  13
   6  -1 -13 2697.42 213.827   6
  -6  -1  13 3067.34 240.790   9
  -6   1  13 2449.11 216.669   9
  -6   1  13 2899.20 222.442  13
   6  -1 -12 4694.56 264.950   6
  -6  -1  12 5637.86 314.888   9
  -6   1  12 5167.76 303.317   9
   6  -1 -11 266.257 68.8988   6
  -6  -1  11 439.849 114.550   9
  -6   1  11 469.930 110.495   9
   6  -1 -10 313.770 72.4998   6
  -6  -1  10 553.550 111.924   9
  -6   1  10 468.796 107.187   9
   6  -1  -9 908.762 120.024   6
  -6  -1   9 690.038 123.799   9
  -6   1   9 667.279 114.425   9
   6   1  -8 799.307 250.702  19
  -6  -1   8 962.255 132.836   9
  -6   1   8 684.013 116.425   9
  -6   1   8 1160.94 269.719   2
   6  -1  -7 1598.51 377.293  19
   6   1  -7 1118.04 278.079  19
  -6  -1   7 1312.26 161.236   9
  -6   1   7 1085.29 146.449   9
  -6   1   7 971.401 226.083   2
  -6   1   7 1441.16 144.517  12
   6  -1  -6 76.1718 107.627  19
   6   1  -6-23.4058 196.025  19
  -6  -1   6 204.664 78.7658   9
  -6   1   6 250.974 87.2865   9
  -6   1   6 464.417 189.862   2
  -6   1   6 334.555 95.9642  12
  -6  -1   5 3015.08 528.024   1
   6  -1  -5 3536.16 542.520  19
  -6  -1   5 3429.35 256.902   9
  -6   1   5 3871.52 254.265   9
   6   1  -5 3106.03 459.174  19
  -6   1   5 3801.21 251.732  12
  -6   1   5 3238.60 432.855   2
   6  -1  -4 18487.2 1200.48  19
  -6   1   4 18180.6 555.343   9
  -6  -1   4 19714.3 1274.00   1
  -6   1   4 19425.2 583.849  12
  -6   1   4 19327.6 1044.87   2
   6  -1  -3 15810.8 1132.51  19
  -6   1   3 15644.9 496.268   9
  -6  -1   3 14561.8 1119.21   1
  -6   1   3 14781.8 512.007  12
  -6   1   3 15689.4 926.692   2
   6   1  -3 15237.3 1015.91  22
   6  -1  -2 4910.11 676.855  19
  -6   1   2 3487.45 248.799   9
   6  -1  -2 4570.68 262.289  17
  -6  -1   2 4090.66 636.774   1
  -6   1   2 4905.01 291.687  12
  -6   1   2 4632.48 501.049   2
   6   1  -2 4394.84 557.581  22
   6  -1  -1 11866.8 966.063  19
  -6   1   1 11260.3 401.219   9
   6  -1  -1 10380.9 388.804  17
   6  -1  -1 10851.3 390.638  16
  -6  -1   1 13033.4 1019.14   1
  -6   1   1 11313.8 432.368  12
   6   1  -1 11808.5 889.529  22
   6  -1   0 5321.53 672.675  19
   6  -1   0 4941.32 270.514  17
   6  -1   0 5346.22 269.300  16
  -6  -1   0 5442.05 667.148   1
  -6   1   0 5273.76 294.625  12
   6   1   0 5212.27 591.724  22
   6  -1   1 3503.99 547.493  19
   6  -1   1 3396.76 217.363  17
   6  -1   1 3068.25 199.641  16
  -6  -1  -1 4150.83 598.616   1
  -6   1  -1 3743.82 245.801  12
   6   1   1 3284.95 476.646  22
   6  -1   2 1543.17 345.575  19
   6  -1   2 1084.64 127.840  17
  -6  -1  -2 1427.27 356.997   1
   6  -1   2 1007.20 115.833  16
  -6   1  -2 1388.55 163.939  12
   6   1   2 1239.10 291.712  22
   6  -1   2 1540.83 340.455  22
   6  -1   3 233.362 76.2745  10
   6  -1   3 263.513 191.386  19
  -6  -1  -3 319.025 167.282   1
   6  -1   3 109.416 64.7527  17
   6  -1   3 327.838 75.6190  16
  -6   1  -3 272.853 101.197  12
   6   1   3-46.7663 188.697  22
   6  -1   3 118.706 178.905  22
  -6  -1  -4-20.0028 174.118   1
   6  -1   4 120.769 75.3594  10
   6  -1   4 26.0267 145.345  19
   6  -1   4 94.1447 57.1357  17
   6  -1   4 181.482 54.3194  16
  -6   1  -4 223.433 70.2343  12
   6   1   4-122.976 195.300  22
   6  -1   4 142.945 101.059  22
  -6  -1  -5 1743.71 389.659   1
   6  -1   5 1522.21 162.731  10
   6  -1   5 1535.62 150.727  17
   6  -1   5 1380.69 139.299  16
  -6   1  -5 1572.13 170.164  12
   6  -1   5 1642.86 347.356  22
   6  -1   6 2601.11 197.162  10
   6  -1   6 2146.27 171.248  16
  -6   1  -6 2556.95 217.552  12
   6  -1   7 3008.38 224.423  10
  -6   1  -7 2979.26 236.406  12
   6  -1   8 31635.7 793.335  10
  -6   1  -8 33220.7 845.298  12
   6  -1   9 19350.4 593.025  10
  -6   1  -9 20702.0 649.970  12
   6  -1  10 10860.8 425.869  10
   6   1  10 11303.2 395.787   7
  -6   1 -10 11323.6 461.888  12
   6  -1  11 14811.2 516.885  10
   6   1  11 16067.3 483.901   7
  -6   1 -11 16544.9 568.765  12
   6  -1  12 27793.7 741.958  10
   6   1  12 29224.0 694.997   7
   6  -1  12 28649.0 744.116   7
  -6   1 -12 27358.7 778.691  12
   6  -1  13 4986.97 282.295  10
   6   1  13 5135.58 258.257   7
   6  -1  13 5304.80 290.535   7
  -6  -1 -13 4927.09 273.203  23
   6  -1  14 2474.41 200.311  10
   6   1  14 2689.74 187.115   7
   6  -1  14 3023.28 215.407   7
  -6  -1 -14 2608.89 200.022  23
   6  -1  15 3905.37 249.554  10
   6   1  15 3992.10 227.250   7
   6  -1  15 4077.48 250.928   7
  -6  -1 -15 3777.11 241.068  23
   6   1  16 3076.77 196.825   7
   6  -1  16 2649.97 202.435   7
  -6  -1 -16 2847.29 203.297  23
  -6  -1 -17 501.314 94.3985  23
  -6   1 -17 484.963 86.9459  23
   6   1  17 496.141 83.3688   7
   6  -1  17 578.732 102.222   7
   6   1  18 5699.99 252.519   7
   6  -1  18 6087.92 286.890   7
  -6  -1 -18 5085.85 259.150  23
  -6   1 -18 5923.32 267.825  23
   6   1  19 3003.02 180.395   7
   6  -1  19 2821.41 194.485   7
  -6  -1 -19 2744.14 187.572  23
  -6   1 -19 2626.33 177.451  23
  -6  -1 -20 202.690 63.2970  23
  -6   1 -20 342.355 75.7481  23
   6   1  20 283.982 55.4775   7
   6  -1  20 259.674 71.0757   7
   6   1  21 2427.03 143.563   7
   6  -1  21 2153.00 160.802   7
  -6  -1 -21 2485.51 163.160  23
  -6   1 -21 2249.47 147.298  23
   6   1  22 1084.31 91.6419   7
   6  -1  22 1295.88 117.225   7
   6   1  22 1063.38 83.6441  13
  -6  -1 -22 1022.31 107.890  23
  -6   1 -22 1307.36 108.435  23
  -6  -1 -23 57.7036 42.1310  23
  -6   1 -23 160.175 47.1871  23
   6   1  23 156.428 40.9537   7
   6  -1  23 117.668 43.1421   7
   6   1  23 183.743 37.1702  13
  -6  -1 -24 259.627 53.1134  23
  -6   1 -24 198.565 43.2000  23
   6  -1  24 140.958 45.0114   7
   6  -2 -26 3936.70 172.970   6
  -6   2  26 3708.58 166.080   9
   6  -2 -25 2245.16 141.035   6
  -6   2  25 1786.47 131.854   9
   6  -2 -24 1904.98 140.455   6
  -6   2  24 1859.61 144.287   9
   6  -2 -24 1562.34 105.514  17
   6  -2 -23 13627.6 408.402   6
  -6   2  23 12654.2 399.416   9
   6  -2 -22 1970.48 159.945   6
  -6   2  22 1936.71 161.411   9
   6  -2 -21 1224.26 131.414   6
  -6   2  21 1164.06 134.575   9
   6  -2 -20 292.991 88.5824   6
  -6   2  20 353.470 102.357   9
  -6   2  20 285.560 83.3620  13
   6  -2 -19 1177.50 145.057   6
  -6   2  19 1259.55 154.695   9
  -6   2  19 1295.78 138.779  13
   6  -2 -18 265.486 100.846   6
  -6   2  18 249.687 85.9358   9
  -6   2  18 417.969 85.2153  13
   6  -2 -17 406.125 101.606   6
  -6   2  17 452.582 114.968   9
  -6   2  17 365.808 87.8672  13
   6  -2 -16 106.153 63.6257   6
  -6   2  16 379.786 96.8396   9
   6  -2 -15 333.772 95.2363   6
  -6   2  15 410.357 99.0003   9
   6  -2 -14 4048.01 254.774   6
  -6   2  14 4470.79 276.498   9
   6  -2 -13 780.764 123.578   6
  -6   2  13 592.965 112.897   9
   6  -2 -12 4894.37 278.918   6
  -6   2  12 4978.36 284.940   9
   6  -2 -11 5738.61 303.587   6
  -6   2  11 6007.55 319.845   9
   6  -2 -10 6957.13 328.395   6
  -6   2  10 6632.27 334.378   9
   6  -2  -9 9888.64 411.945   6
  -6   2   9 10148.0 430.165   9
   6  -2  -8 38252.6 865.945   6
  -6   2   8 37307.7 878.684   9
   6  -2  -7 8575.27 357.885   6
  -6   2   7 8297.99 373.545   9
   6  -2  -7 8785.60 389.022  17
   6  -2  -6 10683.7 402.397   6
  -6   2   6 11624.5 429.506   9
  -6   2   5 80248.1 1443.42   9
   6  -2  -5 76580.0 1480.37  17
   6  -2  -4 27387.7 737.103  17
   6  -2  -3 32286.9 796.201  17
   6  -2  -3 32575.0 786.113  16
   6  -2  -2 12017.3 444.067  17
   6  -2  -2 12292.6 439.346  16
   6  -2  -1 1029.60 140.526  17
   6  -2  -1 1539.43 158.066  16
   6  -2   0 613.466 122.956  17
   6  -2   0 691.073 123.587  16
   6  -2   1 2854.55 212.996  10
   6  -2   1 3112.34 221.420  17
   6  -2   1 2761.72 196.020  16
   6  -2   2 821.432 132.660  10
   6  -2   2 813.980 128.920  17
   6  -2   2 778.606 122.408  16
   6  -2   3 1087.30 141.000  10
   6  -2   3 1130.88 153.903  17
   6  -2   3 1139.24 128.697  16
  -6   2  -3 1173.36 161.211  12
   6  -2   4 154.069 86.7995  10
   6  -2   4 240.820 84.7303  17
   6  -2   4 164.484 62.7490  16
  -6   2  -4 202.883 83.2896  12
   6  -2   5 163.573 59.7768  10
   6  -2   5 114.104 65.0466  16
   6  -2   6 574.407 113.649  10
  -6   2  -6 589.109 126.969  12
   6  -2   7 5803.67 309.731  10
  -6   2  -7 5906.03 323.651  12
   6  -2   8 129.170 72.6452  10
  -6   2  -8 165.607 88.2955  12
   6  -2   9 998.787 135.866  10
  -6   2  -9 907.250 136.342  12
   6  -2  10 2380.20 200.726  10
  -6   2 -10 2424.59 201.450  12
   6  -2  11 1361.26 169.018  10
   6  -2  11 1445.98 177.288   7
  -6  -2 -11 1321.56 156.169  23
  -6   2 -11 1467.02 168.688  12
   6  -2  12 39305.3 920.627  10
   6  -2  12 37992.8 883.313   7
  -6  -2 -12 39284.4 868.527  23
  -6   2 -12 39499.2 915.363  12
   6  -2  13 2953.44 223.892  10
   6  -2  13 2914.46 214.938   7
  -6  -2 -13 2586.71 195.552  23
  -6   2 -13 2689.50 207.935  12
   6  -2  14 4266.39 259.526  10
   6  -2  14 4215.98 241.460   7
  -6  -2 -14 4179.34 245.913  23
  -6   2 -14 4586.27 254.146  12
   6  -2  15 3787.44 235.928   7
  -6  -2 -15 3948.37 240.162  23
  -6  -2 -16 401.190 91.0058  23
   6  -2  16 360.564 94.3538   7
   6  -2  17 1932.09 164.674   7
  -6  -2 -17 1744.12 156.258  23
   6  -2  18 4943.31 240.133   7
  -6  -2 -18 4998.01 242.766  23
   6  -2  19 1220.06 123.589   7
  -6  -2 -19 1221.95 121.083  23
  -6  -2 -20 225.421 57.8261  23
  -6   2 -20 406.455 59.8290  23
   6  -2  20 333.744 65.4954   7
  -6  -2 -21 394.617 68.0732  23
  -6   2 -21 307.493 55.0263  23
   6  -2  21 323.392 63.0978   7
  -6  -2 -22 298.222 51.1006  23
  -6   2 -22 326.465 46.9023  23
   6  -2  22 360.302 58.3745   7
   6   2  22 390.024 55.9798  13
  -6  -2 -23 444.752 56.2879  23
   6  -2  23 521.844 62.9261   7
   6   2  23 501.408 53.5338  13
   6  -3 -24 1512.58 101.346   6
  -6   3  24 1637.82 106.087   9
   6  -3 -23 326.683 64.0475   6
  -6   3  23 348.904 61.6563   9
   6  -3 -22 132.743 54.0205   6
  -6   3  22 75.0384 45.1728   9
   6  -3 -21 104.736 63.2877   6
  -6   3  21 26.7094 52.5054   9
   6  -3 -20 937.911 110.000   6
  -6   3  20 863.240 107.234   9
   6  -3 -20 750.702 77.8432  17
   6  -3 -19 690.222 105.132   6
  -6   3  19 754.340 108.826   9
   6  -3 -19 732.231 86.2076  17
   6  -3 -18 1544.06 140.791   6
  -6   3  18 1441.35 138.686   9
   6  -3 -18 1268.84 114.124  17
   6  -3 -17 2070.75 174.782   6
  -6   3  17 1832.46 161.041   9
   6  -3 -17 1721.66 139.994  17
   6  -3 -16 17.3041 61.8443   6
  -6   3  16 228.351 77.9687   9
   6  -3 -16 130.857 60.7724  17
   6  -3 -15 496.281 124.132   6
  -6   3  15 647.744 121.008   9
   6  -3 -15 299.404 81.8681  17
   6  -3 -14 13040.0 464.380   6
  -6   3  14 12609.4 446.051   9
   6  -3 -14 13595.7 447.060  17
   6  -3 -13 11202.2 433.008   6
  -6   3  13 11521.2 417.661   9
   6  -3 -13 11598.8 412.697  17
   6  -3 -12 5183.12 296.786   6
  -6   3  12 4862.58 270.399   9
   6  -3 -12 4650.62 271.866  17
   6  -3 -11 23796.8 657.724   6
  -6   3  11 23111.5 619.531   9
   6  -3 -11 23371.8 637.804  17
   6  -3 -10 15678.1 514.688   6
  -6   3  10 15051.6 475.374   9
   6  -3 -10 15495.9 501.548  17
   6  -3  -9 805.724 135.342   6
  -6   3   9 669.109 114.325   9
   6  -3  -9 1072.46 154.733  17
   6  -3  -8 1796.74 171.731   6
   6  -3  -8 1733.78 164.234  17
   6  -3  -7 896.506 137.676   6
   6  -3  -7 951.502 149.489  17
   6  -3  -6 8991.09 381.134  17
   6  -3  -6 8983.48 369.506  16
   6  -3  -6 9357.88 376.783   6
   6  -3  -5 4762.50 266.149  10
   6  -3  -5 4567.44 272.299  17
   6  -3  -5 4975.74 283.260  16
   6  -3  -5 4212.62 249.014   6
   6  -3  -4 1335.17 167.305  10
   6  -3  -4 1250.58 174.874  17
   6  -3  -3 9403.56 382.055  10
   6  -3  -3 9644.78 406.308  17
   6  -3  -3 10070.5 384.188  16
   6  -3  -3 8557.30 369.095   6
   6  -3  -2 14123.2 470.606  10
   6  -3  -2 13172.9 472.278  17
   6  -3  -1 2275.08 182.031  11
   6  -3  -1 2806.25 215.009  10
   6  -3  -1 2338.81 196.061  17
   6  -3  -1 2863.08 205.151  16
   6  -3   0 1551.33 171.712  10
   6  -3   0 1427.11 171.847  17
   6  -3   0 1838.15 179.810  16
   6  -3   1 7002.33 327.536  10
   6  -3   1 6185.63 304.539  16
   6  -3   2 4731.57 268.898  10
   6  -3   2 4013.48 238.809  16
   6  -3   3 350.906 79.5685  10
   6  -3   3 361.649 84.4701  16
   6  -3   4 826.682 125.358  10
   6  -3   5 227.985 84.2332  10
  -6   3  -5 418.391 117.530  12
   6  -3   6 258.401 79.8028  10
  -6   3  -6 282.001 89.1234  12
   6  -3   7 816.341 121.639  10
  -6   3  -7 628.753 124.789  12
   6  -3   8 578.302 105.486  10
  -6   3  -8 607.234 109.543  12
   6  -3   9-3.09462 66.7169  10
  -6   3  -9-37.6597 64.3633  12
   6  -3   9 163.458 57.4608   7
   6  -3  10 1290.49 147.677  10
   6  -3  10 1282.23 130.598   7
  -6   3 -10 1297.00 144.234  12
   6  -3  11 167.256 82.0067  10
   6  -3  11 31.2594 48.0452   7
  -6   3 -11 114.808 87.1332  12
   6  -3  12 3770.76 236.566  10
   6  -3  12 3661.34 209.591   7
  -6   3 -12 3635.50 221.559  12
   6  -3  13 4275.52 241.492  15
   6  -3  13 4589.30 230.603   7
  -6  -3 -13 4642.23 242.846  23
  -6   3 -13 4495.15 231.129  12
   6  -3  14 1162.25 118.596  15
   6  -3  14 1308.79 120.385   7
  -6  -3 -14 1233.15 134.568  23
   6  -3  15 1770.39 141.529  15
   6  -3  15 1746.78 133.053   7
  -6  -3 -15 1663.54 148.543  23
   6  -3  16 731.411 91.3514  15
  -6  -3 -16 770.747 101.082  23
   6  -3  16 801.344 91.3735   7
   6  -3  17 9075.83 284.880  15
   6  -3  17 9545.60 295.189   7
   6  -3  18 15835.9 383.972   7
   6  -3  19 3964.39 159.589   7
   6  -3  20 1287.45 79.1048   7
   6   3  21 989.084 74.8838  13
  -6   4  20 2845.59 124.321   9
  -6   4  19 350.620 56.7378   9
   6  -4 -19 315.940 60.1878   6
  -6   4  18 373.823 59.2970   9
   6  -4 -18 280.483 40.3771  16
   6  -4 -17 384.902 73.1802   6
  -6   4  17 331.896 59.7027   9
   6  -4 -17 249.281 42.0719  16
   6  -4 -16 399.281 82.6415   6
  -6   4  16 363.917 67.4256   9
   6  -4 -16 290.329 50.3378  16
  -6   4  15 1161.77 103.956   9
   6  -4 -15 1097.84 94.2043  16
  -6   4  14 1400.94 112.610   9
   6  -4 -14 1358.89 106.268  16
  -6   4  13 1501.00 113.321   9
   6  -4 -13 1458.17 111.322  16
   6  -4 -13 1579.38 145.244   6
   6  -4 -12 124.570 69.8011   6
   6  -4 -12 115.723 53.8699  16
   6  -4 -11 400.676 83.9708  16
   6  -4 -11 307.864 92.6205   6
   6  -4 -10 5098.34 230.622  16
   6  -4 -10 6170.68 285.099   6
   6  -4  -9 145.101 71.0359  16
   6  -4  -8 255.586 65.8540  16
   6  -4  -7 1094.75 108.836  16
   6  -4  -6 249.178 84.8259  11
   6  -4  -6 450.445 90.0964  16
   6  -4  -5 991.927 128.294  11
   6  -4  -5 956.223 110.201  16
   6  -4  -4 395.304 84.9607  11
   6  -4  -4 534.344 79.8631  10
   6  -4  -4 622.729 96.1915  16
   6  -4  -3 175.209 70.6302  11
   6  -4  -3 129.305 57.6246  10
   6  -4  -3 122.782 60.3394  16
   6  -4  -2 183.314 62.4181  11
   6  -4  -2 275.876 59.7607  10
   6  -4  -2 262.153 68.6694  16
   6  -4  -1 354.161 70.0509  11
   6  -4  -1 529.802 82.7656  10
   6  -4   0 365.014 84.5918  11
   6  -4   0 428.935 77.3561  10
   6  -4   1 740.279 112.850  11
   6  -4   1 1274.64 148.717  10
   6  -4   2 13703.9 426.924  11
   6  -4   2 14796.6 438.460  10
   6  -4   3 4501.22 223.770  11
   6  -4   3 5404.33 254.947  10
   6  -4   4 3383.08 206.312  10
   6  -4   5 6503.52 282.178  10
  -6   4  -5 6334.63 299.103  12
   6  -4   6 3064.77 192.225  10
  -6   4  -6 3290.21 211.034  12
   6  -4   7 1221.71 122.170  10
  -6   4  -7 1319.44 142.603  12
   6  -4   8 4517.32 230.854  10
  -6   4  -8 4887.24 243.531  12
  -6   4  -9 232.451 70.1381  12
   6  -4  10 52.6655 52.8880  15
  -6   4 -10-36.6728 50.7281  12
   6  -4  11 780.049 105.361  15
  -6   4 -11 645.989 84.7856  12
   6  -4  12 1228.36 124.356  15
   6  -4  13 8766.31 312.627  15
   6  -4  14 151.507 51.5865  15
   6  -4  15 47.4613 34.3352  15
   6  -4  16 150.912 40.6328  15
   6  -4  17 2034.38 97.4368  15
   6  -5 -13-1.39202 32.3521  11
   6  -5 -12 59.2733 34.4991  11
  -6   5  12-40.3347 30.5457  12
   6  -5 -11 56.9888 42.3817  11
   6  -5 -10 249.400 63.9658  11
   6  -5  -9 7805.76 274.747  11
   6  -5  -8 2973.09 173.889  11
   6  -5  -7 12347.9 363.226  11
   6  -5  -6 4355.13 208.459  11
   6  -5  -5 811.352 93.5441  11
   6  -5  -4 103.803 49.0217  11
   6  -5  -3 79.0066 46.6751  11
   6  -5  -2 7.86303 36.9234  11
   6  -5  -1 58.0609 45.2279  11
   6  -5   0 46.9533 39.3192  11
   6  -5   1 272.384 59.4079  11
   6  -5   2 1136.04 92.8021  11
  -6   5  -2 1175.07 108.053  12
   6  -5   3 90.9628 35.2296  11
  -6   5  -3 162.857 56.2756  12
   6  -5   4 192.109 42.6202  11
   6  -5   4 205.380 55.8887  15
  -6   5  -4 185.116 60.0780  12
   6  -5   5 2357.69 147.926  15
  -6   5  -5 2553.68 148.789  12
   6  -5   6 110.150 53.2276  15
  -6   5  -6 192.923 57.3643  12
   6  -5   7 587.710 78.6180  15
  -6   5  -7 536.290 65.5227  12
   6  -5   8 1722.80 119.102  15
  -6   5  -8 1883.07 100.967  12
   6  -5   9 162.194 44.7504  15
   6  -5  10 34.4291 27.8591  15
   7   0 -25 211.510 39.6824   6
   7   0 -24 17.1972 34.1137   6
   7   0 -23 42.8074 34.3511   6
   7   0 -22 60.1831 36.2546   6
  -7   0  22 73.1388 54.7651   9
   7   0 -21 4.92063 43.3827   6
  -7   0  21 93.9473 52.7773   9
   7   0 -20-3.63092 44.6633   6
  -7   0  20-35.3616 58.3427   9
   7   0 -19 119.307 52.5303   6
  -7   0  19 55.0710 56.2513   9
   7   0 -18-27.6413 53.6456   6
  -7   0  18-40.7536 58.7266   9
   7   0 -17 1905.58 142.451   6
  -7   0  17 2453.07 192.511   9
   7   0 -16 650.408 92.3489   6
  -7   0  16 1147.93 168.325   9
  -7   0  15 31986.0 818.555   9
  -7   0  14 2077.93 220.037   9
  -7   0  13 13505.0 491.151   9
  -7   0  12 398.505 105.965   9
  -7   0  11 123.678 84.2955   9
  -7   0  10 27.2222 65.5556   9
  -7   0   9 2168.75 197.970   9
  -7   0   8 31.8394 81.6800   9
  -7   0   7 237.656 95.8228   9
  -7   0   6 115.322 82.1145   9
   7   0  -5 76.6410 55.0287  16
  -7   0   5 118.799 82.2893  12
   7   0  -4 1227.73 157.161  16
  -7   0   4 612.501 126.345  12
   7   0  -3 17295.7 518.629  17
   7   0  -3 17536.5 488.615  16
   7   0  -2 1687.70 184.330  17
  -7   0   2 2684.26 244.850  12
   7   0  -1 19911.0 521.043  16
  -7   0   1 22673.1 662.621  12
  -7   0   0 1425.28 196.696  12
   7   0   1 3437.99 224.926  10
  -7   0  -1 4354.46 272.855  12
   7   0   2 258.226 81.0130  10
  -7   0  -2 365.921 123.274  12
   7   0   3 2804.11 199.358  10
   7   0   4 60.7937 54.3392  10
   7   0   5 943.865 127.067  10
   7   0   6 166.381 69.2473  10
   7   0   7 4397.22 239.836  10
   7   0   8 302.441 83.7461  10
   7   0   9 1410.51 133.631  10
   7   0  10 91.2804 57.0770  10
   7   0  10 153.104 66.2336   7
   7   0  11 863.831 102.895  10
   7   0  11 675.487 100.610   7
   7   0  12 11.2016 56.6651  10
   7   0  12 62.4960 60.3989   7
   7   0  13 4642.29 245.397   7
   7   0  14 209.227 72.7522   7
   7   0  15 704.437 97.5869   7
   7   0  16 57.9378 50.1207   7
   7   0  17 3938.69 196.434   7
   7   0  18 272.222 62.6594   7
   7   0  19 5127.86 203.278   7
   7   0  20 203.280 48.8554   7
   7   0  21 54.7700 27.3080   7
   7  -1 -24 3813.16 155.123   6
  -7   1  24 3943.49 165.592   9
   7  -1 -23 3437.14 159.521   6
   7   1 -23 3048.63 124.620   6
  -7   1  23 3561.98 172.841   9
   7  -1 -22 281.501 56.5121   6
   7   1 -22 222.192 42.4886   6
   7  -1 -21 185.970 57.7710   6
   7   1 -21 327.665 56.5326   6
  -7   1  21 275.851 72.4986   9
   7  -1 -20 1410.31 121.623   6
  -7   1  20 1460.11 138.017   9
   7  -1 -19 1210.20 120.136   6
  -7   1  19 1401.01 142.416   9
   7  -1 -18 1110.36 116.244   6
  -7   1  18 1171.27 134.011   9
   7  -1 -17 157.226 62.8186   6
  -7   1  17 90.5513 73.3139   9
   7  -1 -16 556.544 92.4913   6
  -7   1  16 718.580 110.598   9
   7  -1 -15 2229.07 166.503   6
  -7   1  15 2544.72 202.087   9
   7  -1 -14 332.701 72.9280   6
  -7   1  14 463.634 94.5769   9
   7  -1 -13 171.655 64.6631   6
  -7   1  13 272.547 91.8150   9
  -7   1  12 3009.36 221.783   9
  -7   1  11 2726.80 219.543   9
  -7   1  10 63.7431 89.7928   9
  -7   1   9 696.640 121.820   9
  -7   1   8 792.832 125.254   9
  -7   1   8 940.341 115.353  12
  -7   1   7 721.049 125.826   9
  -7   1   7 589.891 105.278  12
  -7   1   6 477.486 104.705   9
   7  -1  -6 368.639 98.3402  17
  -7   1   6 494.247 99.5894  12
  -7   1   5 913.133 129.139   9
   7  -1  -5 779.173 115.251  17
   7  -1  -5 970.601 117.103  16
  -7   1   5 933.761 128.801  12
  -7   1   4 465.703 98.5980   9
   7  -1  -4 348.673 88.6500  17
   7  -1  -4 696.508 110.739  16
  -7   1   4 457.298 110.544  12
  -7   1   3 2154.31 178.543   9
   7  -1  -3 1795.03 171.829  17
   7  -1  -3 2388.65 181.680  16
  -7   1   3 2136.34 195.671  12
   7  -1  -2 5379.16 273.461  17
   7  -1  -2 5592.78 269.185  16
   7  -1  -1 731.562 114.224  17
   7  -1  -1 1112.45 143.276  16
  -7   1   1 738.502 124.848  12
   7  -1   0 121.282 76.6928  10
   7  -1   0 152.537 73.5019  17
   7  -1   0 258.468 74.2201  16
  -7   1   0 220.745 99.5222  12
   7  -1   1 1445.14 163.025  10
   7  -1   1 1393.58 144.287  17
   7  -1   1 1419.07 147.105  16
  -7   1  -1 1678.26 181.830  12
   7  -1   2 4246.01 261.282  10
   7  -1   2 4356.10 233.500  17
   7  -1   2 3767.39 220.635  16
   7  -1   3 620.076 123.598  10
   7  -1   3 457.580 79.3549  17
   7  -1   3 693.579 110.586  16
  -7   1  -3 533.435 130.639  12
   7  -1   4 3143.09 223.438  10
  -7   1  -4 3313.52 244.381  12
   7  -1   5 2219.89 188.907  10
  -7   1  -5 2006.68 197.281  12
   7  -1   6 308.857 94.4337  10
  -7   1  -6 477.781 127.600  12
   7  -1   7 4158.44 253.984  10
   7   1   7 4348.99 227.810   7
  -7   1  -7 4059.97 274.446  12
   7  -1   8 415.706 102.089  10
  -7   1  -8 367.991 99.8258  12
   7   1   8 328.844 81.8513   7
   7  -1   9 6164.34 299.133  10
   7   1   9 6527.08 270.966   7
  -7   1  -9 6548.03 336.830  12
   7  -1  10 5401.70 278.417  10
   7   1  10 5124.43 239.570   7
   7  -1  10 5254.92 275.022   7
   7  -1  11 6681.16 306.427  10
   7   1  11 7079.88 280.594   7
   7  -1  11 6617.58 305.349   7
   7  -1  12 10654.1 388.549  10
   7   1  12 11902.3 369.461   7
   7  -1  12 11046.4 392.754   7
   7  -1  13 5446.17 270.709  10
   7   1  13 5936.89 246.566   7
   7  -1  13 5455.06 267.901   7
   7   1  14 4540.44 205.545   7
   7  -1  14 4320.12 232.199   7
   7   1  15 357.837 62.9393   7
   7  -1  15 376.772 80.7331   7
   7   1  16 1659.80 116.830   7
   7  -1  16 1734.41 142.471   7
   7   1  17 5524.20 200.820   7
   7  -1  17 5116.16 230.971   7
   7   1  18 509.723 59.9234   7
   7  -1  18 635.824 86.9139   7
   7  -1  19 1920.90 121.586   7
   7  -1  20 515.378 63.7399   7
  -7   2  23 329.807 58.7121   9
   7  -2 -22 5498.09 197.803   6
  -7   2  22 5397.84 207.861   9
   7  -2 -22 4859.96 171.423  17
   7  -2 -21 372.776 63.1268   6
  -7   2  21 533.477 71.8207   9
   7  -2 -21 501.655 69.3776  17
   7  -2 -20 234.395 60.9586   6
  -7   2  20 341.807 74.1730   9
   7  -2 -20 247.237 65.2394  17
   7  -2 -19 132.767 56.2542   6
  -7   2  19 220.915 67.5661   9
   7  -2 -19 117.883 50.2284  17
   7  -2 -18 107.728 55.6569   6
  -7   2  18 108.448 67.3922   9
   7  -2 -18 109.478 50.5480  17
   7  -2 -17 451.181 85.5793   6
  -7   2  17 405.651 80.5228   9
   7  -2 -17 291.182 66.9022  17
   7  -2 -16 1290.65 125.159   6
  -7   2  16 1326.80 139.890   9
   7  -2 -16 1446.59 139.586  17
   7  -2 -15 931.341 117.952   6
  -7   2  15 1059.69 144.564   9
   7  -2 -15 998.221 127.228  17
   7  -2 -14 20422.9 542.310   6
  -7   2  14 21276.8 583.896   9
   7  -2 -14 21182.3 582.177  17
   7  -2 -13 6786.42 290.504   6
  -7   2  13 7005.08 323.587   9
   7  -2 -13 7479.39 327.439  17
   7  -2 -12 1392.90 138.235   6
  -7   2  12 1485.05 158.001   9
   7  -2 -12 1862.79 176.741  17
   7  -2 -11 9402.10 342.667   6
  -7   2  11 9438.17 373.129   9
   7  -2 -11 10334.5 393.493  17
   7  -2 -10 1448.56 137.923   6
  -7   2  10 1425.19 152.083   9
   7  -2 -10 1642.28 164.203  17
   7  -2  -9 975.474 107.608   6
  -7   2   9 877.586 120.624   9
   7  -2  -9 1085.85 133.571  17
  -7   2   9 1169.95 127.351  12
  -7   2   8 884.601 121.716   9
   7  -2  -8 1044.34 134.133  17
  -7   2   8 1010.43 125.336  12
  -7   2   7 4087.19 235.360   9
   7  -2  -7 4345.76 254.926  17
   7  -2  -7 3983.94 240.102  16
  -7   2   7 4152.72 237.692  12
   7  -2  -6 1794.06 208.462  17
  -7   2   6 1821.08 183.663  12
  -7   2   5 20110.6 547.082   9
   7  -2  -5 19371.9 575.648  17
   7  -2  -5 18964.9 548.578  16
  -7   2   5 20990.3 605.236  12
   7  -2  -4 3128.56 260.613  17
  -7   2   4 3443.42 271.896  12
   7  -2  -3 11371.5 435.128  10
   7  -2  -3 11200.5 417.445  17
   7  -2  -3 11119.4 403.020  16
  -7   2   3 11755.7 445.051  12
   7  -2  -2 6266.64 329.658  10
   7  -2  -2 5878.66 300.509  17
   7  -2  -2 6080.60 291.013  16
  -7   2   2 6009.41 317.793  12
   7  -2  -1 472.069 123.261  10
   7  -2  -1 211.548 87.7035  17
  -7   2   1 422.940 107.519  12
   7  -2   0 39.7501 56.6243  10
   7  -2   0 177.365 79.8773  17
   7  -2   0-14.3143 55.1770  16
  -7   2   0 91.0986 80.4440  12
   7  -2   1 352.896 88.4288  10
   7  -2   1 345.922 95.0260  17
   7  -2   1 359.325 80.9447  16
  -7   2  -1 368.587 100.669  12
   7  -2   2 401.006 98.6161  10
   7  -2   2 542.499 99.2206  16
  -7   2  -2 573.093 112.666  12
   7  -2   3 1879.60 171.995  10
  -7   2  -3 1609.53 172.635  12
   7  -2   4 335.273 97.2987  10
  -7   2  -4 341.589 112.799  12
   7  -2   5 273.386 85.3630  10
  -7   2  -5 188.700 86.2740  12
   7  -2   6 3158.94 218.736  10
  -7   2  -6 3411.66 240.063  12
   7  -2   7 2341.39 192.632  10
  -7   2  -7 2400.56 201.715  12
   7  -2   8 3618.30 233.857  10
  -7   2  -8 3745.12 247.460  12
   7  -2   9 13613.9 461.576  10
   7  -2   9 13409.9 442.289   7
  -7   2  -9 13751.8 477.730  12
   7  -2  10 22780.9 617.166  10
   7  -2  10 23458.3 597.259   7
  -7   2 -10 23812.1 638.829  12
   7  -2  11 1948.34 176.294  10
   7  -2  11 1787.58 168.287   7
  -7   2 -11 1718.57 179.754  12
   7  -2  12 29787.6 704.570  10
   7  -2  12 28849.0 678.165   7
   7  -2  13 634.256 97.7467   7
   7  -2  14 574.652 84.9313   7
   7  -2  15 151.287 49.9810   7
   7  -2  16 797.514 90.8755   7
   7  -2  17 136.826 44.4502   7
   7  -2  18 1090.66 88.9693   7
   7  -2  19 993.935 77.5524   7
  -7   3  20 1726.57 100.552   9
   7  -3 -20 1726.46 100.662   6
  -7   3  19 1221.94 91.7426   9
   7  -3 -19 984.507 69.4210  17
   7  -3 -19 976.064 80.3232  16
   7  -3 -19 1277.20 94.4834   6
   7  -3 -18 207.027 53.6753   6
  -7   3  18 234.996 52.9352   9
   7  -3 -18 201.213 42.5957  17
   7  -3 -18 97.7369 36.4083  16
   7  -3 -17 266.033 55.5099   6
   7  -3 -17 254.423 44.8578  10
  -7   3  17 292.879 58.8783   9
   7  -3 -17 259.628 54.7299  17
   7  -3 -17 247.185 56.5252  16
   7  -3 -16 2445.56 126.343  10
  -7   3  16 2623.32 154.936   9
   7  -3 -16 2467.58 140.630  17
   7  -3 -16 2343.97 142.012  16
   7  -3 -16 2613.22 157.245   6
   7  -3 -15 155.919 58.9300   6
   7  -3 -15 39.5003 33.7221  10
  -7   3  15 50.5340 49.9824   9
   7  -3 -15 46.7513 41.2233  17
   7  -3 -15 133.342 49.9225  16
   7  -3 -14 1067.27 96.9240  10
  -7   3  14 1124.05 108.405   9
   7  -3 -14 1246.57 116.959  17
   7  -3 -14 1095.69 105.317  16
   7  -3 -14 1111.67 110.583   6
   7  -3 -13 3234.72 172.126  10
  -7   3  13 3295.26 186.782   9
   7  -3 -13 3539.27 196.624  17
   7  -3 -13 3254.98 184.216  16
   7  -3 -13 3558.43 194.404   6
   7  -3 -12 8749.45 305.032  10
  -7   3  12 9267.20 309.976   9
   7  -3 -12 9193.83 333.480  17
   7  -3 -12 8741.18 313.232  16
   7  -3 -12 9362.95 327.151   6
   7  -3 -11 15315.6 433.741  10
  -7   3  11 15783.3 426.518   9
   7  -3 -11 16032.3 464.347  17
   7  -3 -11 15182.3 436.152  16
  -7   3  11 15769.3 417.663  12
   7  -3 -11 15914.6 444.274   6
   7  -3 -10 11356.9 369.756  10
  -7   3  10 10681.0 339.325   9
   7  -3 -10 11785.4 396.362  17
  -7   3  10 10460.0 353.330  12
   7  -3 -10 11236.6 367.933   6
   7  -3  -9 21555.4 554.829  10
   7  -3  -9 22249.3 588.663  17
  -7   3   9 20371.5 546.114  12
   7  -3  -9 21438.2 544.052   6
   7  -3  -8 42880.2 860.342  10
   7  -3  -8 41827.8 881.971  17
   7  -3  -8 40489.0 843.570  16
  -7   3   8 41417.3 868.961  12
   7  -3  -7 3107.17 229.130  17
  -7   3   7 2452.65 202.676  12
   7  -3  -6 3172.51 212.203  10
   7  -3  -6 3043.35 215.510  17
  -7   3   6 2569.88 204.007  12
   7  -3  -5 11213.4 382.681  10
   7  -3  -5 10701.8 385.997  17
   7  -3  -5 10610.8 362.838  16
  -7   3   5 10967.4 409.024  12
   7  -3  -4 2528.06 187.492  10
   7  -3  -4 1958.26 178.913  17
  -7   3   4 2112.95 189.998  12
   7  -3  -3 2236.05 232.240  10
  -7   3   3 914.704 158.164  12
   7  -3  -2 18514.3 521.519  10
   7  -3  -2 17594.6 490.924  16
  -7   3   2 18729.9 552.392  12
   7  -3  -1 4903.86 279.358  10
  -7   3   1 3752.52 264.860  12
   7  -3   0 2908.49 196.004  10
   7  -3   0 2856.76 185.055  16
  -7   3   0 2475.92 202.045  12
   7  -3   1 542.306 104.381  10
  -7   3  -1 600.210 119.665  12
   7  -3   2 519.058 112.614  10
  -7   3  -2 493.439 121.333  12
   7  -3   3 3063.22 199.523  10
  -7   3  -3 2947.75 209.943  12
   7  -3   4 631.459 104.194  10
  -7   3  -4 701.206 120.846  12
   7  -3   5 367.828 82.8058  10
  -7   3  -5 484.703 100.361  12
   7  -3   6 1198.90 128.355  10
   7  -3   6 1376.50 119.733   7
  -7   3  -6 1425.76 144.086  12
   7  -3   7 831.188 108.476  10
  -7   3  -7 801.337 114.373  12
   7  -3   7 752.489 95.0353   7
   7  -3   8 659.288 95.1718  10
  -7   3  -8 630.695 103.364  12
   7  -3   8 551.444 82.9338   7
   7  -3   9 478.351 82.8065  10
  -7   3  -9 601.524 96.1486  12
   7  -3   9 502.133 70.3313   7
   7  -3  10 1202.15 120.506  10
   7  -3  10 1306.95 107.225   7
  -7   3 -10 1210.62 122.501  12
   7  -3  11 150.193 46.2867  15
  -7   3 -11 61.9853 57.3250  12
   7  -3  11-1.18922 41.3115   7
   7  -3  12 62.8413 43.7173  15
   7  -3  12 111.655 44.6581   7
   7  -3  13 1493.96 100.876  15
   7  -3  13 1443.92 100.906   7
   7  -3  14 233.629 46.0763   7
   7  -3  15 3083.07 126.643   7
   7  -3  16 2243.64 96.6313   7
   7  -4 -14 117.165 35.9512  11
   7  -4 -14 31.2095 19.5485  16
   7  -4 -13 562.492 67.3631  11
   7  -4 -13 442.754 47.2840  16
   7  -4 -12 275.622 56.4644  11
   7  -4 -12 267.688 43.4385  16
   7  -4 -11 91.6692 42.1332  11
   7  -4 -11 56.9605 30.5594  16
  -7   4  11 65.2235 37.3684  12
   7  -4 -10 1098.00 96.6439  11
   7  -4 -10 947.804 76.8431  16
  -7   4  10 1130.64 91.0300  12
   7  -4  -9 170.213 50.9312  11
   7  -4  -9 214.295 50.0943  16
  -7   4   9 140.231 47.2193  12
   7  -4  -8 780.364 82.3701  11
   7  -4  -8 789.515 77.2281  16
  -7   4   8 942.063 95.4691  12
   7  -4  -7 68.2397 46.0836  11
   7  -4  -7 104.491 40.0912  16
  -7   4   7 148.513 54.4375  12
   7  -4  -6-1.48781 36.4025  11
  -7   4   6 29.1561 46.0668  12
   7  -4  -5 478.419 68.1835  11
   7  -4  -5 602.122 65.3774  10
  -7   4   5 540.001 87.2575  12
   7  -4  -4 148.841 44.3152  11
   7  -4  -4 125.061 42.6870  10
  -7   4   4 260.173 76.9930  12
   7  -4  -3 34.7802 35.5686  11
  -7   4   3 187.333 66.9175  12
   7  -4  -2 3958.59 178.836  10
  -7   4   2 3784.90 209.443  12
   7  -4  -1 5233.37 209.167  10
  -7   4   1 4816.37 236.730  12
   7  -4   0 4940.59 203.514  10
  -7   4   0 5375.98 245.231  12
   7  -4   1 1000.47 109.680  10
  -7   4  -1 725.910 112.135  12
   7  -4   2 6639.73 240.434  10
  -7   4  -2 6852.66 272.906  12
   7  -4   3 3164.45 161.325  10
  -7   4  -3 3123.49 183.789  12
   7  -4   4 505.361 74.0835  10
  -7   4  -4 504.241 82.0377  12
   7  -4   5 1007.60 91.9431  10
  -7   4  -5 1121.77 107.152  12
  -7   4  -6 89.5816 55.4712  12
   7  -4   7 549.943 74.8383  15
  -7   4  -7 439.987 73.0124  12
   7  -4   8 292.918 57.2797  15
  -7   4  -8 251.795 52.5251  12
   7  -4   9 228.794 50.6097  15
  -7   4  -9 305.882 53.3817  12
   7  -4  10 58.7272 33.8983  15
   8   0 -20 91.3516 34.9914  17
   8   0 -19 43.5145 41.5377  17
   8   0 -18 1496.90 79.0908  16
   8   0 -17 70.4168 32.0433  16
   8   0 -16 185.753 39.4247  16
   8   0 -15-12.6597 27.3533  16
   8   0 -14 230.158 47.5370  16
   8   0 -13 40.0738 34.8356  16
   8   0 -12 696.799 94.3549  17
   8   0 -12 518.225 62.9175  16
   8   0 -11 81.7516 49.2507  17
   8   0 -11 31.3729 34.9058  16
   8   0 -10 76.2508 51.5908  17
   8   0 -10 26.3268 31.4158  16
   8   0  -9 4.00018 54.1696  17
   8   0  -9 52.1544 37.0317  16
   8   0  -8 121.614 58.0772  17
   8   0  -8 126.677 44.4576  16
   8   0  -7 417.737 87.4380  17
   8   0  -6 17421.7 458.637  17
   8   0  -5 870.598 108.453  17
   8   0  -4 8214.96 316.406  10
   8   0  -4 8368.46 291.508  17
   8   0  -3 793.740 125.490  10
   8   0  -2 2192.23 161.842  10
   8   0  -1 653.138 118.836  10
   8   0   0 10297.2 353.833  10
   8   0   1 167.596 67.7219  10
   8   0   2 699.313 86.5205  10
   8   0   3 40.4107 42.8240  10
   8   0   4 468.250 70.7426  10
   8   0   5-45.6466 41.9072  10
   8   0   6 1464.65 115.303  10
   8   0   6 1537.17 130.708   7
   8   0   7 623.836 87.4017  10
   8   0   7 868.879 129.644   7
   8   0   8 20192.2 467.413  10
   8   0   8 20166.8 501.458   7
   8   0   9 228.309 72.3982   7
   8   0  10 2681.05 156.725   7
   8   0  11-3.14632 40.8621   7
   8   0  12 1100.83 91.3628   7
   8   0  13 289.442 54.6559   7
   8   0  14 14363.6 337.628   7
   8   0  15 307.932 49.8753   7
   8  -1 -19 632.385 68.4491  17
   8  -1 -19 476.379 50.7228  16
   8  -1 -18 6385.80 217.579  17
   8  -1 -18 5344.52 180.413  16
   8  -1 -17 843.524 84.9227  17
   8  -1 -17 604.873 65.0123  16
   8  -1 -16 44.9557 48.1405  17
   8  -1 -16 256.347 54.0152  16
   8  -1 -15 495.569 78.3790  17
   8  -1 -15 288.501 52.9383  16
   8  -1 -14 1143.98 113.762  17
   8  -1 -14 890.435 88.1698  16
   8  -1 -13 501.851 85.9196  17
   8  -1 -13 424.598 65.9615  16
   8  -1 -12 3950.03 204.651  17
   8  -1 -12 3402.63 174.988  16
   8  -1 -11 380.817 91.6455  17
   8  -1 -11 547.371 83.1662  16
   8  -1 -10 5164.78 243.867  17
   8   1 -10 4987.06 201.567  17
   8  -1 -10 4594.16 207.336  16
   8  -1  -9 356.930 90.5398  17
   8  -1  -9 725.611 96.4359  16
   8  -1  -8 1589.72 141.636  17
   8  -1  -8 1785.95 133.270  16
   8  -1  -7 4965.12 247.066  17
   8  -1  -7 5624.40 239.071  16
   8  -1  -6 9392.42 330.751  17
   8  -1  -6 9181.17 309.892  16
   8   1  -5 516.070 93.9538  10
   8  -1  -5 664.056 142.117  10
   8  -1  -4 2006.34 166.633  10
   8  -1  -4 1915.34 153.309  17
   8  -1  -3 3037.50 202.940  10
   8  -1  -3 2853.95 180.459  17
   8  -1  -3 3511.68 179.967  16
  -8   1   3 3148.18 210.604  12
   8  -1  -2 447.081 107.221  10
   8  -1  -2 304.937 70.4158  17
  -8   1   2 401.449 104.546  12
   8  -1  -1 1553.96 144.114  10
   8  -1  -1 1427.86 120.712  17
   8  -1  -1 1608.44 122.296  16
  -8   1   1 1364.07 148.230  12
   8  -1   0 1164.01 128.450  10
   8  -1   1 135.006 68.8595  10
   8  -1   2 434.544 90.2465  10
   8  -1   3 1355.78 132.746  10
   8  -1   4 2149.61 160.231  10
   8   1   4 2341.03 137.933   7
   8  -1   5 408.042 82.7255  10
   8   1   5 583.352 85.2235   7
   8  -1   6 4280.21 219.048  10
   8   1   6 4294.50 181.518   7
   8  -1   7 5274.28 240.331  10
   8   1   7 4851.48 193.899   7
   8  -1   7 5590.30 256.332   7
   8  -1   8 11940.7 372.238  10
   8   1   8 13071.8 330.533   7
   8  -1   8 12451.1 385.647   7
   8  -1   9 22251.8 528.514  10
   8  -1   9 23245.6 545.986   7
   8  -1  10 9597.10 307.015  10
   8  -1  10 10760.9 333.340   7
   8  -1  11 8613.65 288.709   7
   8  -1  12 2351.61 143.759   7
   8  -1  13 7145.73 239.603   7
   8  -1  14 3011.19 143.239   7
   8  -1  15 377.162 50.6993   7
   8  -2 -17 344.752 47.0365  10
   8  -2 -17 270.690 48.7137  17
   8  -2 -17 254.362 41.8919  16
   8  -2 -16 1688.97 104.763  10
   8  -2 -16 1745.29 110.538  17
   8  -2 -16 1676.56 100.798  16
   8  -2 -15 396.328 62.2175  10
   8  -2 -15 405.028 65.4459  17
   8  -2 -15 428.847 62.9010  16
   8  -2 -14 10693.7 316.423  10
   8  -2 -14 10864.3 320.099  17
   8  -2 -14 10225.8 294.978  16
   8  -2 -13 12112.2 348.830  10
   8  -2 -13 12772.4 360.606  17
   8  -2 -12 2845.21 169.667  10
   8  -2 -12 2857.87 176.770  17
   8  -2 -12 3333.05 170.379  16
   8  -2 -11 15086.7 412.761  10
   8  -2 -11 16000.1 421.398  17
   8  -2 -11 14640.9 387.474  16
   8  -2 -10 2939.84 179.455  10
   8  -2 -10 2475.03 170.147  17
   8  -2  -9 987.807 114.026  10
   8  -2  -9 914.032 113.458  17
   8  -2  -8 9292.55 328.410  10
   8  -2  -8 9287.99 324.609  17
   8  -2  -8 9888.10 314.407  16
   8  -2  -7 17503.8 468.753  10
   8  -2  -7 16800.5 455.008  17
   8  -2  -7 16912.5 433.613  16
  -8   2   7 16198.7 437.814  12
   8  -2  -6 4971.19 243.068  17
  -8   2   6 4806.94 238.144  12
   8  -2  -5 5143.67 240.895  10
   8  -2  -5 4778.97 230.005  17
  -8   2   5 4834.39 239.373  12
   8  -2  -4 1311.02 126.158  17
  -8   2   4 1187.60 129.376  12
   8  -2  -3 1010.36 113.857  10
  -8   2   3 831.341 111.095  12
   8  -2  -2 835.741 104.254  10
   8  -2  -2 869.748 95.5876  16
  -8   2   2 960.096 119.110  12
   8  -2  -1 126.539 72.2158  10
  -8   2   1 87.9669 65.2542  12
   8  -2   0 102.159 50.8858  10
  -8   2   0 241.640 90.7893  12
   8  -2   1 195.372 71.6576  10
  -8   2  -1 186.444 84.3070  12
   8  -2   2 283.176 78.8098  10
  -8   2  -2 288.407 81.1560  12
   8  -2   3 510.441 98.0679  10
  -8   2  -3 798.183 114.840  12
   8  -2   4 5033.67 238.536  10
  -8   2  -4 5361.76 258.327  12
   8  -2   5 5276.31 239.845  10
  -8   2  -5 5225.70 256.386  12
   8  -2   6 534.716 88.1536  10
   8  -2   6 539.370 90.6702   7
   8  -2   7 3982.05 198.195  10
   8  -2   7 3838.11 191.081   7
   8  -2   8 1697.01 126.835  10
   8  -2   8 1660.66 119.790   7
   8  -2   9 65.5379 48.1393  10
   8  -2   9 37.6538 38.5643   7
   8  -2  10 1806.48 118.420   7
   8  -2  11 222.312 50.9506   7
   8  -2  12 2288.00 120.708   7
   8  -2  13 709.397 63.6293   7
   8  -3 -12 2162.32 101.282  10
   8  -3 -12 2256.88 111.464  16
   8  -3 -11 233.100 43.5750  10
   8  -3 -11 320.162 50.4516  16
   8  -3 -10 1499.33 95.4494  10
   8  -3 -10 1382.53 91.4285  16
   8  -3  -9 1305.39 99.6721  10
   8  -3  -9 2035.88 122.318  16
   8  -3  -8 15982.6 377.222  10
  -8   3   8 16010.3 361.356  12
   8  -3  -7 5716.47 213.639  10
  -8   3   7 4414.47 191.465  12
   8  -3  -6 5064.27 202.842  10
   8  -3  -6 6235.85 218.467  16
   8  -3  -5 12992.6 347.048  10
  -8   3   5 12263.3 353.411  12
   8  -3  -4 9611.33 292.985  10
  -8   3   4 9128.08 304.083  12
   8  -3  -3 2847.26 175.584  10
  -8   3   3 1358.27 140.020  12
   8  -3  -2 13674.2 365.112  10
  -8   3   2 12299.6 373.369  12
   8  -3  -1 12929.6 356.896  10
  -8   3   1 12235.8 371.811  12
   8  -3   0 4873.86 212.303  10
  -8   3   0 4125.00 209.152  12
   8  -3   1 1262.13 106.529  10
  -8   3  -1 1051.85 114.398  12
   8  -3   2 224.026 55.2311  10
  -8   3  -2 258.603 71.1194  12
   8  -3   2 159.483 47.6233   7
   8  -3   3 64.1482 42.3287  10
  -8   3  -3 100.713 57.2292  12
   8  -3   3 49.8895 35.0978   7
   8  -3   4 401.761 63.8601  10
  -8   3  -4 389.387 72.0527  12
   8  -3   4 336.437 54.9977   7
   8  -3   5 450.605 63.0422  10
  -8   3  -5 444.155 75.4162  12
   8  -3   5 339.824 49.3385   7
   8  -3   6 256.619 49.7951  10
   8  -3   6 220.838 39.9578   7
   8  -3   7 64.1744 29.0324  15
   8  -3   7-24.0312 28.5931   7
   8  -3   8 218.843 36.8423   7
   9   0 -11 485.609 49.1999  10
   9   0 -10 88.9821 33.8043  10
   9   0  -9 83.2819 32.2760  10
   9   0  -8 73.4213 29.9134  10
   9   0  -7 137.663 35.0226  10
   9   0  -6 730.637 83.3583  10
   9   0  -5 9047.38 245.095  10
   9   0  -4 2145.76 125.886  10
   9   0  -3 8418.42 229.894  10
   9   0  -2 1122.15 87.4830  10
   9   0  -1 3491.11 134.419  10
   9   0   0 237.602 42.7335  10
   9   0   0 393.770 64.4845   7
   9   0   1 674.516 60.4767   7
   9   0   2 144.086 36.2850   7
   9   0   3 143.217 40.5044   7
   9   0   4 912.485 73.9660   7
   9   0   5 11334.2 258.171   7
   9   0   6 666.189 56.3073   7
   9  -1 -10 2228.35 112.414  10
   9  -1  -9 1330.74 89.9642  10
   9  -1  -8 291.230 51.4135  10
   9  -1  -7 763.093 74.0102  10
   9  -1  -6 1383.92 98.2445  10
   9  -1  -5 1440.26 98.7380  10
   9  -1  -4 979.448 84.7388  10
   9  -1  -3 736.244 73.2537  10
   9  -1  -2 253.484 50.4052  10
   9  -1  -1 450.009 69.6285  10
   9  -1   0 3620.83 150.178  10
   9  -1   1 957.806 76.2479  10
   9  -1   1 1080.19 87.7247   7
   9  -1   2 341.691 49.5494  10
   9  -1   2 346.232 53.7209   7
   9  -1   3 158.073 35.9811  10
   9  -1   3 222.773 44.9398   7
   9  -1   4 225.031 39.6182  10
   9  -1   4 183.847 41.6832   7
   9  -1   5 191.679 35.3040  10
   9  -1   5 247.400 42.3197   7
   0   0   0    0.00    0.00   0
;
_shelx_hkl_checksum              63263
loop_
_space_group_symop_operation_xyz
'x, y, z'
'-x+1/2, y+1/2, -z+1/2'
'-x, -y, -z'
'x-1/2, -y-1/2, z-1/2'
loop_
_atom_site_label
_atom_site_type_symbol
_atom_site_fract_x
_atom_site_fract_y
_atom_site_fract_z
_atom_site_U_iso_or_equiv
_atom_site_adp_type
_atom_site_occupancy
_atom_site_site_symmetry_order
_atom_site_calc_flag
_atom_site_refinement_flags_posn
_atom_site_refinement_flags_adp
_atom_site_refinement_flags_occupancy
_atom_site_disorder_assembly
_atom_site_disorder_group
C1 C 0.9876(6) 0.4418(5) 0.28051(11) 0.0207(6) Uani 0.873(2) 1 d D U P A 1
C2 C 0.9654(3) 0.5927(4) 0.31718(8) 0.0214(5) Uani 0.873(2) 1 d D U P A 1
H2 H 0.9037 0.7309 0.3109 0.026 Uiso 0.873(2) 1 calc R U P A 1
C3 C 1.0318(3) 0.5452(5) 0.36298(9) 0.0214(5) Uani 0.873(2) 1 d D U P A 1
C4 C 1.0118(3) 0.6998(4) 0.40090(12) 0.0241(5) Uani 0.873(2) 1 d D U P A 1
H4 H 0.9508 0.8390 0.3951 0.029 Uiso 0.873(2) 1 calc R U P A 1
C5 C 1.0793(4) 0.6494(5) 0.44507(11) 0.0265(6) Uani 0.873(2) 1 d D U P A 1
H5 H 1.0642 0.7532 0.4699 0.032 Uiso 0.873(2) 1 calc R U P A 1
C6 C 1.1723(4) 0.4430(7) 0.45444(10) 0.0285(6) Uani 0.873(2) 1 d D U P A 1
H6 H 1.2196 0.4104 0.4854 0.034 Uiso 0.873(2) 1 calc R U P A 1
C7 C 1.1939(3) 0.2912(5) 0.41926(13) 0.0266(6) Uani 0.873(2) 1 d D U P A 1
H7 H 1.2565 0.1540 0.4260 0.032 Uiso 0.873(2) 1 calc R U P A 1
C8 C 1.1237(4) 0.3364(5) 0.37260(10) 0.0221(5) Uani 0.873(2) 1 d D U P A 1
C9 C 1.1414(3) 0.1814(4) 0.33624(8) 0.0230(5) Uani 0.873(2) 1 d D U P A 1
H9 H 1.1995 0.0409 0.3427 0.028 Uiso 0.873(2) 1 calc R U P A 1
C10 C 1.0750(3) 0.2299(5) 0.29056(9) 0.0214(5) Uani 0.873(2) 1 d D U P A 1
C11 C 1.0947(18) 0.0777(13) 0.25270(14) 0.0228(9) Uani 0.873(2) 1 d D U P A 1
H11 H 1.1441 -0.0682 0.2589 0.027 Uiso 0.873(2) 1 calc R U P A 1
C12 C 1.0440(3) 0.1373(4) 0.20763(9) 0.0225(5) Uani 0.873(2) 1 d D U P A 1
H12 H 1.0622 0.0332 0.1831 0.027 Uiso 0.873(2) 1 calc R U P A 1
C13 C 0.9636(3) 0.3539(4) 0.19616(8) 0.0209(5) Uani 0.873(2) 1 d D U P A 1
C14 C 0.9338(4) 0.4965(4) 0.23302(10) 0.0212(6) Uani 0.873(2) 1 d D U P A 1
H14 H 0.8751 0.6366 0.2265 0.025 Uiso 0.873(2) 1 calc R U P A 1
C15 C 0.9223(3) 0.4184(5) 0.14619(8) 0.0217(5) Uani 0.873(2) 1 d D U P A 1
C16 C 0.9741(3) 0.2817(4) 0.10951(12) 0.0258(5) Uani 0.873(2) 1 d D U P A 1
H16 H 1.0365 0.1449 0.1167 0.031 Uiso 0.873(2) 1 calc R U P A 1
C17 C 0.9364(4) 0.3413(6) 0.06286(11) 0.0290(6) Uani 0.873(2) 1 d D U P A 1
H17 H 0.9720 0.2447 0.0387 0.035 Uiso 0.873(2) 1 calc R U P A 1
C18 C 0.8469(4) 0.5418(6) 0.05150(9) 0.0280(6) Uani 0.873(2) 1 d D U P A 1
H18 H 0.8206 0.5825 0.0196 0.034 Uiso 0.873(2) 1 calc R U P A 1
C19 C 0.7964(3) 0.6820(5) 0.08708(13) 0.0268(6) Uani 0.873(2) 1 d D U P A 1
H19 H 0.7366 0.8203 0.0796 0.032 Uiso 0.873(2) 1 calc R U P A 1
C20 C 0.8329(3) 0.6208(5) 0.13386(10) 0.0246(5) Uani 0.873(2) 1 d D U P A 1
H20 H 0.7966 0.7180 0.1579 0.030 Uiso 0.873(2) 1 calc R U P A 1
C1' C 0.949(4) 0.434(3) 0.2272(6) 0.022(2) Uani 0.127(2) 1 d D U P A 2
C2' C 0.8841(19) 0.587(2) 0.1938(4) 0.023(2) Uani 0.127(2) 1 d D U P A 2
H2' H 0.8382 0.7286 0.2031 0.028 Uiso 0.127(2) 1 calc R U P A 2
C3' C 0.886(2) 0.534(3) 0.1463(5) 0.023(2) Uani 0.127(2) 1 d D U P A 2
C4' C 0.819(2) 0.691(3) 0.1113(7) 0.023(2) Uani 0.127(2) 1 d D U P A 2
H4' H 0.7709 0.8309 0.1207 0.028 Uiso 0.127(2) 1 calc R U P A 2
C5' C 0.822(3) 0.645(4) 0.0649(7) 0.027(2) Uani 0.127(2) 1 d D U P A 2
H5' H 0.7796 0.7525 0.0421 0.033 Uiso 0.127(2) 1 calc R U P A 2
C6' C 0.890(3) 0.433(4) 0.0511(6) 0.027(2) Uani 0.127(2) 1 d D U P A 2
H6' H 0.8884 0.3956 0.0188 0.032 Uiso 0.127(2) 1 calc R U P A 2
C7' C 0.958(3) 0.283(3) 0.0837(7) 0.027(2) Uani 0.127(2) 1 d D U P A 2
H7' H 1.0082 0.1457 0.0735 0.032 Uiso 0.127(2) 1 calc R U P A 2
C8' C 0.956(2) 0.325(3) 0.1323(6) 0.023(2) Uani 0.127(2) 1 d D U P A 2
C9' C 1.024(2) 0.170(2) 0.1659(4) 0.025(2) Uani 0.127(2) 1 d D U P A 2
H9' H 1.0715 0.0298 0.1565 0.030 Uiso 0.127(2) 1 calc R U P A 2
C10' C 1.020(3) 0.223(3) 0.2130(5) 0.022(2) Uani 0.127(2) 1 d D U P A 2
C11' C 1.101(13) 0.081(9) 0.2486(8) 0.023(3) Uani 0.127(2) 1 d D U P A 2
H11' H 1.1552 -0.0565 0.2396 0.027 Uiso 0.127(2) 1 calc R U P A 2
C12' C 1.105(2) 0.134(3) 0.2952(6) 0.025(2) Uani 0.127(2) 1 d D U P A 2
H12' H 1.1471 0.0252 0.3179 0.030 Uiso 0.127(2) 1 calc R U P A 2
C13' C 1.046(2) 0.353(3) 0.3103(5) 0.0251(18) Uani 0.127(2) 1 d D U P A 2
C14' C 0.967(5) 0.487(4) 0.2756(7) 0.023(2) Uani 0.127(2) 1 d D U P A 2
H14' H 0.9206 0.6283 0.2849 0.028 Uiso 0.127(2) 1 calc R U P A 2
C15' C 1.076(2) 0.424(3) 0.3608(5) 0.022(2) Uani 0.127(2) 1 d D U P A 2
C16' C 1.178(2) 0.295(3) 0.3921(7) 0.023(2) Uani 0.127(2) 1 d D U P A 2
H16' H 1.2336 0.1625 0.3811 0.027 Uiso 0.127(2) 1 calc R U P A 2
C17' C 1.202(3) 0.349(4) 0.4389(7) 0.025(3) Uani 0.127(2) 1 d D U P A 2
H17' H 1.2661 0.2496 0.4601 0.030 Uiso 0.127(2) 1 calc R U P A 2
C18' C 1.133(3) 0.548(4) 0.4550(6) 0.025(2) Uani 0.127(2) 1 d D U P A 2
H18' H 1.1581 0.5936 0.4866 0.030 Uiso 0.127(2) 1 calc R U P A 2
C19' C 1.029(3) 0.680(3) 0.4247(8) 0.024(2) Uani 0.127(2) 1 d D U P A 2
H19' H 0.9731 0.8117 0.4359 0.029 Uiso 0.127(2) 1 calc R U P A 2
C20' C 1.003(2) 0.621(3) 0.3778(7) 0.021(2) Uani 0.127(2) 1 d D U P A 2
H20' H 0.9350 0.7174 0.3569 0.025 Uiso 0.127(2) 1 calc R U P A 2
loop_
_atom_site_aniso_label
_atom_site_aniso_U_11
_atom_site_aniso_U_22
_atom_site_aniso_U_33
_atom_site_aniso_U_23
_atom_site_aniso_U_13
_atom_site_aniso_U_12
C1 0.0174(15) 0.0172(16) 0.0275(13) 0.0014(10) 0.0004(10) 0.0001(12)
C2 0.0182(10) 0.0172(11) 0.0283(11) 0.0009(9) -0.0004(8) 0.0026(8)
C3 0.0199(11) 0.0173(13) 0.0268(12) -0.0025(10) 0.0013(9) 0.0011(10)
C4 0.0226(11) 0.0231(12) 0.0263(14) -0.0023(12) -0.0009(11) 0.0007(9)
C5 0.0249(13) 0.0272(14) 0.0271(14) -0.0033(11) -0.0012(10) -0.0005(11)
C6 0.0280(13) 0.0299(16) 0.0268(13) 0.0026(12) -0.0031(10) 0.0008(12)
C7 0.0246(12) 0.0271(14) 0.0275(15) 0.0023(12) -0.0024(12) 0.0010(10)
C8 0.0178(12) 0.0213(13) 0.0269(13) 0.0038(10) -0.0011(9) 0.0008(10)
C9 0.0190(10) 0.0177(11) 0.0323(12) 0.0030(9) 0.0019(8) 0.0021(8)
C10 0.0176(11) 0.0158(12) 0.0309(12) 0.0018(11) 0.0028(9) -0.0001(10)
C11 0.0210(17) 0.0139(12) 0.0338(14) 0.0022(13) 0.0040(18) -0.0003(11)
C12 0.0216(12) 0.0153(12) 0.0310(12) -0.0016(10) 0.0036(9) -0.0011(10)
C13 0.0157(10) 0.0188(11) 0.0280(11) -0.0002(9) 0.0003(8) -0.0011(9)
C14 0.0183(12) 0.0153(13) 0.0298(13) -0.0013(10) -0.0007(9) 0.0007(11)
C15 0.0172(11) 0.0188(12) 0.0286(12) -0.0021(10) -0.0009(9) -0.0029(10)
C16 0.0248(11) 0.0249(12) 0.0274(14) -0.0021(11) -0.0013(11) 0.0009(10)
C17 0.0283(13) 0.0311(15) 0.0273(14) -0.0046(12) -0.0004(11) 0.0006(11)
C18 0.0269(13) 0.0309(15) 0.0257(12) 0.0013(12) -0.0005(10) -0.0020(12)
C19 0.0249(12) 0.0270(13) 0.0282(15) 0.0034(13) 0.0000(12) 0.0016(10)
C20 0.0247(12) 0.0236(13) 0.0254(13) -0.0004(10) 0.0000(10) -0.0003(10)
C1' 0.020(4) 0.015(4) 0.031(4) 0.001(4) 0.001(4) -0.001(4)
C2' 0.019(4) 0.020(4) 0.030(4) 0.004(4) 0.002(4) -0.003(4)
C3' 0.020(4) 0.022(4) 0.026(4) 0.003(4) 0.001(3) 0.000(4)
C4' 0.023(4) 0.026(4) 0.021(5) 0.003(5) 0.003(5) 0.000(4)
C5' 0.027(4) 0.027(4) 0.027(4) -0.002(4) 0.001(4) 0.000(4)
C6' 0.026(4) 0.027(4) 0.027(4) 0.000(4) -0.002(4) 0.002(4)
C7' 0.026(4) 0.027(4) 0.027(4) 0.001(4) 0.000(4) 0.002(4)
C8' 0.022(4) 0.023(4) 0.024(4) -0.002(4) 0.000(4) 0.000(4)
C9' 0.023(4) 0.023(4) 0.029(4) -0.002(4) 0.002(4) -0.002(4)
C10' 0.018(4) 0.017(4) 0.032(4) -0.005(4) 0.002(4) 0.000(4)
C11' 0.019(5) 0.017(5) 0.032(5) -0.004(5) 0.005(5) 0.000(5)
C12' 0.020(4) 0.020(5) 0.035(4) 0.002(4) 0.006(4) 0.001(4)
C13' 0.021(3) 0.020(3) 0.034(3) 0.002(3) 0.001(3) 0.002(3)
C14' 0.019(4) 0.016(4) 0.034(4) 0.004(4) 0.002(4) 0.002(4)
C15' 0.020(4) 0.018(4) 0.027(4) 0.002(4) -0.001(3) 0.002(4)
C16' 0.022(4) 0.020(4) 0.026(4) 0.001(4) -0.003(4) 0.003(4)
C17' 0.025(4) 0.024(5) 0.027(5) 0.000(4) -0.003(5) 0.006(4)
C18' 0.025(4) 0.024(4) 0.025(4) -0.001(4) -0.002(4) 0.001(4)
C19' 0.026(4) 0.020(4) 0.026(4) -0.002(4) -0.003(4) 0.004(4)
C20' 0.021(4) 0.017(4) 0.025(4) 0.000(4) 0.000(4) 0.003(4)
loop_
_atom_type_symbol
_atom_type_description
_atom_type_scat_dispersion_real
_atom_type_scat_dispersion_imag
_atom_type_scat_source
C C 0.0181 0.0091 'International Tables Vol C Tables 4.2.6.8 and 6.1.1.4'
H H 0.0000 0.0000 'International Tables Vol C Tables 4.2.6.8 and 6.1.1.4'
loop_
_geom_angle_atom_site_label_1
_geom_angle_atom_site_label_2
_geom_angle_atom_site_label_3
_geom_angle
C2 C1 C14 122.0(2)
C2 C1 C10 119.0(2)
C14 C1 C10 118.9(3)
C1 C2 C3 121.5(2)
C1 C2 H2 119.3
C3 C2 H2 119.3
C2 C3 C8 119.3(3)
C2 C3 C4 122.1(3)
C8 C3 C4 118.6(2)
C5 C4 C3 120.7(2)
C5 C4 H4 119.6
C3 C4 H4 119.6
C4 C5 C6 120.6(3)
C4 C5 H5 119.7
C6 C5 H5 119.7
C7 C6 C5 120.4(2)
C7 C6 H6 119.8
C5 C6 H6 119.8
C6 C7 C8 120.7(3)
C6 C7 H7 119.6
C8 C7 H7 119.6
C9 C8 C7 121.7(3)
C9 C8 C3 119.4(3)
C7 C8 C3 118.9(2)
C10 C9 C8 121.0(2)
C10 C9 H9 119.5
C8 C9 H9 119.5
C9 C10 C11 122.2(3)
C9 C10 C1 119.7(2)
C11 C10 C1 118.0(3)
C12 C11 C10 121.2(3)
C12 C11 H11 119.4
C10 C11 H11 119.4
C11 C12 C13 121.9(3)
C11 C12 H12 119.1
C13 C12 H12 119.1
C14 C13 C12 117.1(2)
C14 C13 C15 122.8(2)
C12 C13 C15 120.0(2)
C13 C14 C1 122.6(3)
C13 C14 H14 118.7
C1 C14 H14 118.7
C16 C15 C20 117.2(2)
C16 C15 C13 121.4(3)
C20 C15 C13 121.5(3)
C17 C16 C15 121.6(2)
C17 C16 H16 119.2
C15 C16 H16 119.2
C16 C17 C18 120.2(3)
C16 C17 H17 119.9
C18 C17 H17 119.9
C19 C18 C17 119.4(2)
C19 C18 H18 120.3
C17 C18 H18 120.3
C18 C19 C20 120.3(3)
C18 C19 H19 119.9
C20 C19 H19 119.9
C19 C20 C15 121.3(2)
C19 C20 H20 119.3
C15 C20 H20 119.3
C2' C1' C14' 122.5(15)
C2' C1' C10' 119.8(15)
C14' C1' C10' 117.3(15)
C1' C2' C3' 120.0(14)
C1' C2' H2' 120.0
C3' C2' H2' 120.0
C2' C3' C8' 120.1(15)
C2' C3' C4' 120.7(16)
C8' C3' C4' 119.2(13)
C5' C4' C3' 121.7(15)
C5' C4' H4' 119.1
C3' C4' H4' 119.1
C4' C5' C6' 118.7(16)
C4' C5' H5' 120.6
C6' C5' H5' 120.6
C7' C6' C5' 120.6(16)
C7' C6' H6' 119.7
C5' C6' H6' 119.7
C6' C7' C8' 122.0(16)
C6' C7' H7' 119.0
C8' C7' H7' 119.0
C9' C8' C3' 120.3(16)
C9' C8' C7' 122.1(16)
C3' C8' C7' 117.7(13)
C10' C9' C8' 119.3(14)
C10' C9' H9' 120.4
C8' C9' H9' 120.4
C9' C10' C1' 120.6(14)
C9' C10' C11' 121.6(15)
C1' C10' C11' 117.6(15)
C12' C11' C10' 122.7(19)
C12' C11' H11' 118.7
C10' C11' H11' 118.7
C11' C12' C13' 120.7(17)
C11' C12' H12' 119.7
C13' C12' H12' 119.7
C14' C13' C12' 115.4(14)
C14' C13' C15' 124.1(15)
C12' C13' C15' 120.4(13)
C13' C14' C1' 125.8(19)
C13' C14' H14' 117.1
C1' C14' H14' 117.1
C16' C15' C20' 117.1(13)
C16' C15' C13' 120.8(17)
C20' C15' C13' 122.1(17)
C15' C16' C17' 122.4(15)
C15' C16' H16' 118.8
C17' C16' H16' 118.8
C18' C17' C16' 119.8(16)
C18' C17' H17' 120.1
C16' C17' H17' 120.1
C19' C18' C17' 119.2(15)
C19' C18' H18' 120.4
C17' C18' H18' 120.4
C18' C19' C20' 120.1(15)
C18' C19' H19' 119.9
C20' C19' H19' 119.9
C19' C20' C15' 121.2(14)
C19' C20' H20' 119.4
C15' C20' H20' 119.4
loop_
_geom_bond_atom_site_label_1
_geom_bond_atom_site_label_2
_geom_bond_distance
C1 C2 1.395(4)
C1 C14 1.426(3)
C1 C10 1.433(4)
C2 C3 1.397(3)
C2 H2 0.9500
C3 C8 1.431(4)
C3 C4 1.433(4)
C4 C5 1.360(4)
C4 H4 0.9500
C5 C6 1.421(4)
C5 H5 0.9500
C6 C7 1.365(4)
C6 H6 0.9500
C7 C8 1.425(4)
C7 H7 0.9500
C8 C9 1.398(3)
C9 C10 1.394(3)
C9 H9 0.9500
C10 C11 1.423(5)
C11 C12 1.364(5)
C11 H11 0.9500
C12 C13 1.443(3)
C12 H12 0.9500
C13 C14 1.379(3)
C13 C15 1.490(3)
C14 H14 0.9500
C15 C16 1.400(4)
C15 C20 1.404(4)
C16 C17 1.389(4)
C16 H16 0.9500
C17 C18 1.389(4)
C17 H17 0.9500
C18 C19 1.386(4)
C18 H18 0.9500
C19 C20 1.393(4)
C19 H19 0.9500
C20 H20 0.9500
C1' C2' 1.378(16)
C1' C14' 1.418(17)
C1' C10' 1.425(16)
C2' C3' 1.395(15)
C2' H2' 0.9500
C3' C8' 1.409(16)
C3' C4' 1.428(16)
C4' C5' 1.355(16)
C4' H4' 0.9500
C5' C6' 1.418(17)
C5' H5' 0.9500
C6' C7' 1.357(17)
C6' H6' 0.9500
C7' C8' 1.413(16)
C7' H7' 0.9500
C8' C9' 1.397(15)
C9' C10' 1.385(15)
C9' H9' 0.9500
C10' C11' 1.425(19)
C11' C12' 1.37(2)
C11' H11' 0.9500
C12' C13' 1.444(15)
C12' H12' 0.9500
C13' C14' 1.370(16)
C13' C15' 1.506(15)
C14' H14' 0.9500
C15' C16' 1.368(16)
C15' C20' 1.390(16)
C16' C17' 1.376(17)
C16' H16' 0.9500
C17' C18' 1.375(17)
C17' H17' 0.9500
C18' C19' 1.372(17)
C18' H18' 0.9500
C19' C20' 1.384(17)
C19' H19' 0.9500
C20' H20' 0.9500
loop_
_geom_torsion_atom_site_label_1
_geom_torsion_atom_site_label_2
_geom_torsion_atom_site_label_3
_geom_torsion_atom_site_label_4
_geom_torsion
C14 C1 C2 C3 -174.6(3)
C10 C1 C2 C3 2.3(5)
C1 C2 C3 C8 -0.4(4)
C1 C2 C3 C4 179.3(3)
C2 C3 C4 C5 -179.5(2)
C8 C3 C4 C5 0.2(4)
C3 C4 C5 C6 0.5(4)
C4 C5 C6 C7 -0.5(4)
C5 C6 C7 C8 -0.1(4)
C6 C7 C8 C9 -178.7(2)
C6 C7 C8 C3 0.8(4)
C2 C3 C8 C9 -1.6(3)
C4 C3 C8 C9 178.7(2)
C2 C3 C8 C7 178.9(2)
C4 C3 C8 C7 -0.8(3)
C7 C8 C9 C10 -178.7(2)
C3 C8 C9 C10 1.7(3)
C8 C9 C10 C11 178.5(7)
C8 C9 C10 C1 0.1(4)
C2 C1 C10 C9 -2.1(5)
C14 C1 C10 C9 174.8(3)
C2 C1 C10 C11 179.4(7)
C14 C1 C10 C11 -3.6(8)
C9 C10 C11 C12 -173.7(7)
C1 C10 C11 C12 4.7(14)
C10 C11 C12 C13 -1.8(15)
C11 C12 C13 C14 -2.3(8)
C11 C12 C13 C15 175.6(8)
C12 C13 C14 C1 3.4(5)
C15 C13 C14 C1 -174.5(3)
C2 C1 C14 C13 176.4(3)
C10 C1 C14 C13 -0.5(6)
C14 C13 C15 C16 172.0(3)
C12 C13 C15 C16 -5.8(3)
C14 C13 C15 C20 -6.7(4)
C12 C13 C15 C20 175.5(2)
C20 C15 C16 C17 -1.0(4)
C13 C15 C16 C17 -179.8(2)
C15 C16 C17 C18 0.7(4)
C16 C17 C18 C19 0.3(4)
C17 C18 C19 C20 -0.9(4)
C18 C19 C20 C15 0.5(4)
C16 C15 C20 C19 0.4(3)
C13 C15 C20 C19 179.2(2)
C14' C1' C2' C3' 173(3)
C10' C1' C2' C3' 1(3)
C1' C2' C3' C8' -1(3)
C1' C2' C3' C4' 180.0(19)
C2' C3' C4' C5' 178.8(17)
C8' C3' C4' C5' -1(3)
C3' C4' C5' C6' 1(3)
C4' C5' C6' C7' -3(3)
C5' C6' C7' C8' 3(3)
C2' C3' C8' C9' 0(3)
C4' C3' C8' C9' 179.3(16)
C2' C3' C8' C7' -178.5(16)
C4' C3' C8' C7' 1(3)
C6' C7' C8' C9' 179.3(18)
C6' C7' C8' C3' -2(3)
C3' C8' C9' C10' 1(3)
C7' C8' C9' C10' 178.9(18)
C8' C9' C10' C1' 0(3)
C8' C9' C10' C11' -174(5)
C2' C1' C10' C9' 0(3)
C14' C1' C10' C9' -173(3)
C2' C1' C10' C11' 174(5)
C14' C1' C10' C11' 1(6)
C9' C10' C11' C12' 178(6)
C1' C10' C11' C12' 3(11)
C10' C11' C12' C13' -8(11)
C11' C12' C13' C14' 8(6)
C11' C12' C13' C15' -171(5)
C12' C13' C14' C1' -4(5)
C15' C13' C14' C1' 175(3)
C2' C1' C14' C13' -173(3)
C10' C1' C14' C13' 0(5)
C14' C13' C15' C16' -171(3)
C12' C13' C15' C16' 8(3)
C14' C13' C15' C20' 9(3)
C12' C13' C15' C20' -172.1(17)
C20' C15' C16' C17' 3(3)
C13' C15' C16' C17' -177.3(17)
C15' C16' C17' C18' -5(3)
C16' C17' C18' C19' 6(3)
C17' C18' C19' C20' -5(3)
C18' C19' C20' C15' 3(3)
C16' C15' C20' C19' -2(3)
C13' C15' C20' C19' 178.3(17)
