#------------------------------------------------------------------------------
#$Date: 2016-08-04 12:12:02 +0300 (Thu, 04 Aug 2016) $
#$Revision: 184820 $
#$URL: file:///home/coder/svn-repositories/cod/cif/4/34/48/4344883.cif $
#------------------------------------------------------------------------------
#
# This file is available in the Crystallography Open Database (COD),
# http://www.crystallography.net/
#
# All data on this site have been placed in the public domain by the
# contributors.
#
data_4344883
loop_
_publ_author_name
'Kilduff, Brandon J.'
'Fredrickson, Daniel C.'
_publ_section_title
;
 Chemical Pressure-Driven Incommensurability in CaPd5: Clues to
 High-Pressure Chemistry Offered by Complex Intermetallics.
;
_journal_issue                   13
_journal_name_full               'Inorganic chemistry'
_journal_page_first              6781
_journal_page_last               6793
_journal_paper_doi               10.1021/acs.inorgchem.6b01124
_journal_volume                  55
_journal_year                    2016
_chemical_formula_analytical     'Ca1 Pd5.219'
_chemical_formula_iupac          'Ca1 Pd5.219'
_chemical_formula_structural     'Ca1 Pd5.219'
_chemical_formula_sum            'Ca Pd5.219'
_chemical_formula_weight         595.4
_chemical_name_systematic        ' ?'
_space_group_IT_number           63
_space_group_ssg_name            Cmcm(0\b0)s00
_symmetry_cell_setting           orthorhombic
_symmetry_space_group_name_Hall  '-C 2c 2'
_symmetry_space_group_name_H-M   'C m c m'
_cell_angle_alpha                90
_cell_angle_beta                 90
_cell_angle_gamma                90
_cell_formula_units_Z            8
_cell_length_a                   5.1604(11)
_cell_length_b                   9.1488(18)
_cell_length_c                   17.745(3)
_cell_measurement_reflns_used    2933
_cell_measurement_temperature    293
_cell_measurement_theta_max      27.0570
_cell_measurement_theta_min      4.4970
_cell_modulation_dimension       1
_cell_volume                     837.8(3)
_computing_cell_refinement       'CrysAlisPro 1.171.38.41 (Rigaku OD, 2015)'
_computing_data_collection       'CrysAlisPro 1.171.38.41 (Rigaku OD, 2015)'
_computing_data_reduction        'CrysAlisPro 1.171.38.41 (Rigaku OD, 2015)'
_diffrn_ambient_temperature      293
_diffrn_detector                 'CCD plate'
_diffrn_detector_area_resol_mean 16.1500
_diffrn_measured_fraction_theta_full 0.98
_diffrn_measured_fraction_theta_max 0.96
_diffrn_measurement_device       'four-circle diffractometer'
_diffrn_measurement_device_type  'Xcalibur, Eos'
_diffrn_measurement_method       '\w scans'
_diffrn_measurement_specimen_support MiTeGen
_diffrn_radiation_monochromator  graphite
_diffrn_radiation_probe          x-ray
_diffrn_radiation_source         'X-ray tube'
_diffrn_radiation_type           'Mo K\a'
_diffrn_radiation_wavelength     0.71073
_diffrn_reflns_av_R_equivalents  0.0309
_diffrn_reflns_av_unetI/netI     0.0205
_diffrn_reflns_limit_h_max       6
_diffrn_reflns_limit_h_min       -6
_diffrn_reflns_limit_index_m_1_max 3
_diffrn_reflns_limit_index_m_1_min -3
_diffrn_reflns_limit_k_max       11
_diffrn_reflns_limit_k_min       -11
_diffrn_reflns_limit_l_max       22
_diffrn_reflns_limit_l_min       -22
_diffrn_reflns_number            17521
_diffrn_reflns_theta_full        26.96
_diffrn_reflns_theta_max         27.23
_diffrn_reflns_theta_min         3.39
_diffrn_source                   'fine-focus sealed X-ray tube'
_diffrn_source_current           40
_diffrn_source_power             2000
_diffrn_source_type              'Enhance (Mo) X-ray Source'
_diffrn_source_voltage           50
_exptl_absorpt_coefficient_mu    22.965
_exptl_absorpt_correction_T_max  0.00856
_exptl_absorpt_correction_T_min  0.00114
_exptl_absorpt_correction_type   multi-scan
_exptl_absorpt_process_details
;
CrysAlisPro 1.171.38.41 (Rigaku Oxford Diffraction, 2015)
Spherical absorption correction
 using equivalent radius and absorption coefficient.
Empirical absorption correction using spherical harmonics,
 implemented in SCALE3 ABSPACK scaling algorithm.
;
_exptl_crystal_colour            'metallic gray'
_exptl_crystal_density_diffrn    9.441
_exptl_crystal_description       needle
_exptl_crystal_F_000             2081
_exptl_crystal_size_max          0.0900
_exptl_crystal_size_mid          0.0210
_exptl_crystal_size_min          0.0119
_refine_diff_density_max         2.97
_refine_diff_density_min         -2.84
_refine_ls_extinction_coef       245(9)
_refine_ls_extinction_method
'B-C type 1 Gaussian isotropic (Becker & Coppens, 1974)'
_refine_ls_goodness_of_fit_gt    1.71
_refine_ls_goodness_of_fit_ref   1.28
_refine_ls_number_constraints    0
_refine_ls_number_parameters     102
_refine_ls_number_reflns         3206
_refine_ls_number_restraints     0
_refine_ls_R_factor_all          0.0832
_refine_ls_R_factor_gt           0.0294
_refine_ls_shift/su_max          0.0170
_refine_ls_shift/su_mean         0.0016
_refine_ls_structure_factor_coef Fsqd
_refine_ls_weighting_details     w=1/(\s^2^(I)+0.0004I^2^)
_refine_ls_weighting_scheme      sigma
_refine_ls_wR_factor_gt          0.0721
_refine_ls_wR_factor_ref         0.0950
_reflns_number_gt                1096
_reflns_number_total             3206
_reflns_threshold_expression     I>3\s(I)
_cod_data_source_file            ic6b01124_si_002.cif
_cod_data_source_block           I
_cod_depositor_comments
;
The following automatic conversions were performed:

'_diffrn_radiation_probe' value 'X-ray' changed to 'x-ray' according
to
/usr/data/users/saulius/crontab/automatic-downloads/current/ACS/lib/dictionaries/cif_core.dic
dictionary named 'cif_core.dic' version 2.4.2 from 2011-04-26.

Automatic conversion script
Id: cif_fix_values 4268 2015-11-12 08:31:59Z antanas 
;
_cod_original_formula_sum        'Ca1 Pd5.219'
_cod_database_code               4344883
loop_
_space_group_symop_id
_space_group_symop_operation_xyz
1 x,y,z
2 -x,-y,z+0.5
3 -x,y,-z+0.5
4 x,-y,-z
5 x+0.5,y+0.5,z
6 -x+0.5,-y+0.5,z+0.5
7 -x+0.5,y+0.5,-z+0.5
8 x+0.5,-y+0.5,-z
9 -x,-y,-z
10 x,y,-z+0.5
11 x,-y,z+0.5
12 -x,y,z
13 -x+0.5,-y+0.5,-z
14 x+0.5,y+0.5,-z+0.5
15 x+0.5,-y+0.5,z+0.5
16 -x+0.5,y+0.5,z
loop_
_space_group_symop_ssg_id
_space_group_symop_ssg_operation_algebraic
1 x1,x2,x3,x4
2 -x1,-x2,x3+1/2,-x4
3 -x1,x2,-x3+1/2,x4+1/2
4 x1,-x2,-x3,-x4+1/2
5 -x1,-x2,-x3,-x4
6 x1,x2,-x3+1/2,x4
7 x1,-x2,x3+1/2,-x4+1/2
8 -x1,x2,x3,x4+1/2
9 x1+1/2,x2+1/2,x3,x4
10 -x1+1/2,-x2+1/2,x3+1/2,-x4
11 -x1+1/2,x2+1/2,-x3+1/2,x4+1/2
12 x1+1/2,-x2+1/2,-x3,-x4+1/2
13 -x1+1/2,-x2+1/2,-x3,-x4
14 x1+1/2,x2+1/2,-x3+1/2,x4
15 x1+1/2,-x2+1/2,x3+1/2,-x4+1/2
16 -x1+1/2,x2+1/2,x3,x4+1/2
loop_
_atom_site_label
_atom_site_type_symbol
_atom_site_fract_x
_atom_site_fract_y
_atom_site_fract_z
_atom_site_adp_type
_atom_site_U_iso_or_equiv
_atom_site_site_symmetry_multiplicity
_atom_site_occupancy
_atom_site_calc_flag
Pd1 Pd 0.8058(2) 0 0 Uani 0.0213(3) 8 0.68 d
Pd2 Pd 0.68124(19) -0.17471(9) 0.00077(3) Uani 0.0165(2) 16 0.5195 d
Pd3 Pd 1 -0.33303(7) -0.25 Uani 0.00798(18) 4 1 d
Pd4 Pd 0.75017(9) -0.08314(5) -0.25 Uani 0.00784(14) 8 1 d
Pd5 Pd 1 -0.16558(7) -0.12071(2) Uani 0.00960(15) 8 1 d
Pd6 Pd 0.5 0.00086(8) 0.12105(3) Uani 0.01150(15) 8 1 d
Ca1 Ca 1 -0.16759(17) 0.14608(8) Uani 0.0105(4) 8 1 d
loop_
_atom_site_aniso_label
_atom_site_aniso_type_symbol
_atom_site_aniso_U_11
_atom_site_aniso_U_22
_atom_site_aniso_U_33
_atom_site_aniso_U_12
_atom_site_aniso_U_13
_atom_site_aniso_U_23
Pd1 Pd 0.0337(7) 0.0203(7) 0.0099(4) 0 0 -0.0026(5)
Pd2 Pd 0.0236(4) 0.0170(4) 0.0088(3) -0.0042(3) 0.0032(3) 0.0002(4)
Pd3 Pd 0.0082(3) 0.0067(3) 0.0090(3) 0 0 0
Pd4 Pd 0.0053(2) 0.0095(3) 0.0087(2) 0.00140(16) 0 0
Pd5 Pd 0.0091(2) 0.0136(3) 0.0061(3) 0 0 -0.0001(2)
Pd6 Pd 0.0110(2) 0.0154(3) 0.0081(2) 0 0 -0.0003(2)
Ca1 Ca 0.0078(6) 0.0103(6) 0.0136(6) 0 0 0.0011(6)
loop_
_atom_site_displace_Fourier_atom_site_label
_atom_site_displace_Fourier_axis
_atom_site_displace_Fourier_wave_vector_seq_id
_atom_site_displace_Fourier_param_cos
_atom_site_displace_Fourier_param_sin
Pd3 x 1 0.00189(17) 0.01593(15)
Pd3 y 1 0 0
Pd3 z 1 0 0
Pd4 x 1 0.00167(11) 0.01624(10)
Pd4 y 1 0.00037(9) -0.00001(7)
Pd4 z 1 0 0
Pd5 x 1 0.00266(13) 0.02465(11)
Pd5 y 1 0 0
Pd5 z 1 0 0
Pd5 x 2 0 0
Pd5 y 2 0.00070(18) 0.00214(10)
Pd5 z 2 0.00012(5) 0.00013(9)
Pd6 x 1 0.00013(13) 0.02356(12)
Pd6 y 1 0 0
Pd6 z 1 0 0
Pd6 x 2 0 0
Pd6 y 2 0.00020(14) 0.00135(12)
Pd6 z 2 -0.00030(6) 0.00019(7)
Ca1 x 1 -0.0043(3) 0.0214(3)
Ca1 y 1 0 0
Ca1 z 1 0 0
Ca1 x 2 0 0
Ca1 y 2 -0.0004(4) 0.0008(3)
Ca1 z 2 0.00041(12) 0.0003(2)
loop_
_atom_site_Fourier_wave_vector_seq_id
_jana_atom_site_fourier_wave_vector_q1_coeff
1 1
2 2
loop_
_atom_site_occ_special_func_atom_site_label
_atom_site_occ_special_func_crenel_c
_atom_site_occ_special_func_crenel_w
Pd1 0.25 0.68
Pd2 0.7734 0.5195
loop_
_atom_type_symbol
_atom_type_scat_dispersion_real
_atom_type_scat_dispersion_imag
_atom_type_scat_source
Ca 0.2262 0.3064 'International Tables Vol C tables 4.2.6.8 and 6.1.1.1'
Pd -0.9988 1.0072 'International Tables Vol C tables 4.2.6.8 and 6.1.1.1'
loop_
_cell_wave_vector_seq_id
_cell_wave_vector_x
_cell_wave_vector_y
_cell_wave_vector_z
1 0.000000 0.4398(2) 0.000000
loop_
_geom_angle_atom_site_label_1
_geom_angle_atom_site_label_2
_geom_angle_atom_site_label_3
_geom_angle_site_ssg_symmetry_1
_geom_angle_site_ssg_symmetry_3
_geom_angle_av
_geom_angle_min
_geom_angle_max
Pd1 Pd1 Pd1 5_6555 5_7555 126.02(17) 124.6(2) 126.74(16)
Pd1 Pd1 Pd2 5_6555 . 55.9(2) 54.9(2) 58.0(2)
Pd1 Pd1 Pd2 5_6555 4_5555 56.1(2) 54.9(2) 58.4(2)
Pd1 Pd1 Pd2 5_6555 5_6555 53.2(2) 52.92(19) 54.53(18)
Pd1 Pd1 Pd2 5_6555 5_7555 177.3(2) 177.0(2) 177.9(3)
Pd1 Pd1 Pd2 5_6555 13_6455 121.2(3) 118.7(3) 125.7(3)
Pd1 Pd1 Pd2 5_6555 8_6555 53.2(2) 52.85(19) 54.53(18)
Pd1 Pd1 Pd2 5_6555 8_7555 177.3(2) 176.4(3) 177.9(3)
Pd1 Pd1 Pd2 5_6555 16_6555 120.9(3) 118.7(3) 125.1(3)
Pd1 Pd1 Pd2 5_7555 . 70.2(2) 67.1(2) 71.5(2)
Pd1 Pd1 Pd2 5_7555 4_5555 70.0(2) 66.3(2) 71.5(2)
Pd1 Pd1 Pd2 5_7555 5_6555 177.3(3) 176.9(3) 177.7(3)
Pd1 Pd1 Pd2 5_7555 5_7555 54.7(2) 52.76(18) 56.09(18)
Pd1 Pd1 Pd2 5_7555 13_6455 112.6(3) 109.5(3) 116.5(3)
Pd1 Pd1 Pd2 5_7555 8_6555 177.3(3) 176.6(3) 177.7(3)
Pd1 Pd1 Pd2 5_7555 8_7555 54.6(2) 52.37(17) 56.09(18)
Pd1 Pd1 Pd2 5_7555 16_6555 112.8(4) 109.6(3) 116.5(3)
Pd2 Pd1 Pd2 . 5_6555 109.2(4) 108.2(4) 111.0(3)
Pd2 Pd1 Pd2 . 5_7555 125.0(4) 119.8(3) 126.9(4)
Pd2 Pd1 Pd2 . 8_6555 57.7(3) 57.7(3) 57.7(3)
Pd2 Pd1 Pd2 . 8_7555 68.3(3) 68.3(3) 68.3(3)
Pd2 Pd1 Pd2 . 16_6555 175.1(4) 173.4(4) 177.3(3)
Pd2 Pd1 Pd2 4_5555 5_6555 57.7(3) 57.7(3) 57.7(3)
Pd2 Pd1 Pd2 4_5555 5_7555 68.3(3) 68.3(3) 68.3(3)
Pd2 Pd1 Pd2 4_5555 13_6455 175.1(4) 173.4(4) 177.3(3)
Pd2 Pd1 Pd2 4_5555 8_6555 109.4(4) 108.2(4) 111.2(3)
Pd2 Pd1 Pd2 4_5555 8_7555 124.6(3) 118.6(3) 126.9(4)
Pd2 Pd1 Pd2 5_6555 5_7555 124.9(2) 123.8(2) 129.1(2)
Pd2 Pd1 Pd2 5_6555 13_6455 114.1(3) 107.8(2) 117.0(2)
Pd2 Pd1 Pd2 5_6555 8_6555 54.55(19) 52.75(19) 55.3(2)
Pd2 Pd1 Pd2 5_6555 8_7555 178.4(3) 177.0(3) 179.4(2)
Pd2 Pd1 Pd2 5_6555 16_6555 62.7(2) 54.6(2) 72.2(2)
Pd2 Pd1 Pd2 5_7555 13_6455 121.5(3) 117.2(3) 127.5(2)
Pd2 Pd1 Pd2 5_7555 8_6555 178.4(3) 177.0(3) 179.4(2)
Pd2 Pd1 Pd2 5_7555 8_7555 56.7(2) 56.5(2) 56.7(2)
Pd2 Pd1 Pd2 5_7555 16_6555 62.2(2) 56.8(2) 70.9(2)
Pd2 Pd1 Pd2 13_6455 8_6555 62.8(3) 54.6(2) 72.9(3)
Pd2 Pd1 Pd2 13_6455 8_7555 62.2(3) 56.8(3) 70.9(3)
Pd2 Pd1 Pd2 13_6455 16_6555 173.4(3) 171.2(3) 174.5(4)
Pd2 Pd1 Pd2 8_6555 8_7555 125.0(2) 123.8(2) 130.1(2)
Pd2 Pd1 Pd2 8_6555 16_6555 114.1(3) 107.8(2) 117.0(2)
Pd2 Pd1 Pd2 8_7555 16_6555 121.5(3) 117.2(3) 127.5(2)
Pd1 Pd2 Pd1 . 5_6555 70.9(3) 67.8(2) 72.1(3)
Pd1 Pd2 Pd1 . 5_7555 55.2(3) 54.0(3) 58.2(2)
Pd1 Pd2 Pd1 . 13_6455 175.0(4) 173.2(4) 179.8(4)
Pd1 Pd2 Pd2 . 12_4455 125.2(4) 123.5(3) 126.1(4)
Pd1 Pd2 Pd2 . 12_5455 108.9(4) 107.2(4) 112.2(4)
Pd1 Pd2 Pd2 . 8_6555 71.9(2) 71.9(2) 71.9(2)
Pd1 Pd2 Pd2 . 8_7555 57.2(2) 57.2(2) 57.2(2)
Pd1 Pd2 Pd1 5_6555 5_7555 125.0(2) 123.8(2) 130.1(2)
Pd1 Pd2 Pd1 5_6555 13_6455 118.9(3) 107.9(3) 125.7(3)
Pd1 Pd2 Pd2 5_6555 4_5555 62.7(2) 57.8(2) 69.5(2)
Pd1 Pd2 Pd2 5_6555 12_4455 55.2(2) 52.3(2) 56.0(2)
Pd1 Pd2 Pd2 5_6555 12_5455 178.8(3) 177.2(3) 179.8(3)
Pd1 Pd2 Pd2 5_6555 13_6455 121.4(4) 120.9(4) 121.9(4)
Pd1 Pd2 Pd2 5_6555 8_6555 50.4(2) 50.4(2) 50.4(2)
Pd1 Pd2 Pd2 5_6555 8_7555 178.4(3) 178.4(3) 178.4(3)
Pd1 Pd2 Pd1 5_7555 13_6455 116.1(3) 109.6(3) 122.0(3)
Pd1 Pd2 Pd2 5_7555 4_5555 61.7(2) 55.2(2) 68.3(2)
Pd1 Pd2 Pd2 5_7555 12_4455 179.0(4) 177.6(2) 180.0(5)
Pd1 Pd2 Pd2 5_7555 12_5455 54.3(2) 52.7(2) 55.7(2)
Pd1 Pd2 Pd2 5_7555 13_6455 112.9(4) 112.9(4) 113.0(4)
Pd1 Pd2 Pd2 5_7555 8_6555 176.1(3) 176.1(3) 176.1(3)
Pd1 Pd2 Pd2 5_7555 8_7555 54.5(3) 54.5(3) 54.5(3)
Pd1 Pd2 Pd2 13_6455 4_5555 174.1(4) 172.6(4) 175.0(4)
Pd1 Pd2 Pd2 13_6455 12_4455 63.6(2) 54.55(19) 70.5(3)
Pd1 Pd2 Pd2 13_6455 12_5455 61.9(2) 54.7(2) 69.6(2)
Pd1 Pd2 Pd2 13_6455 8_6555 106.4(3) 106.4(3) 106.4(3)
Pd1 Pd2 Pd2 13_6455 8_7555 124.6(3) 124.6(3) 124.6(3)
Pd2 Pd2 Pd2 4_5555 12_4455 118.5(4) 113.8(4) 125.4(4)
Pd2 Pd2 Pd2 4_5555 12_5455 116.3(4) 110.2(4) 123.0(4)
Pd2 Pd2 Pd2 4_5555 13_6455 178.3(4) 178.1(5) 178.5(4)
Pd2 Pd2 Pd2 4_5555 8_6555 108.2(4) 108.2(4) 108.2(4)
Pd2 Pd2 Pd2 4_5555 8_7555 122.8(4) 122.8(4) 122.8(4)
Pd2 Pd2 Pd2 12_4455 12_5455 125.5(3) 123.1(2) 126.8(3)
Pd2 Pd2 Pd2 12_4455 13_6455 66.2(3) 65.9(3) 66.4(3)
Pd2 Pd2 Pd2 12_4455 8_6555 51.8(2) 51.8(2) 51.8(2)
Pd2 Pd2 Pd2 12_4455 8_7555 179.1(3) 179.1(3) 179.1(3)
Pd2 Pd2 Pd2 12_5455 13_6455 57.5(2) 57.2(2) 57.7(2)
Pd2 Pd2 Pd2 12_5455 8_6555 175.9(3) 175.9(3) 175.9(3)
Pd2 Pd2 Pd2 12_5455 8_7555 55.0(3) 55.0(3) 55.0(3)
Pd2 Pd2 Pd2 13_6455 8_6555 70.5(3) 70.5(3) 70.5(3)
Pd2 Pd2 Pd2 13_6455 8_7555 58.5(3) 58.5(3) 58.5(3)
Pd2 Pd2 Pd2 8_6555 8_7555 129.0(2) 129.0(2) 129.0(2)
Pd1 Pd5 Pd1 . 9_5455 91.94(15) 88.13(14) 93.30(15)
Pd1 Pd5 Pd1 . 5_7555 52.94(17) 50.13(13) 58.21(15)
Pd1 Pd5 Pd2 . . 52.43(17) 49.37(15) 54.47(18)
Pd1 Pd5 Pd2 . 12_5455 92.12(19) 91.59(19) 93.3(2)
Pd1 Pd5 Pd2 . 5_7555 45.86(17) 42.54(14) 48.46(16)
Pd1 Pd5 Pd2 . 13_6455 58.31(18) 52.47(18) 60.2(2)
Pd1 Pd5 Pd2 . 8_7555 65.5(2) 56.17(19) 70.8(2)
Pd1 Pd5 Pd1 9_5455 5_7555 90.19(15) 88.86(15) 91.86(13)
Pd1 Pd5 Pd1 9_5455 13_6455 43.00(13) 40.73(9) 43.97(11)
Pd1 Pd5 Pd2 9_5455 . 83.66(18) 79.09(17) 87.69(19)
Pd1 Pd5 Pd2 9_5455 4_5555 119.33(15) 118.05(16) 120.03(15)
Pd1 Pd5 Pd2 9_5455 12_5455 30.38(17) 28.90(17) 32.13(16)
Pd1 Pd5 Pd2 9_5455 5_7555 92.00(15) 91.34(15) 92.26(15)
Pd1 Pd5 Pd2 9_5455 13_6455 48.17(18) 45.03(15) 53.30(19)
Pd1 Pd5 Pd2 9_5455 8_7555 43.93(16) 35.69(17) 51.69(17)
Pd1 Pd5 Pd1 5_7555 13_6455 91.92(15) 88.13(14) 93.30(15)
Pd1 Pd5 Pd2 5_7555 . 65.6(2) 56.17(19) 70.8(2)
Pd1 Pd5 Pd2 5_7555 4_5555 45.82(17) 42.25(13) 48.46(16)
Pd1 Pd5 Pd2 5_7555 12_5455 58.28(18) 52.47(18) 60.2(2)
Pd1 Pd5 Pd2 5_7555 13_6455 92.19(19) 91.59(19) 93.6(2)
Pd1 Pd5 Pd2 5_7555 8_7555 52.26(17) 48.98(16) 54.47(18)
Pd1 Pd5 Pd2 13_6455 . 43.83(16) 35.69(17) 51.69(17)
Pd1 Pd5 Pd2 13_6455 4_5555 92.00(15) 91.34(15) 92.26(15)
Pd1 Pd5 Pd2 13_6455 12_5455 48.12(18) 45.03(15) 53.30(19)
Pd1 Pd5 Pd2 13_6455 5_7555 119.34(15) 118.05(16) 120.03(15)
Pd1 Pd5 Pd2 13_6455 13_6455 30.38(17) 28.90(17) 32.13(16)
Pd1 Pd5 Pd2 13_6455 8_7555 83.66(18) 79.09(17) 87.69(19)
Pd2 Pd5 Pd2 . 4_5555 43.95(17) 37.64(15) 48.84(18)
Pd2 Pd5 Pd2 . 12_5455 64.2(2) 55.9(2) 72.0(3)
Pd2 Pd5 Pd2 . 13_6455 52.50(17) 51.78(17) 53.23(17)
Pd2 Pd5 Pd2 . 8_7555 68.5(3) 68.5(3) 68.5(3)
Pd2 Pd5 Pd2 4_5555 12_5455 93.1(2) 92.4(2) 93.8(2)
Pd2 Pd5 Pd2 4_5555 5_7555 40.29(18) 40.29(17) 40.29(18)
Pd2 Pd5 Pd2 4_5555 13_6455 90.35(18) 89.29(18) 90.85(19)
Pd2 Pd5 Pd2 4_5555 8_7555 87.1(2) 81.65(19) 89.5(2)
Pd2 Pd5 Pd2 12_5455 13_6455 55.9(2) 55.7(2) 56.0(2)
Pd2 Pd5 Pd2 12_5455 8_7555 52.50(18) 51.78(18) 53.23(18)
Pd2 Pd5 Pd2 5_7555 13_6455 93.1(2) 92.4(2) 93.8(2)
Pd2 Pd5 Pd2 5_7555 8_7555 43.95(17) 37.64(18) 48.84(17)
Pd2 Pd5 Pd2 13_6455 8_7555 64.3(3) 55.9(2) 72.0(3)
Pd1 Pd6 Pd1 . 5_6555 71.76(19) 70.11(16) 72.6(2)
Pd1 Pd6 Pd2 . . 53.70(16) 48.61(17) 57.88(18)
Pd1 Pd6 Pd2 . 4_5555 54.44(16) 49.27(17) 58.84(19)
Pd1 Pd6 Pd2 . 5_6555 62.3(2) 52.32(19) 72.2(2)
Pd1 Pd6 Pd2 . 13_6455 41.57(15) 30.72(16) 51.90(18)
Pd1 Pd6 Pd2 . 8_6555 62.5(2) 51.71(18) 71.4(2)
Pd1 Pd6 Pd2 . 16_6555 42.31(15) 32.69(15) 52.08(18)
Pd1 Pd6 Pd2 5_6555 . 62.4(2) 51.71(18) 71.4(2)
Pd1 Pd6 Pd2 5_6555 9_4555 42.21(15) 32.15(16) 52.08(18)
Pd1 Pd6 Pd2 5_6555 4_5555 62.2(2) 51.84(18) 72.2(2)
Pd1 Pd6 Pd2 5_6555 12_4455 41.45(15) 30.72(16) 51.90(18)
Pd1 Pd6 Pd2 5_6555 5_6555 54.47(16) 49.27(17) 58.84(19)
Pd1 Pd6 Pd2 5_6555 8_6555 53.90(16) 48.61(17) 58.40(19)
Pd2 Pd6 Pd2 . 9_4555 93.1(2) 92.1(2) 93.5(2)
Pd2 Pd6 Pd2 . 4_5555 59.7(2) 57.6(2) 60.7(2)
Pd2 Pd6 Pd2 . 12_4455 46.6(2) 44.0(2) 51.5(2)
Pd2 Pd6 Pd2 . 5_6555 91.2(2) 91.0(2) 91.6(2)
Pd2 Pd6 Pd2 . 8_6555 54.4(2) 54.4(2) 54.4(2)
Pd2 Pd6 Pd2 9_4555 4_5555 46.9(2) 44.64(18) 51.3(2)
Pd2 Pd6 Pd2 9_4555 12_4455 91.39(17) 90.68(17) 93.21(18)
Pd2 Pd6 Pd2 9_4555 5_6555 32.44(17) 32.04(17) 32.87(17)
Pd2 Pd6 Pd2 9_4555 8_6555 90.70(18) 89.65(18) 91.17(19)
Pd2 Pd6 Pd2 9_4555 16_6555 40.82(18) 40.77(17) 40.86(19)
Pd2 Pd6 Pd2 4_5555 12_4455 92.3(2) 92.1(2) 92.5(2)
Pd2 Pd6 Pd2 4_5555 5_6555 54.7(2) 54.7(2) 54.7(2)
Pd2 Pd6 Pd2 4_5555 8_6555 91.2(2) 91.0(2) 91.6(2)
Pd2 Pd6 Pd2 12_4455 5_6555 90.01(18) 89.52(18) 90.50(18)
Pd2 Pd6 Pd2 12_4455 13_6455 40.44(18) 40.36(19) 40.52(17)
Pd2 Pd6 Pd2 12_4455 8_6555 31.46(17) 31.08(17) 31.90(17)
Pd2 Pd6 Pd2 5_6555 13_6455 92.3(2) 92.1(2) 92.5(2)
Pd2 Pd6 Pd2 5_6555 8_6555 59.7(2) 57.55(18) 60.7(2)
Pd2 Pd6 Pd2 5_6555 16_6555 46.9(2) 44.6(2) 51.3(2)
Pd2 Pd6 Pd2 13_6455 8_6555 46.6(2) 43.98(18) 51.5(2)
Pd2 Pd6 Pd2 13_6455 16_6555 91.39(17) 90.68(17) 93.21(16)
Pd2 Pd6 Pd2 8_6555 16_6555 93.1(2) 92.1(2) 93.5(2)
Pd1 Ca1 Pd1 . 9_5455 81.89(15) 78.80(17) 83.12(16)
Pd1 Ca1 Pd1 . 5_7555 46.71(16) 44.99(14) 50.66(13)
Pd1 Ca1 Pd2 . . 46.16(15) 44.27(14) 47.19(15)
Pd1 Ca1 Pd2 . 12_5455 79.61(18) 78.66(17) 81.71(18)
Pd1 Ca1 Pd2 . 5_7555 42.02(16) 40.05(13) 43.74(15)
Pd1 Ca1 Pd2 . 13_6455 50.99(16) 46.16(16) 52.90(18)
Pd1 Ca1 Pd2 . 8_7555 57.3(2) 48.57(17) 61.7(2)
Pd1 Ca1 Pd1 9_5455 5_7555 82.57(14) 82.10(15) 83.60(13)
Pd1 Ca1 Pd1 9_5455 13_6455 41.14(12) 38.98(9) 42.04(13)
Pd1 Ca1 Pd2 9_5455 . 77.49(17) 73.58(16) 80.19(18)
Pd1 Ca1 Pd2 9_5455 12_5455 30.96(15) 29.68(15) 31.78(15)
Pd1 Ca1 Pd2 9_5455 5_7555 82.95(14) 81.85(15) 83.85(15)
Pd1 Ca1 Pd2 9_5455 13_6455 44.04(16) 42.59(15) 47.01(17)
Pd1 Ca1 Pd2 9_5455 8_7555 40.33(14) 35.29(16) 45.49(15)
Pd1 Ca1 Pd1 5_7555 13_6455 81.91(15) 78.80(17) 83.12(16)
Pd1 Ca1 Pd2 5_7555 . 57.3(2) 48.57(17) 61.7(2)
Pd1 Ca1 Pd2 5_7555 4_5555 41.99(16) 39.84(13) 43.74(15)
Pd1 Ca1 Pd2 5_7555 12_5455 50.97(16) 46.16(16) 52.90(18)
Pd1 Ca1 Pd2 5_7555 13_6455 79.74(18) 78.66(17) 82.09(19)
Pd1 Ca1 Pd2 5_7555 8_7555 46.05(15) 44.03(14) 47.19(15)
Pd1 Ca1 Pd2 13_6455 . 40.26(14) 35.29(16) 45.49(15)
Pd1 Ca1 Pd2 13_6455 4_5555 82.95(14) 81.85(15) 83.85(15)
Pd1 Ca1 Pd2 13_6455 12_5455 44.01(16) 42.59(15) 47.01(17)
Pd1 Ca1 Pd2 13_6455 13_6455 30.96(15) 29.68(15) 31.78(15)
Pd1 Ca1 Pd2 13_6455 8_7555 77.49(17) 73.58(16) 80.19(18)
Pd2 Ca1 Pd2 . 4_5555 39.93(16) 34.95(14) 44.09(17)
Pd2 Ca1 Pd2 . 12_5455 55.9(2) 48.9(2) 62.6(2)
Pd2 Ca1 Pd2 . 13_6455 46.29(15) 45.90(15) 46.70(15)
Pd2 Ca1 Pd2 . 8_7555 58.5(2) 58.5(2) 58.5(2)
Pd2 Ca1 Pd2 4_5555 12_5455 82.2(2) 81.38(19) 83.4(2)
Pd2 Ca1 Pd2 4_5555 5_7555 38.11(17) 38.11(16) 38.11(16)
Pd2 Ca1 Pd2 4_5555 13_6455 81.43(17) 81.33(17) 81.88(17)
Pd2 Ca1 Pd2 4_5555 8_7555 78.62(19) 74.85(18) 80.17(19)
Pd2 Ca1 Pd2 12_5455 13_6455 49.7(2) 49.6(2) 49.8(2)
Pd2 Ca1 Pd2 12_5455 8_7555 46.29(16) 45.90(16) 46.70(16)
Pd2 Ca1 Pd2 5_7555 13_6455 82.2(2) 81.38(19) 83.4(2)
Pd2 Ca1 Pd2 5_7555 8_7555 39.93(16) 34.95(17) 44.09(15)
Pd2 Ca1 Pd2 13_6455 8_7555 56.0(2) 48.9(2) 62.6(2)
loop_
_geom_bond_atom_site_label_1
_geom_bond_atom_site_label_2
_geom_bond_site_ssg_symmetry_2
_geom_bond_distance_av
_geom_bond_distance_min
_geom_bond_distance_max
Pd1 Pd1 5_6555 3.118(16) 3.066(18) 3.146(18)
Pd1 Pd1 5_7555 2.668(14) 2.621(16) 2.759(16)
Pd1 Pd2 . 2.639(5) 2.554(7) 2.700(7)
Pd1 Pd2 4_5555 2.642(6) 2.554(7) 2.711(7)
Pd1 Pd2 5_6555 2.883(14) 2.658(16) 3.150(16)
Pd1 Pd2 5_7555 2.936(14) 2.635(17) 3.078(17)
Pd1 Pd2 13_6455 2.680(6) 2.570(8) 2.751(8)
Pd1 Pd2 8_6555 2.882(14) 2.650(16) 3.150(16)
Pd1 Pd2 8_7555 2.935(14) 2.635(17) 3.078(17)
Pd1 Pd2 16_6555 2.682(6) 2.577(8) 2.751(8)
Pd2 Pd2 4_5555 2.724(7) 2.677(8) 2.745(8)
Pd2 Pd2 12_4455 2.900(15) 2.714(17) 3.124(17)
Pd2 Pd2 12_5455 2.904(15) 2.714(17) 3.148(17)
Pd2 Pd2 13_6455 2.606(6) 2.604(6) 2.607(6)
Pd2 Pd2 8_6555 2.801(16) 2.801(16) 2.801(16)
Pd2 Pd2 8_7555 2.915(17) 2.915(17) 2.915(17)
Pd5 Pd1 . 2.865(5) 2.641(7) 3.513(7)
Pd5 Pd1 9_5455 4.049(5) 3.151(7) 4.720(7)
Pd5 Pd1 5_7555 2.867(5) 2.641(7) 3.559(7)
Pd5 Pd1 13_6455 4.051(5) 3.151(7) 4.720(7)
Pd5 Pd2 . 2.695(9) 2.578(10) 2.727(10)
Pd5 Pd2 4_5555 4.107(7) 3.516(8) 4.508(8)
Pd5 Pd2 12_5455 2.790(8) 2.627(9) 3.212(9)
Pd5 Pd2 5_7555 4.113(7) 3.516(8) 4.508(8)
Pd5 Pd2 13_6455 2.788(8) 2.627(9) 3.212(9)
Pd5 Pd2 8_7555 2.695(9) 2.578(10) 2.727(10)
Pd6 Pd1 . 2.689(7) 2.607(7) 2.744(7)
Pd6 Pd1 5_6555 2.688(7) 2.607(7) 2.744(7)
Pd6 Pd2 . 2.869(8) 2.643(9) 3.331(9)
Pd6 Pd2 9_4555 3.985(7) 3.408(8) 4.456(8)
Pd6 Pd2 4_5555 2.878(8) 2.677(9) 3.300(9)
Pd6 Pd2 12_4455 4.016(7) 3.401(8) 4.488(8)
Pd6 Pd2 5_6555 2.882(8) 2.677(9) 3.300(9)
Pd6 Pd2 13_6455 4.011(7) 3.401(8) 4.488(8)
Pd6 Pd2 8_6555 2.865(8) 2.643(9) 3.331(9)
Pd6 Pd2 16_6555 3.990(7) 3.408(8) 4.456(8)
Ca1 Pd1 . 3.220(6) 2.961(7) 3.842(7)
Ca1 Pd1 9_5455 4.294(6) 3.521(7) 4.886(7)
Ca1 Pd1 5_7555 3.221(6) 2.961(7) 3.881(7)
Ca1 Pd1 13_6455 4.296(6) 3.521(7) 4.886(7)
Ca1 Pd2 . 3.047(9) 2.968(10) 3.075(10)
Ca1 Pd2 4_5555 4.398(8) 3.820(9) 4.734(9)
Ca1 Pd2 12_5455 3.159(9) 2.998(9) 3.552(9)
Ca1 Pd2 5_7555 4.403(8) 3.820(9) 4.734(9)
Ca1 Pd2 13_6455 3.157(9) 2.998(9) 3.552(9)
Ca1 Pd2 8_7555 3.047(9) 2.968(10) 3.075(10)
loop_
_refln_index_h
_refln_index_k
_refln_index_l
_refln_index_m_1
_refln_F_squared_calc
_refln_F_squared_meas
_refln_F_squared_sigma
_refln_observed_status
2 0 0 0 57178. 67055. 606. o
2 0 0 1 24944. 26777. 275. o
2 0 0 2 4386. 4562. 133. o
2 0 0 3 497. 293. 36. o
4 0 0 0 411047. 422319. 3014. o
4 0 0 1 104256. 110186. 1053. o
4 0 0 2 16549. 16405. 402. o
4 0 0 3 2154. 2113. 175. o
6 0 0 0 70958. 67426. 2190. o
6 0 0 1 11965. 11483. 640. o
6 0 0 2 1066. 1294. 210. o
6 0 0 3 1811. 1682. 208. o
1 1 0 -3 0. 5. 7. <
1 1 0 -2 3. 2. 7. <
1 1 0 -1 72. 75. 15. o
1 1 0 0 28759. 23292. 254. o
1 1 0 1 184. 95. 20. o
1 1 0 2 12. 8. 13. <
1 1 0 3 4. 12. 17. <
3 1 0 -3 10. -26. 16. <
3 1 0 -2 32. -8. 23. <
3 1 0 -1 609. 573. 66. o
3 1 0 0 15934. 13703. 280. o
3 1 0 1 870. 875. 72. o
3 1 0 2 61. 79. 27. <
3 1 0 3 2. 20. 25. <
5 1 0 -3 10. -101. 52. <
5 1 0 -2 2. -48. 50. <
5 1 0 -1 289. 208. 69. o
5 1 0 0 5487. 5175. 309. o
5 1 0 1 652. 529. 100. o
5 1 0 2 0. -34. 41. <
5 1 0 3 7. 29. 32. <
0 2 0 0 31427. 22914. 532. o
0 2 0 2 12. 68. 23. <
2 2 0 -3 14. 12. 14. <
2 2 0 -2 9. 14. 15. <
2 2 0 -1 37. 27. 19. <
2 2 0 0 13820. 11983. 262. o
2 2 0 1 135. 129. 23. o
2 2 0 2 1. 7. 18. <
2 2 0 3 28. -4. 24. <
4 2 0 -3 6. -1. 29. <
4 2 0 -2 0. 34. 30. <
4 2 0 -1 464. 690. 103. o
4 2 0 0 8194. 8114. 343. o
4 2 0 1 506. 519. 76. o
4 2 0 2 7. 55. 34. <
4 2 0 3 13. 35. 35. <
6 2 0 -3 2. 86. 64. <
6 2 0 -2 8. -31. 54. <
6 2 0 -1 267. 267. 93. <
6 2 0 0 4248. 3788. 304. o
6 2 0 1 128. -18. 61. <
6 2 0 2 0. -84. 66. <
6 2 0 3 0. 0. 79. <
1 3 0 -3 2. 13. 14. <
1 3 0 -2 38. 72. 22. o
1 3 0 -1 2109. 2325. 112. o
1 3 0 0 135975. 146465. 985. o
1 3 0 1 202357. 227531. 1630. o
1 3 0 2 10526. 10857. 369. o
1 3 0 3 1209. 1083. 115. o
3 3 0 -3 112. 175. 30. o
3 3 0 -2 2362. 2402. 135. o
3 3 0 -1 38490. 39029. 557. o
3 3 0 0 353940. 390864. 2121. o
3 3 0 1 631. 697. 78. o
3 3 0 2 23906. 24610. 554. o
3 3 0 3 5675. 5545. 210. o
5 3 0 -3 339. 231. 66. o
5 3 0 -2 1128. 1190. 153. o
5 3 0 -1 0. 15. 61. <
5 3 0 0 27711. 26963. 895. o
5 3 0 1 90. 149. 54. <
5 3 0 2 2837. 2545. 283. o
5 3 0 3 4090. 4654. 312. o
0 4 0 -2 4. 15. 30. <
0 4 0 0 16487. 14375. 603. o
0 4 0 2 40. -58. 60. <
2 4 0 -3 13. 5. 15. <
2 4 0 -2 5. -11. 14. <
2 4 0 -1 216. 243. 39. o
2 4 0 0 15424. 13698. 284. o
2 4 0 1 98. 111. 27. o
2 4 0 2 3. -16. 19. <
2 4 0 3 32. -29. 29. <
4 4 0 -3 2. 2. 26. <
4 4 0 -2 5. 67. 38. <
4 4 0 -1 242. 165. 52. o
4 4 0 0 8392. 7854. 360. o
4 4 0 1 235. 100. 45. <
4 4 0 2 12. 0. 34. <
4 4 0 3 20. -5. 39. <
6 4 0 -3 2. 19. 84. <
6 4 0 -2 38. 29. 56. <
6 4 0 -1 562. 367. 126. <
6 4 0 0 3087. 2898. 343. o
6 4 0 1 689. 1044. 305. o
1 5 0 -3 11. 105. 29. o
1 5 0 -2 15. 9. 41. <
1 5 0 -1 98. 133. 26. o
1 5 0 0 17776. 16505. 282. o
1 5 0 1 5. -10. 24. <
1 5 0 2 2. 20. 25. <
1 5 0 3 18. 7. 34. <
3 5 0 -3 7. -9. 38. <
3 5 0 -2 0. 3. 23. <
3 5 0 -1 307. 358. 57. o
3 5 0 0 8406. 7740. 261. o
3 5 0 1 526. 586. 78. o
3 5 0 2 4. -9. 31. <
3 5 0 3 8. 33. 26. <
5 5 0 -3 55. -27. 27. <
5 5 0 -2 103. 112. 63. <
5 5 0 -1 1028. 869. 138. o
5 5 0 0 5142. 5196. 296. o
5 5 0 1 154. 206. 60. o
5 5 0 2 12. -36. 36. <
5 5 0 3 10. 107. 60. <
0 6 0 -2 295. 222. 88. <
0 6 0 0 191994. 185311. 2706. o
0 6 0 2 97615. 102089. 2157. o
2 6 0 -3 3. 22. 16. <
2 6 0 -2 283. 367. 45. o
2 6 0 -1 9295. 10013. 301. o
2 6 0 0 561428. 614238. 3531. o
2 6 0 1 8856. 9073. 322. o
2 6 0 2 22755. 20068. 495. o
2 6 0 3 8959. 9032. 342. o
4 6 0 -3 1. 21. 47. <
4 6 0 -2 148. 55. 37. <
4 6 0 -1 1607. 1911. 164. o
4 6 0 0 16045. 17000. 566. o
4 6 0 1 42436. 44458. 935. o
4 6 0 2 1222. 1081. 149. o
4 6 0 3 4581. 3733. 281. o
1 7 0 -3 16. -9. 20. <
1 7 0 -2 18. -3. 28. <
1 7 0 -1 5. 40. 31. <
1 7 0 0 8528. 8362. 271. o
1 7 0 1 4. 60. 34. <
1 7 0 2 1. 27. 46. <
1 7 0 3 12. -9. 44. <
3 7 0 -3 2. -8. 31. <
3 7 0 -2 26. -5. 26. <
3 7 0 -1 187. 74. 38. <
3 7 0 0 4625. 4445. 245. o
3 7 0 1 528. 644. 112. o
3 7 0 2 7. 41. 35. <
3 7 0 3 15. -6. 42. <
5 7 0 -3 26. -58. 52. <
5 7 0 -2 5. 32. 40. <
5 7 0 -1 315. 366. 99. o
5 7 0 0 3719. 3641. 304. o
0 8 0 -2 15. 1201. 255. o
0 8 0 0 7894. 6708. 423. o
0 8 0 2 99. 124. 66. <
2 8 0 -3 30. 13. 31. <
2 8 0 -2 51. 19. 30. <
2 8 0 -1 154. 31. 36. <
2 8 0 0 6825. 6781. 312. o
2 8 0 1 255. 206. 77. <
2 8 0 2 20. 124. 69. <
2 8 0 3 12. 73. 65. <
4 8 0 -3 2. 19. 50. <
4 8 0 -2 8. -68. 47. <
4 8 0 -1 121. 17. 61. <
4 8 0 0 3764. 3243. 333. o
4 8 0 1 291. 167. 91. <
4 8 0 2 10. -12. 74. <
4 8 0 3 1. 179. 143. <
1 9 0 -3 5. 4. 35. <
1 9 0 -2 240. 216. 62. o
1 9 0 -1 330. 405. 96. o
1 9 0 0 55578. 57046. 1084. o
1 9 0 1 2963. 2810. 332. o
1 9 0 2 4583. 4556. 418. o
1 9 0 3 24356. 23164. 981. o
3 9 0 -3 37. 58. 40. <
3 9 0 -2 338. 230. 74. o
3 9 0 -1 2854. 2503. 206. o
3 9 0 0 37828. 37294. 974. o
3 9 0 1 11875. 12567. 579. o
3 9 0 2 19470. 21517. 773. o
0 10 0 -2 16. -6. 56. <
0 10 0 0 2930. 2939. 310. o
0 10 0 2 3. 158. 145. <
2 10 0 -3 9. 26. 52. <
2 10 0 -2 18. -26. 46. <
2 10 0 -1 0. 6. 58. <
2 10 0 0 4520. 4721. 455. o
2 10 0 1 35. -30. 72. <
2 10 0 2 43. 74. 153. <
4 10 0 -3 0. -25. 84. <
4 10 0 -2 19. -47. 113. <
1 11 0 -3 8. 162. 119. <
1 11 0 -2 32. 128. 105. <
1 11 0 -1 84. 249. 149. <
1 11 0 0 4480. 4407. 447. o
1 11 0 1 3. -173. 116. <
3 11 0 -3 17. -4. 63. <
3 11 0 -2 2. -7. 102. <
2 0 1 1 15. 31. 11. <
2 0 1 2 0. -2. 12. <
2 0 1 3 0. -5. 9. <
4 0 1 1 180. 195. 35. o
4 0 1 2 12. 2. 23. <
4 0 1 3 0. 15. 24. <
6 0 1 1 22. 43. 49. <
6 0 1 2 5. 2. 38. <
6 0 1 3 0. -31. 51. <
1 1 1 -3 0. 3. 11. <
1 1 1 -2 1. 20. 15. <
1 1 1 -1 265. 251. 21. o
1 1 1 0 58188. 59556. 281. o
1 1 1 1 190. 257. 22. o
1 1 1 2 11. 11. 11. <
1 1 1 3 0. -2. 11. <
3 1 1 -3 0. 22. 14. <
3 1 1 -2 5. 18. 14. <
3 1 1 -1 918. 942. 52. o
3 1 1 0 27762. 27758. 266. o
3 1 1 1 1379. 1369. 64. o
3 1 1 2 12. 37. 18. <
3 1 1 3 0. 18. 15. <
5 1 1 -3 0. 15. 27. <
5 1 1 -2 30. 54. 34. <
5 1 1 -1 1140. 1196. 104. o
5 1 1 0 11087. 10880. 313. o
5 1 1 1 1500. 1374. 112. o
5 1 1 2 28. 73. 36. <
5 1 1 3 0. 19. 39. <
0 2 1 0 60122. 56149. 612. o
0 2 1 2 12. 23. 19. <
2 2 1 -3 0. -5. 9. <
2 2 1 -2 3. 8. 10. <
2 2 1 -1 204. 231. 23. o
2 2 1 0 67170. 71456. 452. o
2 2 1 1 595. 601. 36. o
2 2 1 2 3. 25. 13. <
2 2 1 3 0. 15. 13. <
4 2 1 -3 0. -12. 19. <
4 2 1 -2 39. 4. 20. <
4 2 1 -1 1546. 1515. 104. o
4 2 1 0 18891. 19072. 371. o
4 2 1 1 1186. 1171. 80. o
4 2 1 2 9. 11. 19. <
4 2 1 3 0. 22. 28. <
6 2 1 -3 1. 30. 48. <
6 2 1 -2 1. -63. 48. <
6 2 1 -1 646. 665. 88. o
6 2 1 0 16593. 16513. 443. o
6 2 1 1 1451. 1370. 140. o
6 2 1 2 34. -13. 56. <
6 2 1 3 0. -68. 60. <
1 3 1 -3 0. 9. 10. <
1 3 1 -2 2. 0. 15. <
1 3 1 -1 9. 28. 20. <
1 3 1 0 3. 33. 19. <
1 3 1 1 6. -16. 18. <
1 3 1 2 1. -42. 18. <
1 3 1 3 0. 12. 16. <
3 3 1 -3 0. 16. 17. <
3 3 1 -2 4. -4. 15. <
3 3 1 -1 15. 43. 18. <
3 3 1 0 0. 5. 22. <
3 3 1 1 10. -5. 18. <
3 3 1 2 0. -8. 18. <
3 3 1 3 0. -7. 19. <
5 3 1 -3 0. 18. 25. <
5 3 1 -2 6. 27. 30. <
5 3 1 -1 26. 38. 26. <
5 3 1 0 2. 50. 36. <
5 3 1 1 19. 52. 45. <
5 3 1 2 2. 22. 38. <
5 3 1 3 0. 17. 32. <
0 4 1 -2 2. 18. 31. <
0 4 1 0 75749. 77174. 991. o
0 4 1 2 12. 39. 44. <
2 4 1 -3 0. 18. 12. <
2 4 1 -2 7. 12. 11. <
2 4 1 -1 402. 354. 32. o
2 4 1 0 27143. 27909. 285. o
2 4 1 1 568. 515. 38. o
2 4 1 2 20. 23. 19. <
2 4 1 3 3. 2. 15. <
4 4 1 -3 0. -7. 24. <
4 4 1 -2 6. -7. 23. <
4 4 1 -1 1280. 1332. 94. o
4 4 1 0 30298. 32353. 513. o
4 4 1 1 467. 543. 65. o
4 4 1 2 10. 10. 26. <
4 4 1 3 0. 22. 25. <
6 4 1 -3 1. -7. 42. <
6 4 1 -2 42. 72. 54. <
6 4 1 -1 1005. 1098. 143. o
6 4 1 0 6608. 6276. 314. o
6 4 1 1 1363. 1268. 316. o
1 5 1 -3 0. -30. 22. <
1 5 1 -2 28. 32. 23. <
1 5 1 -1 148. 193. 25. o
1 5 1 0 32822. 32280. 287. o
1 5 1 1 87. 141. 23. o
1 5 1 2 6. 56. 19. <
1 5 1 3 1. -16. 21. <
3 5 1 -3 1. -11. 16. <
3 5 1 -2 52. 92. 24. o
3 5 1 -1 931. 950. 66. o
3 5 1 0 20198. 21210. 288. o
3 5 1 1 722. 783. 60. o
3 5 1 2 0. -5. 23. <
3 5 1 3 0. 32. 23. <
5 5 1 -3 4. 43. 50. <
5 5 1 -2 91. 94. 49. <
5 5 1 -1 1195. 1156. 103. o
5 5 1 0 8590. 8779. 289. o
5 5 1 1 898. 944. 92. o
5 5 1 2 8. 50. 41. <
5 5 1 3 0. 13. 39. <
0 6 1 -2 5. -23. 19. <
0 6 1 0 10. 54. 42. <
0 6 1 2 1. 20. 52. <
2 6 1 -3 0. -11. 15. <
2 6 1 -2 7. -16. 16. <
2 6 1 -1 59. 32. 18. <
2 6 1 0 33. 56. 26. <
2 6 1 1 38. 1. 21. <
2 6 1 2 1. 50. 28. <
2 6 1 3 0. -39. 34. <
4 6 1 -3 1. 53. 32. <
4 6 1 -2 7. -9. 30. <
4 6 1 -1 19. 45. 32. <
4 6 1 0 3. -1. 33. <
4 6 1 1 9. -42. 37. <
4 6 1 2 0. 22. 44. <
4 6 1 3 0. 44. 33. <
1 7 1 -3 0. -3. 17. <
1 7 1 -2 5. 13. 13. <
1 7 1 -1 57. 53. 24. <
1 7 1 0 17666. 17686. 339. o
1 7 1 1 113. 81. 36. <
1 7 1 2 30. 38. 36. <
1 7 1 3 0. -65. 40. <
3 7 1 -3 0. 21. 19. <
3 7 1 -2 11. 43. 29. <
3 7 1 -1 392. 348. 51. o
3 7 1 0 11001. 11029. 291. o
3 7 1 1 459. 395. 54. o
3 7 1 2 5. 22. 32. <
3 7 1 3 2. 55. 35. <
5 7 1 -3 1. 34. 39. <
5 7 1 -2 25. 54. 45. <
5 7 1 -1 596. 434. 69. o
5 7 1 0 6503. 7015. 297. o
0 8 1 -2 38. 45. 37. <
0 8 1 0 26632. 27901. 699. o
0 8 1 2 2. 49. 34. <
2 8 1 -3 1. 3. 28. <
2 8 1 -2 48. 73. 29. <
2 8 1 -1 300. 240. 43. o
2 8 1 0 14149. 14421. 381. o
2 8 1 1 244. 202. 44. o
2 8 1 2 9. 38. 46. <
2 8 1 3 0. -12. 41. <
4 8 1 -3 2. 28. 36. <
4 8 1 -2 18. 22. 48. <
4 8 1 -1 286. 348. 66. o
4 8 1 0 15721. 16130. 433. o
4 8 1 1 584. 723. 98. o
4 8 1 2 14. 72. 58. <
1 9 1 -3 0. 6. 29. <
1 9 1 -2 4. 1. 38. <
1 9 1 -1 0. 28. 30. <
1 9 1 0 4. 21. 33. <
1 9 1 1 1. 11. 40. <
1 9 1 2 3. -15. 55. <
1 9 1 3 0. 80. 72. <
3 9 1 -3 0. 17. 31. <
3 9 1 -2 8. -10. 29. <
3 9 1 -1 16. -29. 32. <
3 9 1 0 5. 73. 40. <
3 9 1 1 8. -12. 52. <
3 9 1 2 0. 98. 53. <
0 10 1 -2 4. -4. 45. <
0 10 1 0 7376. 7811. 421. o
0 10 1 2 34. 92. 53. <
2 10 1 -3 0. -10. 47. <
2 10 1 -2 1. 23. 48. <
2 10 1 -1 249. 216. 51. o
2 10 1 0 20788. 21229. 668. o
2 10 1 1 89. 38. 57. <
2 10 1 2 23. 114. 73. <
4 10 1 -3 0. 54. 44. <
4 10 1 -2 12. 84. 64. <
1 11 1 -3 0. -5. 43. <
1 11 1 -2 39. 139. 79. <
1 11 1 -1 55. 32. 53. <
1 11 1 0 9639. 9637. 446. o
1 11 1 1 26. 114. 102. <
3 11 1 -3 2. -123. 55. <
3 11 1 -2 48. 40. 61. <
2 0 2 0 19684. 19728. 589. o
2 0 2 1 50423. 53811. 275. o
2 0 2 2 4561. 4590. 97. o
2 0 2 3 463. 400. 31. o
4 0 2 0 110237. 113425. 1074. o
4 0 2 1 6079. 6041. 186. o
4 0 2 2 9853. 10043. 225. o
4 0 2 3 1964. 2121. 105. o
6 0 2 0 25478. 26793. 976. o
6 0 2 1 1102. 1232. 152. o
6 0 2 2 2658. 2750. 198. o
6 0 2 3 2004. 2414. 186. o
1 1 2 -3 0. -3. 11. <
1 1 2 -2 1. -3. 13. <
1 1 2 -1 7. 14. 11. <
1 1 2 0 3821. 3122. 83. o
1 1 2 1 6. 14. 12. <
1 1 2 2 6. 10. 11. <
1 1 2 3 4. 4. 13. <
3 1 2 -3 9. -8. 15. <
3 1 2 -2 18. 30. 13. <
3 1 2 -1 0. -3. 12. <
3 1 2 0 1268. 1158. 56. o
3 1 2 1 4. -1. 12. <
3 1 2 2 31. 6. 13. <
3 1 2 3 2. 12. 13. <
5 1 2 -3 11. -10. 27. <
5 1 2 -2 15. -45. 31. <
5 1 2 -1 58. 22. 29. <
5 1 2 0 575. 419. 64. o
5 1 2 1 69. 86. 32. <
5 1 2 2 23. 54. 35. <
5 1 2 3 10. 8. 45. <
0 2 2 -2 0. 8. 15. <
0 2 2 0 3544. 2810. 115. o
0 2 2 2 9. 14. 15. <
2 2 2 -3 14. 17. 10. <
2 2 2 -2 25. 9. 12. <
2 2 2 -1 1150. 1235. 68. o
2 2 2 0 51156. 47493. 359. o
2 2 2 1 165. 111. 18. o
2 2 2 2 0. 5. 11. <
2 2 2 3 29. -6. 13. <
4 2 2 -3 9. 23. 19. <
4 2 2 -2 26. 24. 19. <
4 2 2 -1 205. 197. 34. o
4 2 2 0 1687. 1417. 95. o
4 2 2 1 23. -19. 23. <
4 2 2 2 0. 29. 21. <
4 2 2 3 10. 27. 24. <
6 2 2 -3 5. 40. 32. <
6 2 2 -2 158. 79. 44. <
6 2 2 -1 1973. 1673. 158. o
6 2 2 0 10415. 9775. 378. o
6 2 2 1 778. 773. 110. o
6 2 2 2 18. -32. 36. <
6 2 2 3 0. -24. 50. <
1 3 2 -3 1. 4. 13. <
1 3 2 -2 5. 28. 14. <
1 3 2 -1 86. 188. 27. o
1 3 2 0 411. 573. 53. o
1 3 2 1 166927. 183700. 1422. o
1 3 2 2 12492. 12715. 195. o
1 3 2 3 1232. 1072. 58. o
3 3 2 -3 78. 61. 17. o
3 3 2 -2 1103. 1026. 57. o
3 3 2 -1 13689. 14015. 211. o
3 3 2 0 103099. 109181. 612. o
3 3 2 1 2623. 2698. 92. o
3 3 2 2 23610. 23055. 278. o
3 3 2 3 5356. 5701. 150. o
5 3 2 -3 465. 360. 56. o
5 3 2 -2 2937. 2660. 158. o
5 3 2 -1 6477. 6612. 277. o
5 3 2 0 237. 172. 46. o
5 3 2 1 5067. 4867. 242. o
5 3 2 2 1751. 1624. 143. o
5 3 2 3 4076. 4233. 213. o
0 4 2 -2 13. 38. 17. <
0 4 2 0 47798. 42879. 1047. o
0 4 2 2 18. 22. 25. <
2 4 2 -3 12. 24. 13. <
2 4 2 -2 4. 14. 12. <
2 4 2 -1 9. 33. 13. <
2 4 2 0 1322. 1152. 59. o
2 4 2 1 105. 98. 21. o
2 4 2 2 5. 14. 19. <
2 4 2 3 28. 11. 19. <
4 4 2 -3 4. -43. 24. <
4 4 2 -2 1. 19. 24. <
4 4 2 -1 325. 289. 42. o
4 4 2 0 16231. 15728. 313. o
4 4 2 1 1222. 1196. 90. o
4 4 2 2 9. 25. 24. <
4 4 2 3 27. 23. 27. <
6 4 2 -3 2. -145. 58. <
6 4 2 -2 8. 31. 33. <
6 4 2 -1 4. 24. 47. <
6 4 2 0 562. 374. 85. o
6 4 2 1 28. 39. 99. <
1 5 2 -3 11. 3. 23. <
1 5 2 -2 4. -9. 15. <
1 5 2 -1 17. 24. 15. <
1 5 2 0 1434. 1109. 60. o
1 5 2 1 58. 79. 22. o
1 5 2 2 0. 49. 22. <
1 5 2 3 17. -31. 26. <
3 5 2 -3 10. 12. 17. <
3 5 2 -2 10. 10. 19. <
3 5 2 -1 75. 98. 23. o
3 5 2 0 1867. 1828. 95. o
3 5 2 1 3. -9. 23. <
3 5 2 2 0. 24. 27. <
3 5 2 3 6. -7. 26. <
5 5 2 -3 40. 27. 39. <
5 5 2 -2 14. -11. 48. <
5 5 2 -1 0. -23. 31. <
5 5 2 0 244. 275. 55. o
5 5 2 1 53. 26. 36. <
5 5 2 2 1. 54. 36. <
5 5 2 3 14. 43. 40. <
0 6 2 -2 16. -6. 39. <
0 6 2 0 23143. 23954. 456. o
0 6 2 2 86853. 88524. 964. o
2 6 2 -3 0. 34. 16. <
2 6 2 -2 8. 0. 17. <
2 6 2 -1 934. 875. 62. o
2 6 2 0 66952. 72198. 571. o
2 6 2 1 45153. 48132. 513. o
2 6 2 2 24302. 24884. 380. o
2 6 2 3 9169. 9105. 264. o
4 6 2 -3 6. 38. 26. <
4 6 2 -2 52. 56. 30. <
4 6 2 -1 509. 366. 54. o
4 6 2 0 953. 810. 76. o
4 6 2 1 19778. 22298. 471. o
4 6 2 2 1185. 1146. 112. o
4 6 2 3 4256. 3791. 203. o
6 6 2 -3 79. -120. 177. <
1 7 2 -3 17. -1. 19. <
1 7 2 -2 7. 12. 26. <
1 7 2 -1 48. -4. 25. <
1 7 2 0 1280. 1053. 86. o
1 7 2 1 11. 28. 25. <
1 7 2 2 6. 38. 40. <
1 7 2 3 11. 5. 40. <
3 7 2 -3 4. 5. 20. <
3 7 2 -2 35. -4. 26. <
3 7 2 -1 1. 43. 25. <
3 7 2 0 882. 868. 75. o
3 7 2 1 4. -6. 29. <
3 7 2 2 11. 21. 30. <
3 7 2 3 18. 33. 28. <
5 7 2 -3 23. -29. 39. <
5 7 2 -2 16. 6. 35. <
5 7 2 -1 15. 124. 40. o
5 7 2 0 319. 407. 83. o
0 8 2 -2 33. 766. 107. o
0 8 2 0 19150. 18265. 549. o
0 8 2 2 80. -22. 68. <
2 8 2 -3 25. 41. 31. <
2 8 2 -2 18. 8. 30. <
2 8 2 -1 7. 29. 37. <
2 8 2 0 665. 600. 90. o
2 8 2 1 27. -3. 43. <
2 8 2 2 35. 65. 34. <
2 8 2 3 14. 25. 46. <
4 8 2 -3 3. -5. 38. <
4 8 2 -2 35. 13. 31. <
4 8 2 -1 941. 968. 105. o
4 8 2 0 12603. 12117. 355. o
4 8 2 1 83. 83. 36. <
4 8 2 2 16. 268. 157. <
1 9 2 -3 10. 5. 31. <
1 9 2 -2 1. 2. 39. <
1 9 2 -1 3. 48. 44. <
1 9 2 0 4219. 4939. 229. o
1 9 2 1 1416. 1314. 112. o
1 9 2 2 6547. 6887. 307. o
1 9 2 3 23767. 23405. 584. o
3 9 2 -3 10. -123. 36. <
3 9 2 -2 2. 42. 38. <
3 9 2 -1 212. 143. 52. <
3 9 2 0 4561. 4647. 244. o
3 9 2 1 4631. 5129. 262. o
3 9 2 2 17300. 18342. 506. o
0 10 2 -2 36. 45. 49. <
0 10 2 0 764. 756. 139. o
0 10 2 2 8. 56. 67. <
2 10 2 -3 7. 8. 37. <
2 10 2 -2 3. -73. 46. <
2 10 2 -1 182. 205. 71. <
2 10 2 0 11587. 9795. 458. o
2 10 2 1 197. 247. 91. <
2 10 2 2 18. 51. 91. <
4 10 2 -3 0. -11. 49. <
4 10 2 -2 18. -48. 121. <
1 11 2 -3 7. 172. 62. <
1 11 2 -2 13. 305. 92. o
1 11 2 -1 31. 238. 92. <
1 11 2 0 574. 546. 120. o
1 11 2 1 73. -139. 190. <
3 11 2 -3 22. 13. 46. <
3 11 2 -2 26. 35. 80. <
0 0 3 2 6. 31. 15. <
2 0 3 1 26. 70. 23. <
2 0 3 2 0. -15. 15. <
2 0 3 3 0. 7. 24. <
4 0 3 1 0. 3. 22. <
4 0 3 2 0. 33. 22. <
4 0 3 3 0. -12. 20. <
6 0 3 1 62. 68. 59. <
6 0 3 2 6. -27. 38. <
6 0 3 3 0. -31. 45. <
1 1 3 -3 0. 15. 17. <
1 1 3 -2 4. 6. 13. <
1 1 3 -1 75. 81. 17. o
1 1 3 0 717. 805. 41. o
1 1 3 1 0. 5. 11. <
1 1 3 2 23. 31. 12. <
1 1 3 3 0. 20. 14. <
3 1 3 -3 0. 9. 12. <
3 1 3 -2 0. 5. 15. <
3 1 3 -1 56. 54. 15. o
3 1 3 0 203. 223. 27. o
3 1 3 1 399. 363. 32. o
3 1 3 2 30. 34. 14. <
3 1 3 3 2. 13. 15. <
5 1 3 -3 1. 54. 37. <
5 1 3 -2 12. -2. 33. <
5 1 3 -1 84. 154. 39. o
5 1 3 0 39. 70. 36. <
5 1 3 1 332. 302. 56. o
5 1 3 2 5. -29. 27. <
5 1 3 3 3. 25. 40. <
0 2 3 -2 11. 42. 18. <
0 2 3 0 619. 615. 57. o
0 2 3 2 39. 34. 19. <
2 2 3 -3 0. 17. 13. <
2 2 3 -2 50. 100. 29. o
2 2 3 -1 3908. 3834. 150. o
2 2 3 0 232707. 258395. 846. o
2 2 3 1 3119. 3226. 85. o
2 2 3 2 19. 22. 13. <
2 2 3 3 1. 4. 12. <
4 2 3 -3 0. 25. 24. <
4 2 3 -2 9. -22. 18. <
4 2 3 -1 157. 146. 32. o
4 2 3 0 46. 100. 29. o
4 2 3 1 69. 64. 27. <
4 2 3 2 0. 30. 26. <
4 2 3 3 1. 23. 22. <
6 2 3 -3 14. 11. 40. <
6 2 3 -2 341. 283. 65. o
6 2 3 -1 6566. 6608. 309. o
6 2 3 0 45058. 44224. 908. o
6 2 3 1 6462. 6401. 308. o
6 2 3 2 193. 85. 41. <
6 2 3 3 3. 16. 40. <
1 3 3 -3 1. 19. 11. <
1 3 3 -2 0. 4. 10. <
1 3 3 -1 7. -5. 18. <
1 3 3 0 3. 17. 13. <
1 3 3 1 1. 22. 17. <
1 3 3 2 2. -2. 14. <
1 3 3 3 2. -25. 18. <
3 3 3 -3 0. -11. 14. <
3 3 3 -2 3. 7. 15. <
3 3 3 -1 76. 58. 17. o
3 3 3 0 11. -5. 17. <
3 3 3 1 58. 57. 18. o
3 3 3 2 0. -12. 14. <
3 3 3 3 0. -1. 19. <
5 3 3 -3 0. -11. 23. <
5 3 3 -2 5. 66. 35. <
5 3 3 -1 48. -10. 34. <
5 3 3 0 0. 1. 27. <
5 3 3 1 47. -8. 38. <
5 3 3 2 2. -20. 36. <
5 3 3 3 0. 56. 39. <
0 4 3 -2 4. 33. 27. <
0 4 3 0 227235. 242377. 1769. o
0 4 3 2 0. 17. 20. <
2 4 3 -3 1. 12. 12. <
2 4 3 -2 9. 32. 14. <
2 4 3 -1 9. 21. 15. <
2 4 3 0 75. 179. 24. o
2 4 3 1 118. 156. 24. o
2 4 3 2 61. 75. 17. o
2 4 3 3 13. 8. 20. <
4 4 3 -3 0. 28. 24. <
4 4 3 -2 111. 117. 30. o
4 4 3 -1 5143. 5255. 178. o
4 4 3 0 83955. 89071. 744. o
4 4 3 1 4648. 4535. 183. o
4 4 3 2 33. 72. 37. <
4 4 3 3 4. 24. 31. <
6 4 3 -3 1. -16. 46. <
6 4 3 -2 6. -29. 41. <
6 4 3 -1 7. -92. 57. <
6 4 3 0 85. 237. 98. <
6 4 3 1 148. 74. 46. <
1 5 3 -3 0. -14. 13. <
1 5 3 -2 42. 29. 12. <
1 5 3 -1 45. 80. 22. o
1 5 3 0 855. 779. 54. o
1 5 3 1 8. 37. 21. <
1 5 3 2 9. -12. 17. <
1 5 3 3 7. -19. 27. <
3 5 3 -3 2. -11. 15. <
3 5 3 -2 47. 28. 16. <
3 5 3 -1 125. 150. 28. o
3 5 3 0 94. 103. 29. o
3 5 3 1 137. 145. 36. o
3 5 3 2 1. 10. 27. <
3 5 3 3 1. 17. 23. <
5 5 3 -3 6. 7. 28. <
5 5 3 -2 95. 47. 38. <
5 5 3 -1 383. 322. 60. o
5 5 3 0 174. 226. 44. o
5 5 3 1 101. 137. 45. o
5 5 3 2 0. -5. 34. <
5 5 3 3 1. -44. 37. <
0 6 3 -2 2. 23. 28. <
0 6 3 0 8. -1. 21. <
0 6 3 2 1. -3. 31. <
2 6 3 -3 0. -5. 19. <
2 6 3 -2 0. 0. 16. <
2 6 3 -1 0. 43. 19. <
2 6 3 0 0. -38. 23. <
2 6 3 1 1. -8. 22. <
2 6 3 2 8. 21. 28. <
2 6 3 3 0. -25. 32. <
4 6 3 -3 1. 52. 27. <
4 6 3 -2 6. 9. 31. <
4 6 3 -1 36. 86. 36. <
4 6 3 0 1. 19. 34. <
4 6 3 1 20. 21. 42. <
4 6 3 2 0. -67. 33. <
4 6 3 3 0. 89. 45. <
6 6 3 -3 0. 14. 121. <
1 7 3 -3 0. -12. 22. <
1 7 3 -2 13. -75. 30. <
1 7 3 -1 6. -12. 28. <
1 7 3 0 2. 18. 35. <
1 7 3 1 25. 67. 34. <
1 7 3 2 40. 44. 32. <
1 7 3 3 8. 39. 39. <
3 7 3 -3 0. 4. 23. <
3 7 3 -2 8. 12. 26. <
3 7 3 -1 10. 24. 24. <
3 7 3 0 6. 37. 31. <
3 7 3 1 100. 154. 43. o
3 7 3 2 7. 26. 39. <
3 7 3 3 6. 47. 38. <
5 7 3 -3 1. -29. 27. <
5 7 3 -2 11. 12. 51. <
5 7 3 -1 4. 10. 37. <
5 7 3 0 97. 301. 75. o
0 8 3 -2 56. 66. 36. <
0 8 3 0 97038. 97562. 1578. o
0 8 3 2 0. -14. 37. <
2 8 3 -3 2. -6. 25. <
2 8 3 -2 62. 15. 35. <
2 8 3 -1 60. 19. 39. <
2 8 3 0 325. 372. 65. o
2 8 3 1 69. 142. 53. <
2 8 3 2 37. 73. 41. <
2 8 3 3 0. -54. 42. <
4 8 3 -3 4. 31. 34. <
4 8 3 -2 157. 152. 41. o
4 8 3 -1 3117. 3484. 185. o
4 8 3 0 52336. 54941. 819. o
4 8 3 1 2621. 2689. 205. o
4 8 3 2 22. -146. 83. <
1 9 3 -3 0. 33. 38. <
1 9 3 -2 2. -19. 27. <
1 9 3 -1 10. -22. 33. <
1 9 3 0 18. -29. 29. <
1 9 3 1 10. 25. 44. <
1 9 3 2 5. -7. 31. <
1 9 3 3 1. 55. 42. <
3 9 3 -3 0. -24. 31. <
3 9 3 -2 6. -3. 42. <
3 9 3 -1 13. 34. 57. <
3 9 3 0 8. 55. 43. <
3 9 3 1 2. 33. 47. <
3 9 3 2 0. -23. 43. <
0 10 3 -2 8. 62. 87. <
0 10 3 0 2. 178. 93. <
0 10 3 2 53. 41. 73. <
2 10 3 -3 0. -11. 42. <
2 10 3 -2 21. 60. 37. <
2 10 3 -1 673. 678. 108. o
2 10 3 0 48544. 49029. 895. o
2 10 3 1 592. 455. 81. o
4 10 3 -3 0. -45. 48. <
1 11 3 -3 0. -55. 38. <
1 11 3 -2 54. 59. 44. <
1 11 3 -1 3. 38. 52. <
1 11 3 0 45. 90. 54. <
3 11 3 -3 2. 81. 47. <
3 11 3 -2 59. 125. 55. <
0 0 4 0 82083. 86726. 734. o
0 0 4 2 126. 69. 20. o
2 0 4 0 1034130. 909441. 5775. o
2 0 4 1 112694. 118793. 852. o
2 0 4 2 4872. 4888. 153. o
2 0 4 3 409. 358. 42. o
4 0 4 0 26598. 25660. 610. o
4 0 4 1 4613. 4580. 166. o
4 0 4 2 8413. 8753. 215. o
4 0 4 3 1839. 1577. 92. o
6 0 4 0 44784. 43808. 1023. o
6 0 4 1 16592. 17587. 501. o
6 0 4 2 6984. 7007. 318. o
6 0 4 3 2310. 3023. 239. o
1 1 4 -3 0. -5. 9. <
1 1 4 -2 2. -8. 13. <
1 1 4 -1 14. 33. 11. o
1 1 4 0 715. 655. 46. o
1 1 4 1 6. 36. 16. <
1 1 4 2 5. 5. 16. <
1 1 4 3 4. 2. 19. <
3 1 4 -3 8. -13. 12. <
3 1 4 -2 11. -20. 14. <
3 1 4 -1 1. 2. 15. <
3 1 4 0 30. 46. 13. o
3 1 4 1 9. 32. 17. <
3 1 4 2 21. 17. 14. <
3 1 4 3 2. 44. 18. <
5 1 4 -3 11. -6. 31. <
5 1 4 -2 21. 69. 36. <
5 1 4 -1 71. 98. 33. <
5 1 4 0 6. 40. 31. <
5 1 4 1 60. 135. 44. o
5 1 4 2 37. 17. 40. <
5 1 4 3 10. 14. 33. <
0 2 4 -2 2. -6. 13. <
0 2 4 0 756. 707. 64. o
0 2 4 2 2. 32. 18. <
2 2 4 -3 10. 31. 22. <
2 2 4 -2 1. 15. 29. <
2 2 4 -1 1025. 906. 68. o
2 2 4 0 71329. 67913. 423. o
2 2 4 1 918. 856. 54. o
2 2 4 2 9. -7. 15. <
2 2 4 3 29. 23. 12. <
4 2 4 -3 12. -22. 25. <
4 2 4 -2 53. 90. 24. o
4 2 4 -1 184. 213. 36. o
4 2 4 0 137. 118. 31. o
4 2 4 1 12. 49. 24. <
4 2 4 2 2. -14. 27. <
4 2 4 3 7. 23. 25. <
6 2 4 -3 0. 33. 43. <
6 2 4 -2 41. 31. 41. <
6 2 4 -1 2206. 2115. 199. o
6 2 4 0 14438. 13748. 512. o
6 2 4 1 1132. 857. 120. o
6 2 4 2 15. 0. 40. <
6 2 4 3 0. -20. 55. <
1 3 4 -3 0. 9. 14. <
1 3 4 -2 133. 108. 20. o
1 3 4 -1 2758. 3032. 123. o
1 3 4 0 833368. 740521. 2824. o
1 3 4 1 110430. 114593. 585. o
1 3 4 2 13692. 14094. 210. o
1 3 4 3 1175. 924. 53. o
3 3 4 -3 41. 26. 15. <
3 3 4 -2 156. 189. 23. o
3 3 4 -1 447. 659. 45. o
3 3 4 0 109966. 118017. 596. o
3 3 4 1 32630. 34322. 340. o
3 3 4 2 23778. 22954. 298. o
3 3 4 3 4899. 5538. 158. o
5 3 4 -3 642. 679. 89. o
5 3 4 -2 6953. 6882. 258. o
5 3 4 -1 53198. 54924. 681. o
5 3 4 0 168739. 178042. 1251. o
5 3 4 1 48906. 49513. 663. o
5 3 4 2 445. 446. 63. o
5 3 4 3 3874. 3551. 183. o
0 4 4 -2 18. -12. 25. <
0 4 4 0 71389. 62370. 715. o
0 4 4 2 5. -15. 30. <
2 4 4 -3 10. 4. 14. <
2 4 4 -2 2. -2. 14. <
2 4 4 -1 7. 8. 11. <
2 4 4 0 19. 84. 18. o
2 4 4 1 101. 141. 24. o
2 4 4 2 9. 27. 16. <
2 4 4 3 24. 23. 17. <
4 4 4 -3 4. -30. 25. <
4 4 4 -2 10. 7. 24. <
4 4 4 -1 1380. 1208. 87. o
4 4 4 0 29118. 28606. 427. o
4 4 4 1 1780. 1925. 114. o
4 4 4 2 34. 113. 51. <
4 4 4 3 23. 75. 38. <
6 4 4 -3 3. -56. 38. <
6 4 4 -2 12. -31. 44. <
6 4 4 -1 11. 26. 42. <
6 4 4 0 59. 65. 71. <
6 4 4 1 1. 74. 74. <
1 5 4 -3 12. -11. 15. <
1 5 4 -2 2. -5. 15. <
1 5 4 -1 6. -10. 14. <
1 5 4 0 138. 149. 27. o
1 5 4 1 108. 98. 22. o
1 5 4 2 2. 32. 23. <
1 5 4 3 14. 60. 27. <
3 5 4 -3 15. -6. 19. <
3 5 4 -2 43. 54. 21. <
3 5 4 -1 107. 106. 27. o
3 5 4 0 266. 326. 48. o
3 5 4 1 10. 72. 31. <
3 5 4 2 2. 26. 22. <
3 5 4 3 4. 2. 18. <
5 5 4 -3 26. 19. 37. <
5 5 4 -2 0. -63. 33. <
5 5 4 -1 2. -19. 42. <
5 5 4 0 15. 1. 37. <
5 5 4 1 78. 122. 58. <
5 5 4 2 1. 68. 53. <
5 5 4 3 19. -11. 55. <
0 6 4 -2 93. 68. 22. o
0 6 4 0 265287. 273005. 2166. o
0 6 4 2 74078. 72536. 1250. o
2 6 4 -3 4. 22. 17. <
2 6 4 -2 271. 155. 26. o
2 6 4 -1 1064. 1008. 59. o
2 6 4 0 9219. 8974. 205. o
2 6 4 1 45439. 46598. 606. o
2 6 4 2 26869. 27113. 476. o
2 6 4 3 9172. 8489. 274. o
4 6 4 -3 43. 49. 28. <
4 6 4 -2 1114. 1267. 122. o
4 6 4 -1 21334. 21405. 553. o
4 6 4 0 220153. 228771. 1876. o
4 6 4 1 263. 472. 70. o
4 6 4 2 774. 1082. 101. o
4 6 4 3 3911. 3609. 187. o
1 7 4 -3 17. 0. 21. <
1 7 4 -2 1. 24. 20. <
1 7 4 -1 17. 29. 22. <
1 7 4 0 3. 33. 23. <
1 7 4 1 25. 36. 32. <
1 7 4 2 17. 56. 36. <
1 7 4 3 8. -3. 32. <
3 7 4 -3 5. -11. 25. <
3 7 4 -2 41. 54. 23. <
3 7 4 -1 2. 27. 30. <
3 7 4 0 22. 82. 30. <
3 7 4 1 27. -20. 33. <
3 7 4 2 3. 66. 42. <
3 7 4 3 21. 58. 38. <
5 7 4 -3 18. -1. 38. <
5 7 4 -2 7. -42. 55. <
5 7 4 -1 1. 55. 47. <
5 7 4 0 195. 185. 79. <
0 8 4 -2 89. 188. 108. <
0 8 4 0 34509. 32303. 914. o
0 8 4 2 54. -10. 67. <
2 8 4 -3 18. 22. 33. <
2 8 4 -2 0. -16. 30. <
2 8 4 -1 11. 86. 38. <
2 8 4 0 63. 113. 42. <
2 8 4 1 27. 36. 44. <
2 8 4 2 52. 117. 40. <
2 8 4 3 16. 21. 49. <
4 8 4 -3 12. 74. 38. <
4 8 4 -2 29. 16. 31. <
4 8 4 -1 1125. 848. 94. o
4 8 4 0 15400. 15488. 483. o
4 8 4 1 1032. 1051. 131. o
4 8 4 2 0. -82. 142. <
1 9 4 -3 17. 27. 36. <
1 9 4 -2 210. 178. 51. o
1 9 4 -1 849. 802. 88. o
1 9 4 0 156004. 156624. 1285. o
1 9 4 1 47. 76. 37. <
1 9 4 2 8660. 10553. 384. o
1 9 4 3 22688. 22259. 578. o
3 9 4 -3 0. 26. 43. <
3 9 4 -2 369. 262. 57. o
3 9 4 -1 4451. 4928. 264. o
3 9 4 0 109524. 113548. 1203. o
3 9 4 1 180. 261. 60. o
3 9 4 2 15669. 14727. 448. o
0 10 4 -2 60. -19. 48. <
0 10 4 0 9. 129. 73. <
0 10 4 2 20. -100. 72. <
2 10 4 -3 5. 5. 45. <
2 10 4 -2 1. -23. 38. <
2 10 4 -1 52. 60. 62. <
2 10 4 0 13449. 13891. 527. o
2 10 4 1 186. 303. 88. o
4 10 4 -3 1. 36. 57. <
1 11 4 -3 5. 74. 51. <
1 11 4 -2 0. 114. 73. <
1 11 4 -1 13. 231. 79. <
1 11 4 0 10. 67. 55. <
3 11 4 -3 30. 33. 47. <
3 11 4 -2 64. 96. 137. <
0 0 5 2 6. -18. 21. <
2 0 5 1 55. 80. 20. o
2 0 5 2 2. 11. 15. <
2 0 5 3 0. 1. 14. <
4 0 5 1 0. -42. 25. <
4 0 5 2 0. 0. 21. <
4 0 5 3 0. 28. 22. <
6 0 5 1 72. 63. 34. <
6 0 5 2 19. 52. 37. <
6 0 5 3 2. 26. 39. <
1 1 5 -3 0. 8. 11. <
1 1 5 -2 3. -20. 14. <
1 1 5 -1 108. 133. 17. o
1 1 5 0 5771. 6337. 128. o
1 1 5 1 195. 200. 27. o
1 1 5 2 3. 5. 15. <
1 1 5 3 0. -9. 15. <
3 1 5 -3 0. -13. 12. <
3 1 5 -2 4. -10. 15. <
3 1 5 -1 24. 35. 13. <
3 1 5 0 2907. 3150. 92. o
3 1 5 1 13. 39. 16. <
3 1 5 2 58. 40. 17. <
3 1 5 3 11. 2. 16. <
5 1 5 -3 0. 15. 34. <
5 1 5 -2 3. -29. 32. <
5 1 5 -1 79. 126. 36. o
5 1 5 0 1591. 1629. 125. o
5 1 5 1 3. 18. 34. <
5 1 5 2 23. -2. 37. <
5 1 5 3 11. -73. 34. <
0 2 5 -2 0. 48. 23. <
0 2 5 0 3071. 3418. 180. o
0 2 5 2 30. 91. 34. <
2 2 5 -3 0. -19. 17. <
2 2 5 -2 2. -9. 15. <
2 2 5 -1 1269. 1338. 65. o
2 2 5 0 128783. 138917. 727. o
2 2 5 1 1600. 1622. 79. o
2 2 5 2 10. 6. 16. <
2 2 5 3 3. 26. 14. <
4 2 5 -3 3. 13. 23. <
4 2 5 -2 42. 1. 21. <
4 2 5 -1 45. 102. 25. o
4 2 5 0 1937. 1984. 94. o
4 2 5 1 43. 82. 23. o
4 2 5 2 0. 37. 23. <
4 2 5 3 1. 18. 26. <
6 2 5 -3 0. 2. 39. <
6 2 5 -2 76. 87. 44. <
6 2 5 -1 3729. 3889. 275. o
6 2 5 0 30765. 31862. 778. o
6 2 5 1 3647. 4008. 278. o
6 2 5 2 88. 73. 36. <
6 2 5 3 0. 15. 63. <
1 3 5 -3 1. -5. 13. <
1 3 5 -2 4. -9. 14. <
1 3 5 -1 7. -19. 25. <
1 3 5 0 16. 12. 13. <
1 3 5 1 14. 31. 17. <
1 3 5 2 0. 8. 14. <
1 3 5 3 3. 0. 16. <
3 3 5 -3 1. 11. 15. <
3 3 5 -2 9. -8. 15. <
3 3 5 -1 59. 72. 22. o
3 3 5 0 3. 3. 15. <
3 3 5 1 44. 67. 22. o
3 3 5 2 4. 50. 23. <
3 3 5 3 0. 2. 18. <
5 3 5 -3 2. 7. 34. <
5 3 5 -2 23. 71. 31. <
5 3 5 -1 92. 54. 39. <
5 3 5 0 2. 6. 24. <
5 3 5 1 61. 47. 37. <
5 3 5 2 6. 3. 25. <
5 3 5 3 0. -5. 33. <
0 4 5 -2 5. -10. 32. <
0 4 5 0 128888. 132371. 1071. o
0 4 5 2 217. 235. 39. o
2 4 5 -3 1. 10. 13. <
2 4 5 -2 0. 2. 13. <
2 4 5 -1 12. 7. 12. <
2 4 5 0 3209. 3488. 102. o
2 4 5 1 0. 8. 13. <
2 4 5 2 8. 11. 20. <
2 4 5 3 15. 28. 18. <
4 4 5 -3 2. -27. 19. <
4 4 5 -2 37. 74. 24. o
4 4 5 -1 2683. 2719. 132. o
4 4 5 0 53967. 55551. 602. o
4 4 5 1 3017. 3027. 151. o
4 4 5 2 5. -41. 37. <
4 4 5 3 21. 19. 44. <
6 4 5 -3 0. -15. 51. <
6 4 5 -2 1. 1. 50. <
6 4 5 -1 158. 177. 79. <
6 4 5 0 1664. 1854. 277. o
1 5 5 -3 0. 25. 17. <
1 5 5 -2 14. 27. 18. <
1 5 5 -1 4. 1. 14. <
1 5 5 0 2669. 2947. 103. o
1 5 5 1 55. 54. 21. <
1 5 5 2 4. 35. 21. <
1 5 5 3 15. 24. 22. <
3 5 5 -3 0. 19. 19. <
3 5 5 -2 18. 1. 25. <
3 5 5 -1 17. 56. 24. <
3 5 5 0 1300. 1315. 88. o
3 5 5 1 81. 99. 25. o
3 5 5 2 5. 1. 29. <
3 5 5 3 5. 30. 31. <
5 5 5 -3 0. -6. 38. <
5 5 5 -2 5. -11. 35. <
5 5 5 -1 3. 33. 32. <
5 5 5 0 1027. 1064. 123. o
5 5 5 1 25. 98. 53. <
5 5 5 2 0. 1. 40. <
5 5 5 3 0. 1. 29. <
0 6 5 -2 3. 22. 24. <
0 6 5 0 19. -56. 53. <
0 6 5 2 9. -42. 48. <
2 6 5 -3 2. 7. 19. <
2 6 5 -2 10. 7. 16. <
2 6 5 -1 0. -11. 18. <
2 6 5 0 0. 46. 21. <
2 6 5 1 2. 23. 25. <
2 6 5 2 1. 31. 31. <
2 6 5 3 1. -9. 24. <
4 6 5 -3 0. -35. 27. <
4 6 5 -2 14. 76. 42. <
4 6 5 -1 67. 30. 32. <
4 6 5 0 18. 60. 35. <
4 6 5 1 47. 52. 28. <
4 6 5 2 0. -77. 35. <
4 6 5 3 0. -70. 36. <
1 7 5 -3 0. -36. 26. <
1 7 5 -2 1. 2. 22. <
1 7 5 -1 11. -4. 29. <
1 7 5 0 3039. 3209. 154. o
1 7 5 1 16. 25. 33. <
1 7 5 2 20. 33. 30. <
1 7 5 3 34. 44. 31. <
3 7 5 -3 0. 41. 23. <
3 7 5 -2 1. -9. 26. <
3 7 5 -1 63. 146. 39. o
3 7 5 0 2181. 2236. 149. o
3 7 5 1 4. 5. 44. <
3 7 5 2 19. 72. 51. <
3 7 5 3 1. 9. 46. <
5 7 5 -3 0. -16. 40. <
5 7 5 -2 0. 14. 45. <
5 7 5 -1 100. 128. 59. <
5 7 5 0 1727. 1585. 207. o
0 8 5 -2 22. 20. 41. <
0 8 5 0 63027. 63760. 1292. o
0 8 5 2 83. 80. 54. <
2 8 5 -3 0. 24. 27. <
2 8 5 -2 19. 45. 26. <
2 8 5 -1 0. -11. 33. <
2 8 5 0 888. 997. 99. o
2 8 5 1 44. 85. 42. <
2 8 5 2 10. -32. 35. <
2 8 5 3 0. 9. 41. <
4 8 5 -3 3. -4. 41. <
4 8 5 -2 75. 106. 40. <
4 8 5 -1 1790. 1803. 149. o
4 8 5 0 32662. 34078. 657. o
4 8 5 1 2133. 2305. 193. o
4 8 5 2 1. -57. 57. <
1 9 5 -3 0. -141. 43. <
1 9 5 -2 9. 22. 31. <
1 9 5 -1 17. 24. 41. <
1 9 5 0 30. 59. 42. <
1 9 5 1 6. -11. 30. <
1 9 5 2 0. 13. 51. <
1 9 5 3 4. 46. 53. <
3 9 5 -3 0. 25. 46. <
3 9 5 -2 5. 103. 48. <
3 9 5 -1 16. -54. 40. <
3 9 5 0 23. -44. 62. <
3 9 5 1 13. -2. 42. <
3 9 5 2 3. 42. 60. <
0 10 5 -2 3. -35. 46. <
0 10 5 0 1666. 1705. 246. o
0 10 5 2 7. 6. 68. <
2 10 5 -3 0. 19. 42. <
2 10 5 -2 5. -29. 36. <
2 10 5 -1 422. 300. 65. o
2 10 5 0 31964. 32995. 719. o
2 10 5 1 457. 513. 106. o
4 10 5 -3 0. 21. 66. <
1 11 5 -3 0. 66. 60. <
1 11 5 -2 21. -81. 46. <
1 11 5 -1 1. -3. 46. <
1 11 5 0 1005. 966. 161. o
3 11 5 -3 1. -42. 55. <
3 11 5 -2 24. 7. 64. <
0 0 6 0 3194. 3381. 171. o
0 0 6 2 19. 19. 17. <
2 0 6 0 17070. 16685. 331. o
2 0 6 1 41296. 43700. 414. o
2 0 6 2 3759. 3921. 143. o
2 0 6 3 366. 353. 40. o
4 0 6 0 100484. 101759. 1101. o
4 0 6 1 4839. 4587. 175. o
4 0 6 2 8294. 8392. 221. o
4 0 6 3 1672. 1768. 110. o
6 0 6 0 23271. 24566. 775. o
6 0 6 1 853. 723. 94. o
6 0 6 2 2650. 2963. 236. o
6 0 6 3 1901. 2155. 202. o
1 1 6 -3 0. 10. 11. <
1 1 6 -2 10. 0. 13. <
1 1 6 -1 28. 59. 19. o
1 1 6 0 17575. 17412. 252. o
1 1 6 1 88. 148. 30. o
1 1 6 2 13. 0. 16. <
1 1 6 3 3. 11. 10. <
3 1 6 -3 6. 3. 14. <
3 1 6 -2 3. -2. 14. <
3 1 6 -1 58. 74. 19. o
3 1 6 0 7744. 7271. 154. o
3 1 6 1 272. 201. 27. o
3 1 6 2 6. 27. 19. <
3 1 6 3 1. 8. 18. <
5 1 6 -3 11. 27. 34. <
5 1 6 -2 27. 25. 29. <
5 1 6 -1 230. 291. 56. o
5 1 6 0 3318. 2808. 187. o
5 1 6 1 591. 585. 86. o
5 1 6 2 75. 52. 39. <
5 1 6 3 13. 4. 30. <
0 2 6 -2 5. -6. 31. <
0 2 6 0 17802. 17357. 309. o
0 2 6 2 0. 1. 23. <
2 2 6 -3 10. -24. 17. <
2 2 6 -2 2. -23. 17. <
2 2 6 -1 337. 366. 38. o
2 2 6 0 18789. 17718. 265. o
2 2 6 1 34. 21. 13. <
2 2 6 2 5. 1. 15. <
2 2 6 3 25. -16. 16. <
4 2 6 -3 12. -21. 25. <
4 2 6 -2 80. 40. 27. <
4 2 6 -1 880. 700. 66. o
4 2 6 0 6833. 6161. 180. o
4 2 6 1 155. 232. 38. o
4 2 6 2 5. 61. 25. <
4 2 6 3 6. 8. 22. <
6 2 6 -3 1. 21. 54. <
6 2 6 -2 47. -19. 51. <
6 2 6 -1 701. 578. 109. o
6 2 6 0 4921. 4645. 302. o
6 2 6 1 359. 363. 93. o
6 2 6 2 7. -21. 49. <
6 2 6 3 0. -99. 149. <
1 3 6 -3 1. 18. 19. <
1 3 6 -2 20. 11. 11. <
1 3 6 -1 69. 108. 15. o
1 3 6 0 604. 653. 41. o
1 3 6 1 133011. 137409. 645. o
1 3 6 2 10139. 10302. 190. o
1 3 6 3 955. 882. 61. o
3 3 6 -3 52. 60. 21. <
3 3 6 -2 760. 851. 56. o
3 3 6 -1 11021. 10764. 202. o
3 3 6 0 85453. 90308. 666. o
3 3 6 1 2501. 2670. 115. o
3 3 6 2 20865. 20991. 386. o
3 3 6 3 4657. 4887. 177. o
5 3 6 -3 446. 403. 75. o
5 3 6 -2 2906. 2884. 212. o
5 3 6 -1 6366. 7243. 272. o
5 3 6 0 150. 190. 49. o
5 3 6 1 5130. 5095. 233. o
5 3 6 2 1500. 1031. 99. o
5 3 6 3 3703. 3944. 209. o
0 4 6 -2 2. -13. 24. <
0 4 6 0 17619. 15808. 286. o
0 4 6 2 13. -12. 23. <
2 4 6 -3 11. 10. 18. <
2 4 6 -2 12. 9. 17. <
2 4 6 -1 61. 38. 16. <
2 4 6 0 7855. 7387. 152. o
2 4 6 1 359. 376. 38. o
2 4 6 2 1. -9. 17. <
2 4 6 3 25. 38. 22. <
4 4 6 -3 3. -17. 23. <
4 4 6 -2 0. 33. 31. <
4 4 6 -1 108. 104. 31. o
4 4 6 0 6861. 6487. 240. o
4 4 6 1 370. 388. 62. o
4 4 6 2 0. 48. 29. <
4 4 6 3 23. 12. 27. <
6 4 6 -3 1. -1. 70. <
6 4 6 -2 2. -11. 82. <
6 4 6 -1 83. 316. 165. <
6 4 6 0 2286. 1713. 401. o
1 5 6 -3 10. 2. 19. <
1 5 6 -2 1. -4. 17. <
1 5 6 -1 84. 74. 19. o
1 5 6 0 8974. 8128. 199. o
1 5 6 1 94. 65. 18. o
1 5 6 2 2. 28. 25. <
1 5 6 3 13. -1. 16. <
3 5 6 -3 13. -14. 27. <
3 5 6 -2 45. 37. 32. <
3 5 6 -1 431. 356. 50. o
3 5 6 0 7532. 7344. 211. o
3 5 6 1 20. 30. 23. <
3 5 6 2 4. 61. 27. <
3 5 6 3 4. -11. 33. <
5 5 6 -3 25. -26. 41. <
5 5 6 -2 2. 40. 40. <
5 5 6 -1 222. 207. 57. o
5 5 6 0 2186. 2014. 189. o
5 5 6 1 203. 158. 64. <
5 5 6 2 0. -32. 50. <
5 5 6 3 16. 12. 50. <
0 6 6 -2 1. 11. 31. <
0 6 6 0 18656. 19338. 489. o
0 6 6 2 75558. 76164. 1318. o
2 6 6 -3 1. 7. 18. <
2 6 6 -2 33. -10. 19. <
2 6 6 -1 935. 960. 68. o
2 6 6 0 61402. 64992. 574. o
2 6 6 1 40673. 43130. 480. o
2 6 6 2 21536. 20841. 343. o
2 6 6 3 8270. 8434. 236. o
4 6 6 -3 9. 39. 32. <
4 6 6 -2 85. 110. 36. o
4 6 6 -1 545. 504. 68. o
4 6 6 0 1009. 857. 88. o
4 6 6 1 17380. 18370. 412. o
4 6 6 2 1091. 968. 96. o
4 6 6 3 3926. 3430. 223. o
1 7 6 -3 14. 1. 20. <
1 7 6 -2 12. 24. 21. <
1 7 6 -1 71. 48. 22. <
1 7 6 0 5839. 5270. 202. o
1 7 6 1 41. 86. 43. <
1 7 6 2 6. 60. 48. <
1 7 6 3 8. 14. 44. <
3 7 6 -3 3. 41. 28. <
3 7 6 -2 21. 12. 30. <
3 7 6 -1 13. 66. 30. <
3 7 6 0 3942. 3742. 198. o
3 7 6 1 59. 83. 36. <
3 7 6 2 15. 102. 42. <
3 7 6 3 15. 16. 35. <
5 7 6 -3 22. -1. 45. <
5 7 6 -2 23. -1. 56. <
5 7 6 -1 91. -11. 54. <
5 7 6 0 1803. 1764. 386. o
0 8 6 -2 67. 98. 78. <
0 8 6 0 7465. 6861. 431. o
0 8 6 2 52. 22. 42. <
2 8 6 -3 18. 23. 25. <
2 8 6 -2 1. 7. 26. <
2 8 6 -1 97. 114. 32. o
2 8 6 0 4213. 4133. 200. o
2 8 6 1 2. 61. 44. <
2 8 6 2 48. 110. 48. <
2 8 6 3 15. 52. 58. <
4 8 6 -3 6. -26. 37. <
4 8 6 -2 3. -12. 40. <
4 8 6 -1 319. 340. 74. o
4 8 6 0 5831. 5436. 328. o
4 8 6 1 10. 24. 61. <
1 9 6 -3 11. -13. 31. <
1 9 6 -2 3. 69. 51. <
1 9 6 -1 1. 53. 46. <
1 9 6 0 3526. 3752. 242. o
1 9 6 1 1287. 1368. 153. o
1 9 6 2 6127. 6063. 302. o
1 9 6 3 21806. 21227. 576. o
3 9 6 -3 6. 44. 35. <
3 9 6 -2 1. 26. 49. <
3 9 6 -1 171. -11. 52. <
3 9 6 0 4138. 4402. 257. o
3 9 6 1 4074. 3949. 231. o
3 9 6 2 15936. 16049. 1068. o
0 10 6 -2 27. 123. 76. <
0 10 6 0 3199. 2863. 325. o
0 10 6 2 11. 9. 74. <
2 10 6 -3 6. 27. 37. <
2 10 6 -2 5. -31. 45. <
2 10 6 -1 111. 22. 46. <
2 10 6 0 5733. 5162. 327. o
2 10 6 1 69. 32. 53. <
4 10 6 -3 0. 19. 80. <
1 11 6 -3 6. -3. 48. <
1 11 6 -2 1. 98. 71. <
1 11 6 -1 7. 78. 50. <
1 11 6 0 3000. 2902. 345. o
3 11 6 -3 26. 64. 60. <
0 0 7 2 0. -32. 19. <
2 0 7 1 12. 17. 13. <
2 0 7 2 4. -18. 14. <
2 0 7 3 0. -25. 16. <
4 0 7 1 84. 119. 34. o
4 0 7 2 0. 16. 24. <
4 0 7 3 1. 15. 24. <
6 0 7 1 4. -143. 56. <
6 0 7 2 1. 70. 46. <
6 0 7 3 0. -37. 51. <
1 1 7 -3 1. -1. 16. <
1 1 7 -2 0. -15. 27. <
1 1 7 -1 153. 194. 29. o
1 1 7 0 101107. 110689. 540. o
1 1 7 1 1432. 1502. 67. o
1 1 7 2 19. 25. 16. <
1 1 7 3 0. 9. 15. <
3 1 7 -3 0. 0. 20. <
3 1 7 -2 77. 53. 19. <
3 1 7 -1 2483. 2321. 99. o
3 1 7 0 55424. 56495. 493. o
3 1 7 1 1777. 1681. 80. o
3 1 7 2 28. 29. 21. <
3 1 7 3 15. 6. 17. <
5 1 7 -3 0. 64. 39. <
5 1 7 -2 66. 66. 38. <
5 1 7 -1 2760. 2818. 171. o
5 1 7 0 22783. 21484. 517. o
5 1 7 1 3022. 2919. 191. o
5 1 7 2 189. 197. 54. o
5 1 7 3 28. 15. 35. <
0 2 7 -2 4. -18. 22. <
0 2 7 0 118499. 128699. 1260. o
0 2 7 2 50. 21. 21. <
2 2 7 -3 0. -13. 17. <
2 2 7 -2 2. -15. 12. <
2 2 7 -1 98. 134. 23. o
2 2 7 0 18230. 18653. 260. o
2 2 7 1 48. 93. 25. o
2 2 7 2 45. 70. 21. o
2 2 7 3 6. -11. 23. <
4 2 7 -3 10. 11. 22. <
4 2 7 -2 248. 203. 36. o
4 2 7 -1 4080. 4156. 172. o
4 2 7 0 38858. 39180. 495. o
4 2 7 1 2944. 2868. 127. o
4 2 7 2 56. 6. 27. <
4 2 7 3 5. 3. 27. <
6 2 7 -3 3. 24. 51. <
6 2 7 -2 0. -19. 52. <
6 2 7 -1 65. 119. 61. <
6 2 7 0 5773. 5991. 344. o
6 2 7 1 260. 288. 149. <
6 2 7 2 2. 84. 64. <
6 2 7 3 1. -72. 109. <
1 3 7 -3 3. 15. 18. <
1 3 7 -2 1. -15. 12. <
1 3 7 -1 2. -14. 14. <
1 3 7 0 3. 23. 10. <
1 3 7 1 14. 52. 17. o
1 3 7 2 10. 17. 18. <
1 3 7 3 4. -8. 20. <
3 3 7 -3 0. 9. 13. <
3 3 7 -2 0. 4. 20. <
3 3 7 -1 0. 48. 22. <
3 3 7 0 5. -39. 25. <
3 3 7 1 0. -17. 25. <
3 3 7 2 0. -2. 20. <
3 3 7 3 1. 31. 20. <
5 3 7 -3 0. 13. 48. <
5 3 7 -2 3. 0. 43. <
5 3 7 -1 17. 36. 40. <
5 3 7 0 2. 46. 46. <
5 3 7 1 6. 4. 34. <
5 3 7 2 0. -21. 43. <
5 3 7 3 1. -116. 50. <
0 4 7 -2 27. 15. 17. <
0 4 7 0 20214. 20576. 337. o
0 4 7 2 337. 323. 53. o
2 4 7 -3 0. 18. 15. <
2 4 7 -2 24. 1. 15. <
2 4 7 -1 1229. 1281. 87. o
2 4 7 0 56857. 57052. 504. o
2 4 7 1 964. 944. 63. o
2 4 7 2 36. 48. 27. <
2 4 7 3 29. 50. 27. <
4 4 7 -3 3. -1. 20. <
4 4 7 -2 1. 13. 23. <
4 4 7 -1 277. 310. 52. o
4 4 7 0 9963. 10895. 289. o
4 4 7 1 1. 24. 31. <
4 4 7 2 10. 68. 34. <
4 4 7 3 41. 25. 33. <
6 4 7 -3 2. -117. 81. <
6 4 7 -2 154. 143. 153. <
1 5 7 -3 1. 0. 13. <
1 5 7 -2 60. 60. 17. o
1 5 7 -1 298. 282. 36. o
1 5 7 0 59551. 59504. 549. o
1 5 7 1 866. 970. 73. o
1 5 7 2 7. 9. 22. <
1 5 7 3 25. 58. 27. <
3 5 7 -3 1. 18. 21. <
3 5 7 -2 117. 113. 28. o
3 5 7 -1 2177. 2044. 117. o
3 5 7 0 44208. 45866. 572. o
3 5 7 1 1081. 1057. 89. o
3 5 7 2 0. 8. 29. <
3 5 7 3 9. 43. 33. <
5 5 7 -3 3. -29. 42. <
5 5 7 -2 99. 39. 46. <
5 5 7 -1 1822. 1717. 154. o
5 5 7 0 16812. 16546. 480. o
5 5 7 1 2281. 2343. 206. o
5 5 7 2 52. 7. 54. <
5 5 7 3 1. 199. 113. <
0 6 7 -2 1. 25. 29. <
0 6 7 0 2. -21. 38. <
0 6 7 2 29. 13. 58. <
2 6 7 -3 2. -8. 21. <
2 6 7 -2 2. -8. 21. <
2 6 7 -1 29. 17. 23. <
2 6 7 0 6. 41. 22. <
2 6 7 1 6. 39. 27. <
2 6 7 2 0. 1. 21. <
2 6 7 3 2. 3. 27. <
4 6 7 -3 1. 11. 23. <
4 6 7 -2 1. -54. 32. <
4 6 7 -1 10. 60. 36. <
4 6 7 0 8. -12. 34. <
4 6 7 1 11. 20. 36. <
4 6 7 2 5. -1. 41. <
4 6 7 3 0. 1. 41. <
1 7 7 -3 1. 10. 24. <
1 7 7 -2 17. 20. 18. <
1 7 7 -1 116. 106. 36. <
1 7 7 0 37722. 36845. 536. o
1 7 7 1 89. 90. 54. <
1 7 7 2 28. 56. 34. <
1 7 7 3 61. 54. 46. <
3 7 7 -3 1. 45. 31. <
3 7 7 -2 56. 82. 40. <
3 7 7 -1 960. 928. 98. o
3 7 7 0 23141. 22864. 489. o
3 7 7 1 1096. 996. 105. o
3 7 7 2 14. -17. 34. <
3 7 7 3 3. 1. 45. <
5 7 7 -3 1. 68. 56. <
5 7 7 -2 79. -10. 49. <
5 7 7 -1 1663. 1742. 388. o
0 8 7 -2 73. 86. 57. <
0 8 7 0 6671. 7070. 443. o
0 8 7 2 179. 92. 72. <
2 8 7 -3 1. 8. 22. <
2 8 7 -2 83. 91. 29. o
2 8 7 -1 561. 637. 64. o
2 8 7 0 29745. 29940. 509. o
2 8 7 1 264. 257. 52. o
2 8 7 2 23. 14. 41. <
2 8 7 3 0. 29. 56. <
4 8 7 -3 6. 9. 39. <
4 8 7 -2 57. 28. 35. <
4 8 7 -1 23. 35. 49. <
4 8 7 0 5777. 6046. 348. o
1 9 7 -3 0. -6. 40. <
1 9 7 -2 1. 25. 35. <
1 9 7 -1 0. -11. 28. <
1 9 7 0 0. -27. 44. <
1 9 7 1 3. 17. 51. <
1 9 7 2 1. -13. 46. <
1 9 7 3 7. 21. 56. <
3 9 7 -3 0. 6. 36. <
3 9 7 -2 0. 19. 46. <
3 9 7 -1 4. -8. 50. <
3 9 7 0 2. 65. 34. <
3 9 7 1 13. 102. 66. <
0 10 7 -2 22. 25. 64. <
0 10 7 0 17185. 17102. 791. o
2 10 7 -3 0. 19. 35. <
2 10 7 -2 12. 73. 51. <
2 10 7 -1 48. 33. 58. <
2 10 7 0 7592. 8618. 379. o
2 10 7 1 0. 165. 214. <
1 11 7 -3 1. 36. 53. <
1 11 7 -2 71. 56. 56. <
1 11 7 -1 100. 52. 46. <
0 0 8 0 2079410. 2117330. 9766. o
0 0 8 2 0. 28. 31. <
2 0 8 0 19486. 22322. 415. o
2 0 8 1 18339. 18560. 266. o
2 0 8 2 2874. 3029. 114. o
2 0 8 3 308. 193. 28. o
4 0 8 0 279819. 280036. 1950. o
4 0 8 1 75822. 78745. 759. o
4 0 8 2 12402. 12422. 327. o
4 0 8 3 1623. 1757. 115. o
6 0 8 0 49894. 49020. 1377. o
6 0 8 1 8332. 7801. 388. o
6 0 8 2 1077. 1325. 161. o
6 0 8 3 1579. 1444. 168. o
1 1 8 -3 0. 12. 14. <
1 1 8 -2 3. 23. 13. <
1 1 8 -1 72. 84. 17. o
1 1 8 0 24395. 23510. 232. o
1 1 8 1 147. 94. 17. o
1 1 8 2 4. -18. 15. <
1 1 8 3 2. 0. 17. <
3 1 8 -3 5. 38. 18. <
3 1 8 -2 16. 4. 15. <
3 1 8 -1 521. 507. 52. o
3 1 8 0 15629. 14851. 319. o
3 1 8 1 921. 930. 76. o
3 1 8 2 61. 32. 23. <
3 1 8 3 2. 48. 25. <
5 1 8 -3 8. -5. 33. <
5 1 8 -2 1. -11. 41. <
5 1 8 -1 330. 285. 66. o
5 1 8 0 6178. 6323. 286. o
5 1 8 1 810. 774. 104. o
5 1 8 2 4. -7. 43. <
5 1 8 3 5. 27. 40. <
0 2 8 -2 1. -26. 23. <
0 2 8 0 26273. 24102. 389. o
0 2 8 2 2. -15. 19. <
2 2 8 -3 11. -1. 20. <
2 2 8 -2 14. 14. 17. <
2 2 8 -1 1. 26. 17. <
2 2 8 0 5638. 5145. 154. o
2 2 8 1 59. 32. 22. <
2 2 8 2 1. 63. 25. <
2 2 8 3 18. 3. 25. <
4 2 8 -3 4. 32. 28. <
4 2 8 -2 2. -27. 21. <
4 2 8 -1 592. 592. 62. o
4 2 8 0 8881. 8955. 243. o
4 2 8 1 502. 455. 60. o
4 2 8 2 3. 25. 29. <
4 2 8 3 8. 48. 30. <
6 2 8 -3 2. 30. 48. <
6 2 8 -2 20. -34. 63. <
6 2 8 -1 95. 88. 58. <
6 2 8 0 2624. 2677. 479. o
1 3 8 -3 2. -5. 11. <
1 3 8 -2 14. 33. 14. <
1 3 8 -1 1228. 1290. 58. o
1 3 8 0 58232. 60463. 398. o
1 3 8 1 130754. 133333. 649. o
1 3 8 2 7095. 7105. 159. o
1 3 8 3 738. 674. 51. o
3 3 8 -3 67. 110. 27. o
3 3 8 -2 1492. 1448. 86. o
3 3 8 -1 25489. 25480. 367. o
3 3 8 0 224375. 228994. 1225. o
3 3 8 1 221. 363. 50. o
3 3 8 2 18751. 18722. 352. o
3 3 8 3 4316. 4218. 171. o
5 3 8 -3 283. 236. 53. o
5 3 8 -2 1073. 1093. 122. o
5 3 8 -1 101. 103. 44. <
5 3 8 0 15638. 14786. 499. o
5 3 8 1 3. 32. 43. <
5 3 8 2 2189. 1807. 156. o
5 3 8 3 3414. 3506. 218. o
0 4 8 -2 1. -11. 16. <
0 4 8 0 6936. 6243. 195. o
0 4 8 2 18. 92. 42. <
2 4 8 -3 10. -17. 22. <
2 4 8 -2 7. 1. 27. <
2 4 8 -1 182. 157. 32. o
2 4 8 0 15086. 14223. 303. o
2 4 8 1 139. 100. 27. o
2 4 8 2 2. 25. 26. <
2 4 8 3 24. 38. 25. <
4 4 8 -3 2. 18. 31. <
4 4 8 -2 3. 37. 27. <
4 4 8 -1 127. 94. 36. <
4 4 8 0 4842. 4246. 186. o
4 4 8 1 88. 7. 33. <
4 4 8 2 4. -67. 37. <
4 4 8 3 18. 34. 35. <
1 5 8 -3 7. -4. 17. <
1 5 8 -2 21. 28. 20. <
1 5 8 -1 103. 89. 23. o
1 5 8 0 17412. 16477. 279. o
1 5 8 1 2. -5. 23. <
1 5 8 2 0. 45. 24. <
1 5 8 3 12. 94. 35. <
3 5 8 -3 5. -28. 32. <
3 5 8 -2 4. 4. 29. <
3 5 8 -1 382. 299. 51. o
3 5 8 0 9180. 8628. 302. o
3 5 8 1 502. 455. 74. o
3 5 8 2 2. 9. 42. <
3 5 8 3 7. -22. 29. <
5 5 8 -3 52. -19. 31. <
5 5 8 -2 119. 113. 46. <
5 5 8 -1 1166. 1106. 126. o
5 5 8 0 5788. 5504. 282. o
5 5 8 1 190. 287. 73. o
5 5 8 2 9. -8. 67. <
0 6 8 -2 170. 150. 50. o
0 6 8 0 113531. 113920. 1259. o
0 6 8 2 75113. 77681. 1103. o
2 6 8 -3 1. -13. 23. <
2 6 8 -2 151. 219. 37. o
2 6 8 -1 6118. 6568. 208. o
2 6 8 0 385955. 386943. 1589. o
2 6 8 1 7845. 8129. 227. o
2 6 8 2 17765. 16229. 330. o
2 6 8 3 7309. 7282. 217. o
4 6 8 -3 1. 22. 29. <
4 6 8 -2 87. 41. 31. <
4 6 8 -1 855. 990. 96. o
4 6 8 0 7656. 8080. 296. o
4 6 8 1 32644. 34467. 775. o
4 6 8 2 1009. 829. 123. o
4 6 8 3 3924. 3292. 251. o
1 7 8 -3 11. 13. 23. <
1 7 8 -2 17. 18. 25. <
1 7 8 -1 6. -14. 20. <
1 7 8 0 9175. 8866. 270. o
1 7 8 1 14. 82. 34. <
1 7 8 2 1. -37. 37. <
1 7 8 3 7. -50. 40. <
3 7 8 -3 2. 22. 44. <
3 7 8 -2 19. -31. 31. <
3 7 8 -1 201. 139. 37. o
3 7 8 0 5452. 5158. 238. o
3 7 8 1 561. 662. 92. o
3 7 8 2 3. -23. 37. <
3 7 8 3 11. -24. 53. <
5 7 8 -3 24. 24. 36. <
5 7 8 -2 6. 36. 74. <
0 8 8 -2 6. -28. 48. <
0 8 8 0 4325. 3544. 317. o
0 8 8 2 76. 49. 71. <
2 8 8 -3 25. -24. 34. <
2 8 8 -2 57. 5. 29. <
2 8 8 -1 181. 70. 31. <
2 8 8 0 7681. 7418. 242. o
2 8 8 1 243. 228. 49. o
2 8 8 2 20. -12. 41. <
2 8 8 3 11. 16. 44. <
4 8 8 -3 1. -8. 38. <
4 8 8 -2 16. -161. 59. <
4 8 8 -1 42. 77. 50. <
4 8 8 0 2190. 1699. 189. o
1 9 8 -3 5. -18. 33. <
1 9 8 -2 153. 65. 47. <
1 9 8 -1 207. 258. 64. o
1 9 8 0 34123. 35349. 760. o
1 9 8 1 2388. 2398. 206. o
1 9 8 2 3881. 3606. 256. o
1 9 8 3 20587. 20385. 630. o
3 9 8 -3 29. -37. 35. <
3 9 8 -2 232. 143. 50. <
3 9 8 -1 1963. 1562. 157. o
3 9 8 0 23952. 23280. 682. o
3 9 8 1 9079. 9694. 950. o
0 10 8 -2 10. 48. 41. <
0 10 8 0 3632. 3212. 349. o
2 10 8 -3 8. -50. 45. <
2 10 8 -2 17. 3. 40. <
2 10 8 -1 1. 36. 36. <
2 10 8 0 2718. 2761. 247. o
1 11 8 -3 7. 40. 76. <
1 11 8 -2 38. 129. 72. <
1 11 8 -1 88. 282. 145. <
0 0 9 2 1. 26. 34. <
2 0 9 1 1. 24. 15. <
2 0 9 2 4. 1. 18. <
2 0 9 3 0. 1. 23. <
4 0 9 1 133. 118. 37. o
4 0 9 2 22. 31. 52. <
4 0 9 3 2. -3. 28. <
6 0 9 1 14. -8. 87. <
6 0 9 2 3. -55. 60. <
6 0 9 3 0. -101. 100. <
1 1 9 -3 1. -7. 16. <
1 1 9 -2 12. 9. 16. <
1 1 9 -1 318. 280. 30. o
1 1 9 0 19190. 19528. 276. o
1 1 9 1 94. 85. 19. o
1 1 9 2 76. 79. 18. o
1 1 9 3 0. 21. 14. <
3 1 9 -3 0. 5. 23. <
3 1 9 -2 3. -8. 18. <
3 1 9 -1 218. 230. 39. o
3 1 9 0 11026. 11090. 281. o
3 1 9 1 941. 1048. 95. o
3 1 9 2 131. 148. 36. o
3 1 9 3 16. 73. 23. o
5 1 9 -3 2. 104. 48. <
5 1 9 -2 27. 16. 38. <
5 1 9 -1 495. 573. 89. o
5 1 9 0 5609. 5537. 249. o
5 1 9 1 680. 723. 92. o
5 1 9 2 5. 27. 33. <
5 1 9 3 33. 40. 49. <
0 2 9 -2 1. 10. 29. <
0 2 9 0 14643. 14898. 356. o
0 2 9 2 106. 96. 23. o
2 2 9 -3 0. 19. 17. <
2 2 9 -2 4. 2. 19. <
2 2 9 -1 42. 43. 20. <
2 2 9 0 51309. 53494. 513. o
2 2 9 1 569. 696. 66. o
2 2 9 2 25. 45. 27. <
2 2 9 3 7. 5. 27. <
4 2 9 -3 4. 33. 33. <
4 2 9 -2 9. 24. 34. <
4 2 9 -1 282. 217. 42. o
4 2 9 0 8132. 8573. 258. o
4 2 9 1 403. 474. 58. o
4 2 9 2 0. -10. 30. <
4 2 9 3 5. -11. 28. <
6 2 9 -3 15. -19. 42. <
6 2 9 -2 11. -52. 66. <
6 2 9 -1 830. 803. 257. o
1 3 9 -3 4. 1. 16. <
1 3 9 -2 6. 3. 17. <
1 3 9 -1 5. -2. 12. <
1 3 9 0 0. -37. 19. <
1 3 9 1 0. 3. 17. <
1 3 9 2 2. -3. 15. <
1 3 9 3 7. 4. 17. <
3 3 9 -3 0. 20. 24. <
3 3 9 -2 7. -30. 20. <
3 3 9 -1 17. 13. 25. <
3 3 9 0 9. -9. 21. <
3 3 9 1 10. 18. 23. <
3 3 9 2 0. 20. 31. <
3 3 9 3 0. -17. 38. <
5 3 9 -3 0. 30. 33. <
5 3 9 -2 2. 17. 34. <
5 3 9 -1 5. -68. 43. <
5 3 9 0 1. -21. 44. <
5 3 9 1 8. 18. 39. <
5 3 9 2 3. -21. 51. <
5 3 9 3 1. 77. 47. <
0 4 9 -2 0. 15. 18. <
0 4 9 0 58762. 60947. 579. o
0 4 9 2 128. 123. 31. o
2 4 9 -3 2. -9. 24. <
2 4 9 -2 6. 29. 19. <
2 4 9 -1 64. 82. 32. <
2 4 9 0 10134. 10094. 326. o
2 4 9 1 269. 357. 60. o
2 4 9 2 164. 175. 37. o
2 4 9 3 64. 69. 36. <
4 4 9 -3 2. 8. 25. <
4 4 9 -2 4. 56. 29. <
4 4 9 -1 1269. 1381. 99. o
4 4 9 0 30423. 32017. 518. o
4 4 9 1 810. 869. 87. o
4 4 9 2 3. 29. 38. <
4 4 9 3 34. 21. 28. <
1 5 9 -3 0. -19. 14. <
1 5 9 -2 3. -9. 17. <
1 5 9 -1 45. 51. 19. <
1 5 9 0 14702. 14760. 272. o
1 5 9 1 68. 76. 27. <
1 5 9 2 1. -8. 23. <
1 5 9 3 41. 60. 30. <
3 5 9 -3 1. 8. 29. <
3 5 9 -2 9. 1. 30. <
3 5 9 -1 238. 250. 52. o
3 5 9 0 7402. 7248. 284. o
3 5 9 1 585. 398. 78. o
3 5 9 2 3. 17. 52. <
3 5 9 3 10. 91. 42. <
5 5 9 -3 3. 56. 53. <
5 5 9 -2 81. 151. 47. o
5 5 9 -1 887. 877. 106. o
5 5 9 0 4967. 5392. 259. o
5 5 9 1 364. 480. 92. o
5 5 9 2 0. 62. 65. <
0 6 9 -2 14. 7. 30. <
0 6 9 0 12. 30. 33. <
0 6 9 2 11. 17. 41. <
2 6 9 -3 1. 35. 22. <
2 6 9 -2 4. -13. 22. <
2 6 9 -1 40. 81. 35. <
2 6 9 0 49. 111. 33. o
2 6 9 1 48. 13. 27. <
2 6 9 2 6. -12. 30. <
2 6 9 3 1. 27. 24. <
4 6 9 -3 5. 20. 27. <
4 6 9 -2 8. 87. 38. <
4 6 9 -1 5. 10. 35. <
4 6 9 0 0. -70. 38. <
4 6 9 1 0. 38. 43. <
4 6 9 2 4. 49. 48. <
4 6 9 3 0. 74. 63. <
1 7 9 -3 1. 9. 19. <
1 7 9 -2 5. -5. 26. <
1 7 9 -1 35. 39. 23. <
1 7 9 0 7644. 7942. 264. o
1 7 9 1 141. 120. 42. <
1 7 9 2 22. 54. 35. <
1 7 9 3 72. 129. 50. <
3 7 9 -3 0. 34. 35. <
3 7 9 -2 2. 6. 41. <
3 7 9 -1 176. 131. 41. o
3 7 9 0 5660. 5557. 271. o
3 7 9 1 156. 214. 54. o
3 7 9 2 0. 38. 40. <
3 7 9 3 20. 37. 43. <
5 7 9 -3 2. -15. 46. <
0 8 9 -2 9. -4. 53. <
0 8 9 0 29149. 30013. 940. o
0 8 9 2 101. 27. 43. <
2 8 9 -3 1. -17. 27. <
2 8 9 -2 17. 94. 36. <
2 8 9 -1 145. 116. 33. o
2 8 9 0 6478. 6540. 230. o
2 8 9 1 298. 315. 54. o
2 8 9 2 89. 157. 49. o
2 8 9 3 0. 42. 40. <
4 8 9 -3 0. -14. 59. <
4 8 9 -2 2. -44. 63. <
4 8 9 -1 380. 384. 99. o
1 9 9 -3 0. 15. 37. <
1 9 9 -2 4. 18. 40. <
1 9 9 -1 2. 14. 44. <
1 9 9 0 9. -77. 50. <
1 9 9 1 0. 19. 46. <
1 9 9 2 3. -65. 58. <
1 9 9 3 9. -98. 82. <
3 9 9 -3 1. -72. 56. <
3 9 9 -2 16. 9. 38. <
3 9 9 -1 15. -77. 53. <
3 9 9 0 4. 17. 65. <
0 10 9 -2 0. -64. 63. <
0 10 9 0 3671. 3669. 372. o
2 10 9 -3 1. 21. 40. <
2 10 9 -2 0. 12. 47. <
2 10 9 -1 303. 307. 63. o
2 10 9 0 21942. 22338. 1250. o
1 11 9 -3 0. 13. 53. <
1 11 9 -2 13. -1. 50. <
0 0 10 0 7201. 7091. 305. o
0 0 10 2 20. 40. 22. <
2 0 10 0 5004. 5353. 218. o
2 0 10 1 26488. 26653. 347. o
2 0 10 2 2127. 2279. 117. o
2 0 10 3 222. 211. 36. o
4 0 10 0 66888. 69929. 1162. o
4 0 10 1 5361. 5523. 250. o
4 0 10 2 7324. 7376. 290. o
4 0 10 3 1373. 1589. 116. o
1 1 10 -3 0. 9. 17. <
1 1 10 -2 2. 29. 16. <
1 1 10 -1 2. -5. 15. <
1 1 10 0 31. 104. 26. o
1 1 10 1 3. 7. 15. <
1 1 10 2 2. 7. 18. <
1 1 10 3 1. -2. 18. <
3 1 10 -3 6. 29. 24. <
3 1 10 -2 20. -1. 22. <
3 1 10 -1 19. 40. 23. <
3 1 10 0 73. 87. 26. o
3 1 10 1 80. 139. 37. o
3 1 10 2 36. 40. 25. <
3 1 10 3 2. 50. 30. <
5 1 10 -3 5. -32. 31. <
5 1 10 -2 2. 46. 44. <
5 1 10 -1 0. 5. 29. <
5 1 10 0 19. 104. 49. <
5 1 10 1 20. -80. 57. <
5 1 10 2 2. -7. 34. <
5 1 10 3 5. -16. 50. <
0 2 10 -2 1. -14. 22. <
0 2 10 0 65. 94. 27. o
0 2 10 2 11. 23. 21. <
2 2 10 -3 10. 20. 19. <
2 2 10 -2 30. -5. 23. <
2 2 10 -1 1120. 1130. 78. o
2 2 10 0 46813. 46018. 541. o
2 2 10 1 192. 168. 28. o
2 2 10 2 5. -23. 29. <
2 2 10 3 12. -19. 21. <
4 2 10 -3 5. -15. 39. <
4 2 10 -2 2. 11. 41. <
4 2 10 -1 0. -26. 28. <
4 2 10 0 15. 41. 34. <
4 2 10 1 2. 7. 32. <
4 2 10 2 1. 14. 28. <
4 2 10 3 7. 25. 29. <
1 3 10 -3 3. 53. 22. <
1 3 10 -2 5. 13. 19. <
1 3 10 -1 158. 195. 29. o
1 3 10 0 259. 397. 45. o
1 3 10 1 95560. 98513. 628. o
1 3 10 2 7554. 7968. 171. o
1 3 10 3 618. 598. 49. o
3 3 10 -3 47. 45. 30. <
3 3 10 -2 823. 738. 75. o
3 3 10 -1 10028. 10489. 318. o
3 3 10 0 81908. 83917. 910. o
3 3 10 1 1137. 1085. 102. o
3 3 10 2 15936. 15535. 371. o
3 3 10 3 3581. 3613. 182. o
5 3 10 -3 302. 345. 74. o
5 3 10 -2 1893. 1794. 160. o
5 3 10 -1 4003. 3926. 217. o
5 3 10 0 820. 619. 95. o
5 3 10 1 3174. 2839. 231. o
5 3 10 2 1505. 1325. 139. o
5 3 10 3 3215. 3223. 220. o
0 4 10 -2 19. 8. 19. <
0 4 10 0 43592. 41679. 496. o
0 4 10 2 7. 36. 28. <
2 4 10 -3 6. 5. 31. <
2 4 10 -2 0. 7. 31. <
2 4 10 -1 0. 29. 30. <
2 4 10 0 42. 67. 33. <
2 4 10 1 2. 1. 31. <
2 4 10 2 2. -2. 35. <
2 4 10 3 19. 39. 27. <
4 4 10 -3 4. 82. 34. <
4 4 10 -2 6. -17. 34. <
4 4 10 -1 433. 412. 61. o
4 4 10 0 18663. 18058. 373. o
4 4 10 1 1587. 1605. 133. o
4 4 10 2 18. 74. 36. <
4 4 10 3 21. -77. 40. <
1 5 10 -3 6. -6. 21. <
1 5 10 -2 11. 40. 21. <
1 5 10 -1 0. 6. 18. <
1 5 10 0 112. 140. 27. o
1 5 10 1 22. 12. 23. <
1 5 10 2 4. 19. 24. <
1 5 10 3 10. 27. 30. <
3 5 10 -3 5. -56. 36. <
3 5 10 -2 0. -1. 34. <
3 5 10 -1 3. -92. 36. <
3 5 10 0 12. 5. 43. <
3 5 10 1 35. 41. 57. <
3 5 10 2 2. -62. 40. <
3 5 10 3 7. 76. 55. <
5 5 10 -3 39. -16. 52. <
5 5 10 -2 41. -23. 47. <
5 5 10 -1 120. 78. 46. <
5 5 10 0 92. 68. 44. <
5 5 10 1 1. -25. 47. <
0 6 10 -2 46. 14. 32. <
0 6 10 0 22864. 23531. 596. o
0 6 10 2 59787. 59335. 1252. o
2 6 10 -3 0. 35. 37. <
2 6 10 -2 0. -7. 34. <
2 6 10 -1 516. 419. 59. o
2 6 10 0 38340. 40405. 542. o
2 6 10 1 30769. 31535. 499. o
2 6 10 2 17247. 17943. 384. o
2 6 10 3 6844. 6871. 229. o
4 6 10 -3 1. 39. 33. <
4 6 10 -2 4. 38. 33. <
4 6 10 -1 170. 17. 37. <
4 6 10 0 128. 53. 43. <
4 6 10 1 16712. 17465. 509. o
4 6 10 2 1051. 1118. 148. o
4 6 10 3 3374. 2759. 281. o
1 7 10 -3 10. -17. 24. <
1 7 10 -2 1. -17. 23. <
1 7 10 -1 22. 44. 28. <
1 7 10 0 1. 17. 27. <
1 7 10 1 1. -34. 38. <
1 7 10 2 2. 3. 31. <
1 7 10 3 5. -62. 35. <
3 7 10 -3 3. 20. 31. <
3 7 10 -2 36. -40. 43. <
3 7 10 -1 19. -6. 58. <
3 7 10 0 0. 95. 49. <
3 7 10 1 62. 65. 52. <
3 7 10 2 6. -5. 39. <
3 7 10 3 10. 54. 46. <
0 8 10 -2 10. 18. 31. <
0 8 10 0 22676. 22003. 819. o
0 8 10 2 84. 42. 77. <
2 8 10 -3 20. 3. 40. <
2 8 10 -2 31. 23. 32. <
2 8 10 -1 9. -29. 28. <
2 8 10 0 50. 33. 43. <
2 8 10 1 50. 44. 36. <
2 8 10 2 15. -1. 52. <
2 8 10 3 10. 8. 50. <
4 8 10 -3 1. 43. 69. <
4 8 10 -2 65. -107. 67. <
1 9 10 -3 7. -2. 40. <
1 9 10 -2 14. 16. 38. <
1 9 10 -1 8. 47. 56. <
1 9 10 0 5166. 5897. 287. o
1 9 10 1 1291. 1348. 143. o
1 9 10 2 5038. 5445. 290. o
3 9 10 -3 13. 16. 38. <
3 9 10 -2 21. -3. 41. <
3 9 10 -1 283. 169. 59. <
3 9 10 0 5407. 5171. 672. o
0 10 10 -2 31. -51. 62. <
0 10 10 0 11. 69. 68. <
2 10 10 -3 5. 36. 32. <
2 10 10 -2 1. 3. 42. <
2 10 10 -1 186. 142. 58. <
1 11 10 -3 6. 25. 59. <
1 11 10 -2 24. 228. 145. <
0 0 11 2 22. 33. 24. <
2 0 11 1 1. -7. 23. <
2 0 11 2 1. 1. 25. <
2 0 11 3 0. -29. 24. <
4 0 11 1 2. 55. 41. <
4 0 11 2 0. -15. 44. <
4 0 11 3 0. 16. 33. <
1 1 11 -3 1. -17. 22. <
1 1 11 -2 19. 31. 21. <
1 1 11 -1 437. 469. 46. o
1 1 11 0 13510. 14202. 260. o
1 1 11 1 73. 67. 23. <
1 1 11 2 66. 84. 24. o
1 1 11 3 0. -11. 20. <
3 1 11 -3 0. 14. 22. <
3 1 11 -2 0. 26. 23. <
3 1 11 -1 395. 341. 51. o
3 1 11 0 7065. 6707. 254. o
3 1 11 1 1375. 1433. 118. o
3 1 11 2 218. 188. 38. o
3 1 11 3 23. -9. 26. <
5 1 11 -3 4. 14. 45. <
5 1 11 -2 71. 14. 48. <
5 1 11 -1 811. 802. 124. o
5 1 11 0 3416. 2814. 202. o
5 1 11 1 1126. 1127. 129. o
5 1 11 2 0. -22. 46. <
5 1 11 3 37. -6. 51. <
0 2 11 -2 22. 8. 26. <
0 2 11 0 9596. 10079. 331. o
0 2 11 2 158. 139. 32. o
2 2 11 -3 0. -8. 21. <
2 2 11 -2 79. 86. 30. <
2 2 11 -1 4404. 4454. 172. o
2 2 11 0 205317. 219434. 1245. o
2 2 11 1 3021. 3118. 138. o
2 2 11 2 82. 56. 27. <
2 2 11 3 8. 44. 33. <
4 2 11 -3 2. -25. 34. <
4 2 11 -2 0. 34. 27. <
4 2 11 -1 339. 257. 46. o
4 2 11 0 4003. 3930. 172. o
4 2 11 1 563. 587. 75. o
4 2 11 2 1. -19. 34. <
4 2 11 3 7. -33. 33. <
1 3 11 -3 4. 12. 19. <
1 3 11 -2 1. 14. 16. <
1 3 11 -1 2. 8. 16. <
1 3 11 0 1. -2. 19. <
1 3 11 1 4. 6. 23. <
1 3 11 2 2. 24. 23. <
1 3 11 3 9. 8. 18. <
3 3 11 -3 1. 39. 33. <
3 3 11 -2 0. 16. 37. <
3 3 11 -1 39. 28. 30. <
3 3 11 0 14. 2. 34. <
3 3 11 1 32. 62. 33. <
3 3 11 2 6. 8. 37. <
3 3 11 3 0. 7. 34. <
5 3 11 -3 1. 63. 52. <
5 3 11 -2 1. 12. 50. <
5 3 11 -1 4. 6. 36. <
5 3 11 0 1. 33. 34. <
5 3 11 1 13. 11. 45. <
5 3 11 2 0. 21. 42. <
5 3 11 3 0. 10. 48. <
0 4 11 -2 2. 20. 21. <
0 4 11 0 197381. 207748. 1163. o
0 4 11 2 145. 60. 34. <
2 4 11 -3 4. 35. 27. <
2 4 11 -2 25. -10. 20. <
2 4 11 -1 103. 108. 41. <
2 4 11 0 6083. 5833. 264. o
2 4 11 1 385. 481. 86. o
2 4 11 2 216. 274. 60. o
2 4 11 3 84. 60. 36. <
4 4 11 -3 0. 25. 36. <
4 4 11 -2 177. 137. 42. o
4 4 11 -1 6371. 6173. 239. o
4 4 11 0 90280. 91307. 930. o
4 4 11 1 5016. 4726. 213. o
4 4 11 2 63. 68. 41. <
4 4 11 3 54. 52. 56. <
1 5 11 -3 0. -2. 22. <
1 5 11 -2 43. 56. 22. <
1 5 11 -1 91. 88. 23. o
1 5 11 0 11070. 10819. 246. o
1 5 11 1 83. 93. 29. o
1 5 11 2 11. 17. 25. <
1 5 11 3 54. 58. 31. <
3 5 11 -3 4. -48. 39. <
3 5 11 -2 59. -1. 33. <
3 5 11 -1 310. 445. 79. o
3 5 11 0 3800. 3512. 211. o
3 5 11 1 923. 993. 115. o
3 5 11 2 1. 6. 50. <
3 5 11 3 10. 42. 43. <
5 5 11 -3 11. 22. 55. <
5 5 11 -2 228. 159. 52. o
5 5 11 -1 1499. 1584. 161. o
0 6 11 -2 1. 27. 27. <
0 6 11 0 0. -1. 31. <
0 6 11 2 3. 3. 34. <
2 6 11 -3 3. 7. 51. <
2 6 11 -2 3. 38. 37. <
2 6 11 -1 2. -6. 34. <
2 6 11 0 0. 11. 39. <
2 6 11 1 3. -23. 44. <
2 6 11 2 30. -15. 43. <
2 6 11 3 1. 43. 28. <
4 6 11 -3 4. 57. 44. <
4 6 11 -2 0. -34. 44. <
4 6 11 -1 4. 39. 54. <
4 6 11 0 5. 92. 49. <
4 6 11 1 0. -18. 40. <
4 6 11 2 0. -57. 58. <
1 7 11 -3 0. 10. 26. <
1 7 11 -2 30. 19. 30. <
1 7 11 -1 66. 56. 26. <
1 7 11 0 3709. 3522. 169. o
1 7 11 1 159. 296. 55. o
1 7 11 2 50. 57. 40. <
1 7 11 3 94. 147. 49. o
3 7 11 -3 0. 2. 36. <
3 7 11 -2 21. 59. 55. <
3 7 11 -1 239. 249. 68. o
3 7 11 0 3497. 3310. 245. o
3 7 11 1 321. 222. 63. o
3 7 11 2 1. 6. 46. <
3 7 11 3 29. -29. 46. <
0 8 11 -2 66. 38. 35. <
0 8 11 0 102106. 103500. 1822. o
0 8 11 2 76. 270. 113. <
2 8 11 -3 3. -48. 36. <
2 8 11 -2 89. 10. 31. <
2 8 11 -1 202. 199. 50. o
2 8 11 0 4866. 4663. 211. o
2 8 11 1 481. 577. 81. o
2 8 11 2 175. 124. 51. <
2 8 11 3 1. 1. 58. <
4 8 11 -3 4. -7. 39. <
1 9 11 -3 0. 17. 35. <
1 9 11 -2 0. 27. 38. <
1 9 11 -1 2. 9. 35. <
1 9 11 0 4. -52. 43. <
1 9 11 1 8. -4. 33. <
1 9 11 2 11. 68. 79. <
3 9 11 -3 0. -41. 50. <
3 9 11 -2 4. 12. 44. <
3 9 11 -1 4. -247. 116. <
0 10 11 -2 15. 24. 54. <
2 10 11 -3 2. 51. 37. <
2 10 11 -2 43. 29. 45. <
2 10 11 -1 826. 587. 203. <
1 11 11 -3 0. 126. 53. <
0 0 12 0 72872. 77148. 1129. o
0 0 12 2 21. 74. 28. <
2 0 12 0 408653. 409844. 2451. o
2 0 12 1 51850. 53258. 531. o
2 0 12 2 1996. 1952. 118. o
2 0 12 3 168. 171. 37. o
4 0 12 0 6199. 5864. 422. o
4 0 12 1 4847. 5170. 255. o
4 0 12 2 5825. 6018. 274. o
4 0 12 3 1161. 1114. 95. o
1 1 12 -3 0. -16. 20. <
1 1 12 -2 0. -10. 17. <
1 1 12 -1 6. 10. 17. <
1 1 12 0 2434. 2594. 116. o
1 1 12 1 30. 52. 24. <
1 1 12 2 5. 7. 22. <
1 1 12 3 1. 1. 22. <
3 1 12 -3 4. 41. 24. <
3 1 12 -2 6. 27. 30. <
3 1 12 -1 24. 1. 31. <
3 1 12 0 821. 763. 90. o
3 1 12 1 71. 56. 29. <
3 1 12 2 5. -26. 29. <
3 1 12 3 1. 31. 41. <
5 1 12 -3 4. 25. 49. <
5 1 12 -2 9. 15. 45. <
5 1 12 -1 111. 102. 48. <
5 1 12 0 349. 343. 75. o
5 1 12 1 215. 259. 70. o
5 1 12 2 53. -11. 54. <
5 1 12 3 9. -231. 80. <
0 2 12 -2 7. 21. 28. <
0 2 12 0 2614. 2396. 169. o
0 2 12 2 1. 8. 28. <
2 2 12 -3 5. 84. 38. <
2 2 12 -2 4. -40. 26. <
2 2 12 -1 788. 805. 78. o
2 2 12 0 48396. 47907. 594. o
2 2 12 1 590. 621. 65. o
2 2 12 2 0. -10. 27. <
2 2 12 3 11. -7. 32. <
4 2 12 -3 10. 58. 42. <
4 2 12 -2 60. 19. 35. <
4 2 12 -1 340. 340. 53. o
4 2 12 0 875. 895. 94. o
4 2 12 1 43. 29. 32. <
4 2 12 2 1. 31. 27. <
4 2 12 3 4. 25. 37. <
1 3 12 -3 2. 4. 20. <
1 3 12 -2 20. 7. 27. <
1 3 12 -1 760. 758. 69. o
1 3 12 0 320310. 316737. 1411. o
1 3 12 1 57693. 58924. 596. o
1 3 12 2 7492. 8167. 224. o
1 3 12 3 499. 416. 50. o
3 3 12 -3 19. -36. 31. <
3 3 12 -2 122. 139. 42. o
3 3 12 -1 27. 56. 31. <
3 3 12 0 38812. 41631. 675. o
3 3 12 1 16128. 16920. 433. o
3 3 12 2 14557. 13175. 388. o
3 3 12 3 2958. 3349. 223. o
5 3 12 -3 396. 454. 83. o
5 3 12 -2 4306. 4005. 277. o
5 3 12 -1 32098. 32666. 792. o
5 3 12 0 92277. 92975. 1221. o
5 3 12 1 30095. 29750. 624. o
5 3 12 2 433. 380. 92. o
5 3 12 3 2854. 3002. 474. o
0 4 12 -2 16. 66. 37. <
0 4 12 0 47577. 45698. 613. o
0 4 12 2 1. 26. 28. <
2 4 12 -3 4. -9. 30. <
2 4 12 -2 0. 2. 30. <
2 4 12 -1 23. 61. 54. <
2 4 12 0 823. 855. 109. o
2 4 12 1 140. 79. 38. <
2 4 12 2 1. -30. 39. <
2 4 12 3 15. 7. 33. <
4 4 12 -3 3. 27. 35. <
4 4 12 -2 3. 66. 34. <
4 4 12 -1 1081. 1054. 103. o
4 4 12 0 25013. 24350. 492. o
4 4 12 1 1762. 1622. 142. o
4 4 12 2 34. -34. 50. <
4 4 12 3 15. -36. 48. <
1 5 12 -3 7. -5. 26. <
1 5 12 -2 5. 25. 25. <
1 5 12 -1 16. 13. 22. <
1 5 12 0 1217. 1231. 94. o
1 5 12 1 89. 93. 31. o
1 5 12 2 0. -5. 25. <
1 5 12 3 7. 26. 22. <
3 5 12 -3 12. 0. 41. <
3 5 12 -2 51. 39. 36. <
3 5 12 -1 196. 233. 69. o
3 5 12 0 1162. 1333. 136. o
3 5 12 1 0. -52. 43. <
3 5 12 2 0. 2. 37. <
3 5 12 3 4. 38. 56. <
5 5 12 -3 15. -12. 41. <
5 5 12 -2 4. 101. 90. <
0 6 12 -2 20. -13. 36. <
0 6 12 0 111401. 113500. 1397. o
0 6 12 2 46271. 45238. 1137. o
2 6 12 -3 2. -54. 35. <
2 6 12 -2 118. 40. 35. <
2 6 12 -1 384. 279. 64. o
2 6 12 0 489. 480. 84. o
2 6 12 1 27175. 27597. 645. o
2 6 12 2 17607. 17289. 520. o
2 6 12 3 6355. 5974. 259. o
4 6 12 -3 19. 72. 49. <
4 6 12 -2 553. 422. 86. o
4 6 12 -1 11913. 11314. 475. o
4 6 12 0 123618. 120377. 1578. o
4 6 12 1 655. 848. 139. o
1 7 12 -3 9. -32. 28. <
1 7 12 -2 0. 28. 30. <
1 7 12 -1 19. -15. 31. <
1 7 12 0 493. 491. 70. o
1 7 12 1 22. 38. 36. <
1 7 12 2 10. 29. 36. <
1 7 12 3 2. 8. 43. <
3 7 12 -3 4. -6. 38. <
3 7 12 -2 34. -4. 36. <
3 7 12 -1 8. -63. 53. <
3 7 12 0 416. 492. 112. o
3 7 12 1 1. -9. 53. <
3 7 12 2 3. 135. 78. <
3 7 12 3 11. -47. 56. <
0 8 12 -2 80. 81. 61. <
0 8 12 0 29920. 27663. 956. o
0 8 12 2 47. 194. 94. <
2 8 12 -3 10. -5. 38. <
2 8 12 -2 2. 28. 41. <
2 8 12 -1 39. 105. 44. <
2 8 12 0 643. 672. 90. o
2 8 12 1 7. 11. 42. <
2 8 12 2 31. 7. 38. <
1 9 12 -3 12. -12. 29. <
1 9 12 -2 95. 72. 43. <
1 9 12 -1 454. 470. 79. o
1 9 12 0 82252. 83574. 1023. o
1 9 12 1 114. 163. 67. <
3 9 12 -3 0. -9. 53. <
3 9 12 -2 175. 174. 100. <
0 10 12 -2 47. 163. 86. <
2 10 12 -3 3. 5. 48. <
2 10 12 -2 0. 1. 55. <
1 11 12 -3 4. 159. 134. <
0 0 13 2 16. 21. 23. <
2 0 13 1 24. 39. 29. <
2 0 13 2 1. 82. 32. <
2 0 13 3 0. 1. 28. <
4 0 13 1 8. 66. 47. <
4 0 13 2 0. -58. 44. <
4 0 13 3 0. -3. 31. <
1 1 13 -3 2. 12. 23. <
1 1 13 -2 3. 12. 20. <
1 1 13 -1 180. 203. 34. o
1 1 13 0 2365. 2426. 118. o
1 1 13 1 479. 556. 58. o
1 1 13 2 29. 15. 24. <
1 1 13 3 0. 24. 26. <
3 1 13 -3 0. 23. 35. <
3 1 13 -2 31. -7. 23. <
3 1 13 -1 1. 57. 38. <
3 1 13 0 1464. 1498. 129. o
3 1 13 1 107. 109. 47. <
3 1 13 2 211. 186. 54. o
3 1 13 3 34. 17. 29. <
5 1 13 -3 1. 11. 50. <
5 1 13 -2 4. 70. 48. <
5 1 13 -1 65. 92. 55. <
5 1 13 0 1230. 1210. 137. o
5 1 13 1 1. 137. 58. <
5 1 13 2 59. 0. 51. <
5 1 13 3 49. 44. 65. <
0 2 13 -2 6. -37. 38. <
0 2 13 0 456. 539. 87. o
0 2 13 2 146. 143. 42. o
2 2 13 -3 0. -14. 26. <
2 2 13 -2 3. -9. 29. <
2 2 13 -1 237. 288. 47. o
2 2 13 0 59086. 60954. 691. o
2 2 13 1 770. 719. 71. o
2 2 13 2 30. 56. 29. <
2 2 13 3 10. 23. 35. <
4 2 13 -3 8. 17. 38. <
4 2 13 -2 84. 118. 42. <
4 2 13 -1 121. 90. 42. <
4 2 13 0 1119. 1002. 98. o
4 2 13 1 16. 34. 39. <
4 2 13 2 5. -59. 40. <
4 2 13 3 9. -17. 30. <
1 3 13 -3 5. 9. 25. <
1 3 13 -2 3. -33. 26. <
1 3 13 -1 1. -38. 29. <
1 3 13 0 17. 0. 23. <
1 3 13 1 13. 27. 28. <
1 3 13 2 0. 12. 25. <
1 3 13 3 9. -9. 27. <
3 3 13 -3 2. 36. 33. <
3 3 13 -2 4. -19. 37. <
3 3 13 -1 8. -28. 29. <
3 3 13 0 0. 41. 32. <
3 3 13 1 5. 7. 42. <
3 3 13 2 8. -6. 53. <
3 3 13 3 0. 50. 39. <
5 3 13 -3 3. 35. 49. <
5 3 13 -2 20. 40. 62. <
5 3 13 -1 51. -61. 70. <
5 3 13 0 3. -101. 93. <
5 3 13 1 20. -93. 59. <
5 3 13 2 3. -260. 145. <
0 4 13 -2 18. -71. 34. <
0 4 13 0 61754. 63129. 742. o
0 4 13 2 470. 605. 96. o
2 4 13 -3 2. 20. 25. <
2 4 13 -2 1. 12. 33. <
2 4 13 -1 1. -4. 51. <
2 4 13 0 1398. 1408. 139. o
2 4 13 1 7. -6. 34. <
2 4 13 2 100. 9. 45. <
2 4 13 3 76. 129. 50. <
4 4 13 -3 6. 36. 36. <
4 4 13 -2 24. 44. 36. <
4 4 13 -1 1556. 1290. 115. o
4 4 13 0 35168. 36458. 668. o
4 4 13 1 2002. 2101. 163. o
4 4 13 2 0. 2. 59. <
4 4 13 3 84. 177. 71. <
1 5 13 -3 1. -7. 24. <
1 5 13 -2 3. 13. 25. <
1 5 13 -1 2. 11. 29. <
1 5 13 0 1955. 1917. 118. o
1 5 13 1 283. 255. 43. o
1 5 13 2 0. 12. 27. <
1 5 13 3 59. 58. 29. <
3 5 13 -3 0. -39. 37. <
3 5 13 -2 6. 50. 52. <
3 5 13 -1 29. -18. 39. <
3 5 13 0 469. 491. 95. o
3 5 13 1 187. 393. 78. o
3 5 13 2 3. -8. 36. <
3 5 13 3 17. 6. 50. <
5 5 13 -3 0. 17. 64. <
0 6 13 -2 0. -49. 61. <
0 6 13 0 15. -39. 38. <
0 6 13 2 16. -32. 65. <
2 6 13 -3 4. 4. 36. <
2 6 13 -2 10. -67. 49. <
2 6 13 -1 1. 17. 37. <
2 6 13 0 0. 81. 51. <
2 6 13 1 17. -26. 48. <
2 6 13 2 14. 12. 47. <
2 6 13 3 2. -5. 50. <
4 6 13 -3 2. -17. 43. <
4 6 13 -2 7. 56. 58. <
4 6 13 -1 36. 9. 54. <
4 6 13 0 33. -20. 101. <
1 7 13 -3 1. 1. 31. <
1 7 13 -2 1. -16. 32. <
1 7 13 -1 14. 1. 23. <
1 7 13 0 1650. 1558. 117. o
1 7 13 1 57. 149. 41. o
1 7 13 2 5. 69. 50. <
1 7 13 3 135. 206. 51. o
3 7 13 -3 0. -4. 29. <
3 7 13 -2 6. 12. 39. <
3 7 13 -1 45. 54. 49. <
3 7 13 0 1632. 1731. 192. o
3 7 13 1 3. 11. 64. <
0 8 13 -2 5. 62. 67. <
0 8 13 0 40752. 41469. 1188. o
0 8 13 2 231. 276. 110. <
2 8 13 -3 0. -9. 42. <
2 8 13 -2 2. -2. 44. <
2 8 13 -1 1. -13. 60. <
2 8 13 0 676. 694. 104. o
2 8 13 1 147. 152. 57. <
2 8 13 2 111. 61. 88. <
1 9 13 -3 0. -5. 31. <
1 9 13 -2 8. -42. 32. <
1 9 13 -1 13. -33. 37. <
1 9 13 0 25. 13. 48. <
3 9 13 -3 0. 9. 127. <
0 10 13 -2 7. -55. 88. <
2 10 13 -3 0. -153. 100. <
0 0 14 0 1188. 1349. 165. o
0 0 14 2 17. 95. 48. <
2 0 14 0 20820. 19791. 490. o
2 0 14 1 22041. 22665. 426. o
2 0 14 2 1737. 1854. 122. o
2 0 14 3 146. 228. 48. o
4 0 14 0 83936. 82754. 1679. o
4 0 14 1 1674. 1841. 160. o
4 0 14 2 4433. 4484. 249. o
4 0 14 3 910. 979. 106. o
1 1 14 -3 0. 10. 19. <
1 1 14 -2 10. -26. 24. <
1 1 14 -1 8. -10. 26. <
1 1 14 0 11282. 10986. 261. o
1 1 14 1 83. 117. 29. o
1 1 14 2 3. 15. 31. <
1 1 14 3 0. 39. 24. <
3 1 14 -3 1. 60. 33. <
3 1 14 -2 1. -12. 36. <
3 1 14 -1 76. 44. 34. <
3 1 14 0 6654. 6170. 303. o
3 1 14 1 261. 297. 71. o
3 1 14 2 3. 29. 44. <
3 1 14 3 1. 50. 45. <
5 1 14 -3 6. 62. 95. <
5 1 14 -2 22. -9. 85. <
5 1 14 -1 215. 411. 158. <
5 1 14 0 3446. 2702. 338. o
0 2 14 -2 3. 18. 31. <
0 2 14 0 11926. 11639. 408. o
0 2 14 2 8. 22. 29. <
2 2 14 -3 6. -4. 25. <
2 2 14 -2 1. 2. 25. <
2 2 14 -1 83. 70. 31. <
2 2 14 0 5854. 5278. 210. o
2 2 14 1 7. 50. 34. <
2 2 14 2 5. -29. 35. <
2 2 14 3 11. 47. 38. <
4 2 14 -3 8. -64. 39. <
4 2 14 -2 57. 100. 45. <
4 2 14 -1 831. 783. 96. o
4 2 14 0 6419. 5759. 259. o
4 2 14 1 161. 130. 46. <
4 2 14 2 13. -3. 31. <
4 2 14 3 1. 23. 39. <
1 3 14 -3 2. -10. 25. <
1 3 14 -2 27. 44. 30. <
1 3 14 -1 27. 19. 34. <
1 3 14 0 5851. 5932. 219. o
1 3 14 1 59931. 60668. 710. o
1 3 14 2 4944. 4923. 187. o
1 3 14 3 345. 394. 56. o
3 3 14 -3 13. 9. 33. <
3 3 14 -2 216. 242. 55. o
3 3 14 -1 4340. 3906. 218. o
3 3 14 0 29823. 32093. 628. o
3 3 14 1 2120. 2273. 191. o
3 3 14 2 12758. 12178. 446. o
3 3 14 3 2638. 2671. 212. o
0 4 14 -2 0. 16. 34. <
0 4 14 0 5820. 5043. 284. o
0 4 14 2 0. -3. 29. <
2 4 14 -3 6. -19. 33. <
2 4 14 -2 17. 10. 30. <
2 4 14 -1 63. -25. 38. <
2 4 14 0 6800. 6691. 313. o
2 4 14 1 280. 300. 76. o
2 4 14 2 0. -9. 45. <
2 4 14 3 13. -41. 50. <
4 4 14 -3 1. 91. 42. <
4 4 14 -2 0. 10. 43. <
4 4 14 -1 48. 63. 43. <
4 4 14 0 2913. 2818. 191. o
4 4 14 1 106. 96. 58. <
4 4 14 2 0. 31. 54. <
4 4 14 3 16. -104. 66. <
1 5 14 -3 5. 21. 28. <
1 5 14 -2 1. -36. 28. <
1 5 14 -1 66. 99. 38. <
1 5 14 0 7808. 7203. 236. o
1 5 14 1 71. 64. 29. <
1 5 14 2 7. -105. 42. <
1 5 14 3 4. 41. 35. <
3 5 14 -3 9. -36. 42. <
3 5 14 -2 35. 98. 47. <
3 5 14 -1 415. 428. 89. o
3 5 14 0 7023. 6410. 336. o
3 5 14 1 30. 20. 37. <
3 5 14 2 8. 25. 42. <
3 5 14 3 3. -25. 60. <
0 6 14 -2 8. 12. 43. <
0 6 14 0 3325. 3641. 260. o
0 6 14 2 43912. 45916. 1191. o
2 6 14 -3 2. 48. 36. <
2 6 14 -2 82. 56. 63. <
2 6 14 -1 1006. 944. 121. o
2 6 14 0 56158. 57809. 971. o
2 6 14 1 26953. 28933. 695. o
2 6 14 2 12852. 12271. 461. o
2 6 14 3 5381. 5114. 307. o
4 6 14 -3 8. 45. 49. <
4 6 14 -2 114. 86. 54. <
1 7 14 -3 6. 2. 35. <
1 7 14 -2 12. 33. 34. <
1 7 14 -1 53. 60. 42. <
1 7 14 0 5341. 4956. 233. o
1 7 14 1 24. 10. 32. <
1 7 14 2 7. 45. 41. <
1 7 14 3 1. -32. 46. <
3 7 14 -3 2. -9. 40. <
3 7 14 -2 9. 1. 38. <
3 7 14 -1 14. 32. 52. <
3 7 14 0 3723. 3587. 282. o
0 8 14 -2 45. 45. 54. <
0 8 14 0 2729. 2349. 232. o
0 8 14 2 23. 32. 92. <
2 8 14 -3 10. -43. 53. <
2 8 14 -2 0. -13. 50. <
2 8 14 -1 115. 67. 58. <
2 8 14 0 4581. 4158. 294. o
1 9 14 -3 9. -14. 29. <
1 9 14 -2 27. -48. 41. <
1 9 14 -1 3. -42. 46. <
1 9 14 0 169. 496. 210. <
0 10 14 -2 13. 99. 168. <
0 0 15 2 1. -38. 34. <
2 0 15 1 7. 8. 32. <
2 0 15 2 4. -20. 30. <
2 0 15 3 0. 12. 31. <
4 0 15 1 25. -40. 59. <
4 0 15 2 2. -24. 54. <
4 0 15 3 1. 66. 40. <
1 1 15 -3 2. -31. 30. <
1 1 15 -2 4. 47. 31. <
1 1 15 -1 43. 106. 39. <
1 1 15 0 69747. 72808. 690. o
1 1 15 1 1620. 1747. 129. o
1 1 15 2 47. 60. 36. <
1 1 15 3 0. -65. 32. <
3 1 15 -3 0. 26. 36. <
3 1 15 -2 101. 120. 45. <
3 1 15 -1 2453. 2336. 168. o
3 1 15 0 48885. 49122. 772. o
3 1 15 1 1245. 1330. 146. o
3 1 15 2 113. 187. 58. o
3 1 15 3 32. 102. 50. <
0 2 15 -2 0. 68. 42. <
0 2 15 0 87132. 89143. 1182. o
0 2 15 2 97. 98. 48. <
2 2 15 -3 0. -18. 26. <
2 2 15 -2 0. 29. 31. <
2 2 15 -1 49. 136. 40. o
2 2 15 0 2298. 2344. 146. o
2 2 15 1 7. 42. 38. <
2 2 15 2 80. 143. 48. <
2 2 15 3 13. 30. 32. <
4 2 15 -3 17. 2. 55. <
4 2 15 -2 353. 324. 76. o
4 2 15 -1 4624. 4640. 237. o
4 2 15 0 38706. 38585. 687. o
4 2 15 1 3224. 3139. 196. o
4 2 15 2 70. 127. 46. <
4 2 15 3 11. -10. 42. <
1 3 15 -3 6. 18. 27. <
1 3 15 -2 1. -32. 25. <
1 3 15 -1 0. -18. 36. <
1 3 15 0 2. -15. 24. <
1 3 15 1 14. 35. 36. <
1 3 15 2 9. 2. 37. <
1 3 15 3 9. 30. 29. <
3 3 15 -3 1. -1. 57. <
3 3 15 -2 1. 4. 36. <
3 3 15 -1 6. 46. 39. <
3 3 15 0 14. -1. 45. <
3 3 15 1 4. -19. 54. <
3 3 15 2 0. -31. 44. <
3 3 15 3 1. -30. 42. <
0 4 15 -2 28. 62. 40. <
0 4 15 0 2330. 2531. 206. o
0 4 15 2 578. 709. 145. o
2 4 15 -3 2. 48. 29. <
2 4 15 -2 15. 4. 35. <
2 4 15 -1 1265. 1280. 126. o
2 4 15 0 51143. 51336. 892. o
2 4 15 1 806. 838. 117. o
2 4 15 2 124. 76. 44. <
2 4 15 3 84. 182. 63. <
4 4 15 -3 7. 2. 37. <
4 4 15 -2 5. -17. 45. <
4 4 15 -1 8. 28. 46. <
4 4 15 0 1544. 1750. 155. o
4 4 15 1 140. 154. 63. <
4 4 15 2 9. 64. 118. <
1 5 15 -3 2. 7. 33. <
1 5 15 -2 48. -79. 42. <
1 5 15 -1 273. 294. 56. o
1 5 15 0 49561. 49016. 684. o
1 5 15 1 1270. 1223. 120. o
1 5 15 2 9. 48. 50. <
1 5 15 3 62. 74. 43. <
3 5 15 -3 0. 46. 53. <
3 5 15 -2 107. 93. 54. <
3 5 15 -1 2281. 2137. 197. o
3 5 15 0 45252. 44050. 901. o
3 5 15 1 899. 1050. 142. o
3 5 15 2 1. -33. 58. <
3 5 15 3 22. -3. 37. <
0 6 15 -2 4. -1. 74. <
0 6 15 0 0. -68. 66. <
0 6 15 2 42. 28. 67. <
2 6 15 -3 4. 104. 52. <
2 6 15 -2 2. -74. 60. <
2 6 15 -1 10. -96. 56. <
2 6 15 0 0. 35. 50. <
2 6 15 1 0. -17. 46. <
2 6 15 2 5. 25. 53. <
2 6 15 3 4. 3. 60. <
4 6 15 -3 4. -12. 98. <
4 6 15 -2 0. 78. 73. <
1 7 15 -3 2. -16. 47. <
1 7 15 -2 13. -20. 29. <
1 7 15 -1 105. 156. 55. <
1 7 15 0 37950. 37161. 708. o
1 7 15 1 44. 125. 53. <
1 7 15 2 21. -5. 51. <
1 7 15 3 160. 57. 61. <
3 7 15 -3 1. 57. 52. <
3 7 15 -2 70. 86. 60. <
3 7 15 -1 1075. 846. 165. o
0 8 15 -2 65. -59. 69. <
0 8 15 0 399. 502. 114. o
2 8 15 -3 0. -20. 50. <
2 8 15 -2 70. 29. 50. <
2 8 15 -1 550. 624. 109. o
2 8 15 0 31462. 26750. 1090. o
1 9 15 -3 0. 89. 67. <
1 9 15 -2 1. 49. 56. <
1 9 15 -1 0. -3. 82. <
0 0 16 0 672457. 662730. 6097. o
0 0 16 2 41. 55. 32. <
2 0 16 0 730. 1111. 143. o
2 0 16 1 10274. 10127. 304. o
2 0 16 2 1206. 1360. 113. o
2 0 16 3 111. 139. 47. <
4 0 16 0 117542. 119921. 2139. o
4 0 16 1 37212. 36743. 959. o
4 0 16 2 6494. 5800. 334. o
4 0 16 3 836. 945. 110. o
1 1 16 -3 0. -27. 27. <
1 1 16 -2 2. -11. 34. <
1 1 16 -1 66. 53. 30. <
1 1 16 0 15696. 15453. 395. o
1 1 16 1 79. 112. 34. o
1 1 16 2 1. 59. 34. <
1 1 16 3 0. -11. 41. <
3 1 16 -3 1. -30. 33. <
3 1 16 -2 1. -57. 45. <
3 1 16 -1 324. 213. 55. o
3 1 16 0 12046. 11758. 389. o
3 1 16 1 800. 780. 122. o
3 1 16 2 42. -43. 43. <
3 1 16 3 1. -147. 50. <
0 2 16 -2 0. 24. 39. <
0 2 16 0 16633. 16256. 522. o
0 2 16 2 2. 9. 36. <
2 2 16 -3 6. 2. 23. <
2 2 16 -2 12. 19. 35. <
2 2 16 -1 12. 3. 24. <
2 2 16 0 751. 552. 81. o
2 2 16 1 10. 43. 35. <
2 2 16 2 0. -53. 41. <
2 2 16 3 6. -18. 41. <
4 2 16 -3 2. -4. 53. <
4 2 16 -2 8. 42. 58. <
4 2 16 -1 643. 640. 92. o
4 2 16 0 8029. 7718. 317. o
4 2 16 1 405. 316. 65. o
4 2 16 2 0. -3. 46. <
4 2 16 3 1. -98. 54. <
1 3 16 -3 3. 39. 39. <
1 3 16 -2 3. -20. 29. <
1 3 16 -1 518. 494. 83. o
1 3 16 0 8284. 8178. 300. o
1 3 16 1 56481. 57857. 808. o
1 3 16 2 3357. 3059. 186. o
1 3 16 3 232. 291. 63. o
3 3 16 -3 18. 102. 57. <
3 3 16 -2 535. 437. 82. o
3 3 16 -1 10473. 10437. 374. o
3 3 16 0 83363. 84666. 1220. o
3 3 16 1 3. 76. 44. <
3 3 16 2 10895. 10908. 443. o
3 3 16 3 2299. 2307. 209. o
0 4 16 -2 0. 19. 38. <
0 4 16 0 1050. 826. 126. o
0 4 16 2 3. 34. 56. <
2 4 16 -3 5. 51. 42. <
2 4 16 -2 9. -48. 44. <
2 4 16 -1 107. 169. 56. o
2 4 16 0 11444. 11345. 385. o
2 4 16 1 160. 130. 50. <
2 4 16 2 0. -31. 34. <
2 4 16 3 13. 33. 69. <
4 4 16 -3 1. -1. 44. <
4 4 16 -2 2. 9. 42. <
4 4 16 -1 24. -12. 45. <
1 5 16 -3 3. 55. 44. <
1 5 16 -2 17. 22. 39. <
1 5 16 -1 88. 102. 44. <
1 5 16 0 13521. 13184. 404. o
1 5 16 1 0. 58. 43. <
1 5 16 2 0. 71. 47. <
1 5 16 3 4. -25. 55. <
3 5 16 -3 2. -55. 50. <
3 5 16 -2 7. 23. 42. <
3 5 16 -1 406. 343. 85. o
3 5 16 0 8412. 8291. 402. o
3 5 16 1 392. 352. 86. o
3 5 16 2 1. -183. 87. <
3 5 16 3 5. 7. 79. <
0 6 16 -2 55. 160. 89. <
0 6 16 0 35662. 36505. 1079. o
0 6 16 2 41366. 43325. 1210. o
2 6 16 -3 0. 83. 51. <
2 6 16 -2 32. 26. 39. <
2 6 16 -1 2356. 2432. 207. o
2 6 16 0 166994. 167642. 1756. o
2 6 16 1 5633. 5691. 323. o
2 6 16 2 9912. 8772. 411. o
2 6 16 3 4513. 4045. 324. o
1 7 16 -3 4. 27. 47. <
1 7 16 -2 14. -58. 42. <
1 7 16 -1 5. -96. 55. <
1 7 16 0 8051. 8167. 440. o
1 7 16 1 37. 103. 57. <
1 7 16 2 0. -17. 45. <
3 7 16 -3 1. -28. 56. <
3 7 16 -2 8. -38. 116. <
0 8 16 -2 1. 26. 51. <
0 8 16 0 1000. 664. 172. o
2 8 16 -3 15. 28. 49. <
2 8 16 -2 47. -25. 60. <
1 9 16 -3 4. 117. 65. <
0 0 17 2 1. -12. 38. <
2 0 17 1 5. 37. 47. <
2 0 17 2 4. 15. 36. <
2 0 17 3 0. -11. 42. <
4 0 17 1 39. 35. 40. <
4 0 17 2 16. -73. 55. <
4 0 17 3 2. 45. 44. <
1 1 17 -3 3. -11. 33. <
1 1 17 -2 24. 29. 31. <
1 1 17 -1 318. 291. 60. o
1 1 17 0 11428. 11868. 358. o
1 1 17 1 261. 285. 54. o
1 1 17 2 93. 120. 41. <
1 1 17 3 0. 42. 37. <
3 1 17 -3 0. -126. 60. <
3 1 17 -2 5. -6. 41. <
3 1 17 -1 137. 75. 46. <
3 1 17 0 7603. 7801. 324. o
3 1 17 1 772. 684. 114. o
3 1 17 2 218. 204. 66. o
3 1 17 3 29. 9. 42. <
0 2 17 -2 2. -1. 53. <
0 2 17 0 6923. 7520. 367. o
0 2 17 2 118. 186. 64. <
2 2 17 -3 0. -50. 50. <
2 2 17 -2 3. 55. 41. <
2 2 17 -1 11. -42. 40. <
2 2 17 0 17086. 17107. 460. o
2 2 17 1 182. 305. 65. o
2 2 17 2 67. 39. 42. <
2 2 17 3 13. 58. 42. <
4 2 17 -3 10. -1. 49. <
4 2 17 -2 54. 34. 49. <
4 2 17 -1 51. 141. 54. <
4 2 17 0 5957. 6423. 359. o
4 2 17 1 290. 228. 114. <
4 2 17 2 0. 32. 107. <
4 2 17 3 9. 67. 52. <
1 3 17 -3 6. -10. 24. <
1 3 17 -2 4. 38. 33. <
1 3 17 -1 1. 54. 39. <
1 3 17 0 0. 41. 36. <
1 3 17 1 7. -49. 38. <
1 3 17 2 6. -4. 36. <
1 3 17 3 10. -17. 44. <
3 3 17 -3 0. -112. 60. <
3 3 17 -2 4. 131. 63. <
3 3 17 -1 2. 26. 59. <
3 3 17 0 12. 114. 66. <
3 3 17 1 1. -4. 48. <
3 3 17 2 0. -19. 60. <
3 3 17 3 0. 41. 56. <
0 4 17 -2 0. -20. 40. <
0 4 17 0 20251. 19598. 618. o
0 4 17 2 296. 152. 70. <
2 4 17 -3 5. 63. 41. <
2 4 17 -2 12. 61. 38. <
2 4 17 -1 28. 19. 32. <
2 4 17 0 7048. 7302. 318. o
2 4 17 1 185. 186. 61. o
2 4 17 2 240. 278. 62. o
2 4 17 3 114. 117. 64. <
4 4 17 -3 3. 12. 39. <
4 4 17 -2 0. -65. 131. <
1 5 17 -3 1. 19. 53. <
1 5 17 -2 0. 13. 38. <
1 5 17 -1 17. 36. 50. <
1 5 17 0 10475. 10598. 370. o
1 5 17 1 204. 273. 68. o
1 5 17 2 0. 52. 53. <
1 5 17 3 69. 95. 50. <
3 5 17 -3 1. -19. 50. <
3 5 17 -2 1. 17. 55. <
3 5 17 -1 85. 123. 58. <
3 5 17 0 4630. 4459. 352. o
0 6 17 -2 12. 1. 52. <
0 6 17 0 6. 36. 60. <
0 6 17 2 30. 85. 125. <
2 6 17 -3 3. 11. 52. <
2 6 17 -2 0. -42. 49. <
2 6 17 -1 10. -21. 49. <
2 6 17 0 34. 58. 48. <
2 6 17 1 28. 185. 77. <
2 6 17 2 8. 41. 58. <
1 7 17 -3 1. 40. 45. <
1 7 17 -2 10. 10. 36. <
1 7 17 -1 45. 149. 86. <
1 7 17 0 6095. 5659. 454. o
1 7 17 1 160. 372. 192. <
0 8 17 -2 0. 111. 118. <
2 8 17 -3 1. -73. 69. <
0 0 18 0 17487. 17084. 984. o
0 0 18 2 0. -8. 47. <
2 0 18 0 963. 1042. 157. o
2 0 18 1 9761. 9546. 342. o
2 0 18 2 619. 905. 96. o
2 0 18 3 66. 108. 55. <
4 0 18 1 5070. 4730. 657. o
4 0 18 2 4454. 5044. 678. o
1 1 18 -3 0. -29. 40. <
1 1 18 -2 8. 18. 31. <
1 1 18 -1 7. -9. 26. <
1 1 18 0 30. 97. 54. <
1 1 18 1 0. 50. 36. <
1 1 18 2 3. -6. 38. <
1 1 18 3 0. -11. 27. <
3 1 18 -3 2. 94. 51. <
3 1 18 -2 11. -4. 51. <
3 1 18 -1 5. 62. 60. <
3 1 18 0 58. 135. 56. <
3 1 18 1 59. 110. 54. <
3 1 18 2 12. 69. 46. <
3 1 18 3 1. 15. 54. <
0 2 18 -2 1. -2. 42. <
0 2 18 0 42. 55. 44. <
0 2 18 2 6. 11. 60. <
2 2 18 -3 5. -48. 37. <
2 2 18 -2 10. -63. 30. <
2 2 18 -1 529. 573. 88. o
2 2 18 0 22445. 21688. 537. o
2 2 18 1 97. 94. 38. <
2 2 18 2 15. 9. 40. <
2 2 18 3 2. 96. 53. <
4 2 18 -3 3. 77. 51. <
4 2 18 -2 2. 64. 91. <
1 3 18 -3 5. 15. 32. <
1 3 18 -2 36. -60. 44. <
1 3 18 -1 332. 413. 74. o
1 3 18 0 7252. 6991. 269. o
1 3 18 1 44283. 44992. 689. o
1 3 18 2 3714. 3549. 196. o
1 3 18 3 177. 244. 59. o
3 3 18 -3 18. 25. 44. <
3 3 18 -2 503. 389. 94. o
3 3 18 -1 6981. 6908. 363. o
3 3 18 0 71957. 72076. 1186. o
3 3 18 1 60. 222. 69. o
3 3 18 2 8252. 7037. 377. o
3 3 18 3 1781. 1331. 351. o
0 4 18 -2 17. 121. 64. <
0 4 18 0 20775. 19602. 639. o
0 4 18 2 2. -94. 71. <
2 4 18 -3 2. 9. 42. <
2 4 18 -2 0. 61. 38. <
2 4 18 -1 1. 11. 44. <
2 4 18 0 15. 54. 46. <
2 4 18 1 0. -14. 46. <
2 4 18 2 1. 97. 54. <
2 4 18 3 11. 44. 51. <
1 5 18 -3 3. 94. 50. <
1 5 18 -2 3. -8. 38. <
1 5 18 -1 1. 3. 37. <
1 5 18 0 112. 160. 61. <
1 5 18 1 13. 3. 39. <
1 5 18 2 7. 49. 50. <
1 5 18 3 3. -24. 81. <
3 5 18 -3 4. 5. 72. <
3 5 18 -2 1. 37. 78. <
0 6 18 -2 77. -13. 67. <
0 6 18 0 31294. 32068. 1076. o
2 6 18 -3 0. 108. 70. <
2 6 18 -2 12. -116. 51. <
2 6 18 -1 103. 71. 57. <
2 6 18 0 7742. 9187. 888. o
1 7 18 -3 4. 19. 44. <
1 7 18 -2 0. 109. 149. <
0 0 19 2 12. 31. 35. <
2 0 19 1 0. -6. 37. <
2 0 19 2 0. 21. 47. <
2 0 19 3 0. 6. 34. <
1 1 19 -3 3. 48. 54. <
1 1 19 -2 10. 44. 46. <
1 1 19 -1 396. 403. 78. o
1 1 19 0 10457. 10478. 362. o
1 1 19 1 162. 210. 56. o
1 1 19 2 83. 101. 36. <
1 1 19 3 0. -35. 43. <
3 1 19 -3 0. -23. 43. <
3 1 19 -2 8. -9. 37. <
3 1 19 -1 314. 353. 79. o
3 1 19 0 6592. 6208. 339. o
3 1 19 1 1274. 1425. 169. o
3 1 19 2 283. 257. 79. o
3 1 19 3 32. 68. 64. <
0 2 19 -2 19. 27. 85. <
0 2 19 0 6299. 6909. 378. o
0 2 19 2 198. 182. 56. o
2 2 19 -3 0. -6. 43. <
2 2 19 -2 49. -41. 50. <
2 2 19 -1 2976. 3091. 228. o
2 2 19 0 114941. 118679. 1437. o
2 2 19 1 1761. 1686. 155. o
2 2 19 2 69. 50. 43. <
2 2 19 3 11. 80. 55. <
1 3 19 -3 6. 45. 40. <
1 3 19 -2 0. 3. 46. <
1 3 19 -1 1. -1. 37. <
1 3 19 0 4. -37. 42. <
1 3 19 1 7. 8. 34. <
1 3 19 2 0. 7. 42. <
1 3 19 3 11. 61. 37. <
3 3 19 -3 1. -92. 57. <
3 3 19 -2 1. 34. 53. <
3 3 19 -1 25. 118. 65. <
3 3 19 0 11. -3. 63. <
0 4 19 -2 1. 17. 42. <
0 4 19 0 108732. 110022. 1959. o
0 4 19 2 245. 84. 60. <
2 4 19 -3 5. 91. 60. <
2 4 19 -2 13. -11. 40. <
2 4 19 -1 67. 123. 59. <
2 4 19 0 5680. 5044. 312. o
2 4 19 1 336. 246. 84. <
2 4 19 2 281. 302. 157. <
1 5 19 -3 0. -32. 40. <
1 5 19 -2 20. 81. 47. <
1 5 19 -1 54. 94. 47. <
1 5 19 0 10259. 10521. 390. o
1 5 19 1 167. 80. 49. <
1 5 19 2 15. -129. 151. <
0 6 19 -2 4. 4. 41. <
0 6 19 0 0. 172. 97. <
2 6 19 -3 4. -153. 62. <
1 7 19 -3 1. 12. 66. <
0 0 20 0 49744. 55399. 1906. o
0 0 20 2 2. 79. 66. <
2 0 20 0 138925. 140409. 2241. o
2 0 20 1 21318. 20806. 604. o
2 0 20 2 640. 578. 104. o
2 0 20 3 48. 126. 54. <
1 1 20 -3 0. 31. 46. <
1 1 20 -2 3. 40. 53. <
1 1 20 -1 0. -38. 48. <
1 1 20 0 2056. 2263. 179. o
1 1 20 1 38. 13. 40. <
1 1 20 2 1. -73. 58. <
1 1 20 3 0. 37. 58. <
3 1 20 -3 1. 97. 59. <
3 1 20 -2 2. 13. 73. <
3 1 20 -1 36. 49. 56. <
3 1 20 0 1035. 937. 193. o
3 1 20 1 76. 68. 100. <
0 2 20 -2 3. -24. 52. <
0 2 20 0 2295. 2270. 226. o
0 2 20 2 0. -15. 41. <
2 2 20 -3 3. -39. 50. <
2 2 20 -2 1. -104. 62. <
2 2 20 -1 462. 498. 102. o
2 2 20 0 25955. 25441. 685. o
2 2 20 1 304. 305. 73. o
2 2 20 2 2. -32. 55. <
2 2 20 3 2. -4. 46. <
1 3 20 -3 4. -40. 32. <
1 3 20 -2 0. 97. 65. <
1 3 20 -1 101. 240. 58. o
1 3 20 0 106365. 105560. 1124. o
1 3 20 1 26185. 25991. 558. o
1 3 20 2 3585. 3986. 221. o
1 3 20 3 130. 88. 43. <
0 4 20 -2 13. 50. 42. <
0 4 20 0 24766. 25029. 961. o
0 4 20 2 3. -37. 67. <
2 4 20 -3 1. 65. 50. <
2 4 20 -2 0. 3. 38. <
2 4 20 -1 28. -60. 132. <
1 5 20 -3 3. 8. 33. <
1 5 20 -2 1. -86. 58. <
1 5 20 -1 15. 76. 48. <
1 5 20 0 1425. 1558. 244. o
0 6 20 -2 1. -94. 134. <
0 0 21 2 20. 5. 49. <
2 0 21 1 6. 30. 56. <
2 0 21 2 1. 9. 39. <
2 0 21 3 0. 47. 58. <
1 1 21 -3 4. 46. 37. <
1 1 21 -2 3. 47. 52. <
1 1 21 -1 125. 107. 59. <
1 1 21 0 224. 222. 65. o
1 1 21 1 526. 615. 96. o
1 1 21 2 38. -13. 52. <
1 1 21 3 1. 63. 53. <
0 2 21 -2 16. -30. 74. <
0 2 21 0 113. 157. 68. <
0 2 21 2 152. 139. 72. <
2 2 21 -3 0. 36. 72. <
2 2 21 -2 7. -20. 60. <
2 2 21 -1 32. 42. 43. <
2 2 21 0 29694. 29554. 1077. o
2 2 21 1 417. 368. 129. <
1 3 21 -3 5. 15. 39. <
1 3 21 -2 2. 20. 60. <
1 3 21 -1 0. -72. 45. <
1 3 21 0 9. 1. 42. <
1 3 21 1 7. 51. 58. <
1 3 21 2 0. 162. 107. <
0 4 21 -2 23. 36. 45. <
2 4 21 -3 3. 62. 62. <
1 5 21 -3 1. 19. 78. <
0 0 22 0 11811. 11441. 929. o
0 0 22 2 89. 81. 53. <
1 1 22 -3 0. -122. 104. <
1 1 22 -2 7. 11. 45. <
1 1 22 -1 0. 76. 102. <
1 1 22 0 3808. 3814. 540. o
1 1 22 1 43. 35. 54. <
1 1 22 2 0. 104. 88. <
0 2 22 -2 0. 70. 65. <
0 2 22 0 4281. 4343. 582. o
1 3 22 -3 3. 100. 102. <
loop_
_jana_atom_site_displace_legendre_atom_site_label
_jana_atom_site_displace_legendre_axis
_jana_atom_site_displace_legendre_param_order
_jana_atom_site_displace_legendre_param_coeff
Pd1 x 1 0
Pd1 y 1 -0.0964(3)
Pd1 z 1 0.00323(16)
Pd1 x 2 -0.0912(9)
Pd1 y 2 0
Pd1 z 2 0
Pd1 x 3 0
Pd1 y 3 -0.0099(5)
Pd1 z 3 -0.0013(3)
Pd1 x 4 -0.0027(13)
Pd1 y 4 0
Pd1 z 4 0
Pd2 x 1 0.0150(5)
Pd2 y 1 -0.0679(2)
Pd2 z 1 -0.0011(2)
Pd2 x 2 0.0619(8)
Pd2 y 2 0
Pd2 z 2 0
Pd2 x 3 -0.0012(10)
Pd2 y 3 -0.0023(5)
Pd2 z 3 0.0004(4)
Pd2 x 4 0.0116(11)
Pd2 y 4 0.0052(4)
Pd2 z 4 -0.0010(3)
loop_
_jana_atom_site_u_legendre_atom_site_label
_jana_atom_site_u_legendre_tens_elem
_jana_atom_site_u_legendre_param_order
_jana_atom_site_u_legendre_param_coeff
Pd1 U11 1 0
Pd1 U22 1 0
Pd1 U33 1 0
Pd1 U12 1 0.0278(10)
Pd1 U13 1 0.0004(12)
Pd1 U23 1 0
Pd1 U11 2 0.0398(17)
Pd1 U22 2 0.0053(17)
Pd1 U33 2 0.0061(13)
Pd1 U12 2 0
Pd1 U13 2 0
Pd1 U23 2 -0.0018(16)
Pd2 U11 1 0.0075(8)
Pd2 U22 1 0.0043(10)
Pd2 U33 1 0.0005(7)
Pd2 U12 1 -0.0157(7)
Pd2 U13 1 -0.0010(9)
Pd2 U23 1 -0.0016(6)
Pd2 U11 2 0.0165(12)
Pd2 U22 2 0.0159(14)
Pd2 U33 2 0.0027(11)
Pd2 U12 2 -0.0110(9)
Pd2 U13 2 0.0044(9)
Pd2 U23 2 -0.0001(12)
