#------------------------------------------------------------------------------
#$Date: 2016-03-26 14:35:41 +0200 (Sat, 26 Mar 2016) $
#$Revision: 180269 $
#$URL: svn://www.crystallography.net/cod/cif/7/11/55/7115564.cif $
#------------------------------------------------------------------------------
#
# This file is available in the Crystallography Open Database (COD),
# http://www.crystallography.net/
#
# All data on this site have been placed in the public domain by the
# contributors.
#
data_7115564
loop_
_publ_author_name
'Venkata S. Pavan K. Neti'
'Maira R. Ceron'
'A. Duarte-Ruiz'
'Marilyn M. Olmstead'
'Alan L. Balch'
'Luis Echegoyen'
_publ_section_title
;
 High-yield, regiospecific bis-functionalization of C70 using a
 Diels-Alder reaction in molten anthracene
;
_journal_name_full               Chem.Commun.
_journal_page_first              10584
_journal_paper_doi               10.1039/C4cc02472A
_journal_volume                  50
_journal_year                    2014
_chemical_formula_moiety         'C98 H20'
_chemical_formula_sum            'C98 H20'
_chemical_formula_weight         1197.14
_chemical_name_common            'C70 bis-anthracene adduct'
_chemical_name_systematic
;
 ?
;
_space_group_crystal_system      tetragonal
_space_group_IT_number           138
_space_group_name_Hall           '-P 4ac 2ac'
_space_group_name_H-M_alt        'P 42/n c m'
_symmetry_space_group_name_Hall  '-P 4ac 2ac'
_symmetry_space_group_name_H-M   'P 42/n c m :2'
_atom_sites_solution_hydrogens   geom
_audit_creation_method           SHELXL-2013
_cell_angle_alpha                90
_cell_angle_beta                 90
_cell_angle_gamma                90
_cell_formula_units_Z            4
_cell_length_a                   16.8655(8)
_cell_length_b                   16.8655(8)
_cell_length_c                   19.6001(10)
_cell_measurement_reflns_used    9482
_cell_measurement_temperature    100(2)
_cell_measurement_theta_max      31.6
_cell_measurement_theta_min      2.3
_cell_volume                     5575.2(5)
_computing_cell_refinement       'SAINT (Bruker, 2013)'
_computing_data_collection       'Apex2 (Bruker, 2013)'
_computing_data_reduction        'SAINT (Bruker, 2013)'
_computing_publication_material  'SHELXL-2013 (Sheldrick, 2013)'
_computing_structure_refinement  'SHELXL-2013 (Sheldrick, 2013)'
_computing_structure_solution    'SHELXS-2013 (Sheldrick, 2013)'
_diffrn_ambient_temperature      100(2)
_diffrn_detector_area_resol_mean 8.3
_diffrn_measured_fraction_theta_full 0.998
_diffrn_measured_fraction_theta_max 0.998
_diffrn_measurement_device_type  'Bruker Apex II'
_diffrn_measurement_method       \w
_diffrn_radiation_type           synchrotron
_diffrn_radiation_wavelength     0.7749
_diffrn_reflns_av_R_equivalents  0.0496
_diffrn_reflns_av_unetI/netI     0.0190
_diffrn_reflns_Laue_measured_fraction_full 0.998
_diffrn_reflns_Laue_measured_fraction_max 0.998
_diffrn_reflns_limit_h_max       22
_diffrn_reflns_limit_h_min       -22
_diffrn_reflns_limit_k_max       22
_diffrn_reflns_limit_k_min       -22
_diffrn_reflns_limit_l_max       26
_diffrn_reflns_limit_l_min       -26
_diffrn_reflns_number            65813
_diffrn_reflns_point_group_measured_fraction_full 0.998
_diffrn_reflns_point_group_measured_fraction_max 0.998
_diffrn_reflns_theta_full        27.706
_diffrn_reflns_theta_max         31.635
_diffrn_reflns_theta_min         2.621
_diffrn_source                   'beamline 11.3.1 ALS'
_exptl_absorpt_coefficient_mu    0.097
_exptl_absorpt_correction_T_max  0.746
_exptl_absorpt_correction_T_min  0.691
_exptl_absorpt_correction_type   multi-scan
_exptl_absorpt_process_details   'SADABS (Sheldrick, 2013)'
_exptl_crystal_colour            black
_exptl_crystal_density_diffrn    1.426
_exptl_crystal_description       plate
_exptl_crystal_F_000             2432
_exptl_crystal_size_max          0.240
_exptl_crystal_size_mid          0.240
_exptl_crystal_size_min          0.014
_refine_diff_density_max         0.371
_refine_diff_density_min         -0.303
_refine_diff_density_rms         0.054
_refine_ls_extinction_method     none
_refine_ls_goodness_of_fit_ref   1.140
_refine_ls_hydrogen_treatment    constr
_refine_ls_matrix_type           full
_refine_ls_number_parameters     235
_refine_ls_number_reflns         3792
_refine_ls_number_restraints     0
_refine_ls_restrained_S_all      1.140
_refine_ls_R_factor_all          0.0630
_refine_ls_R_factor_gt           0.0570
_refine_ls_shift/su_max          0.000
_refine_ls_shift/su_mean         0.000
_refine_ls_structure_factor_coef Fsqd
_refine_ls_weighting_details
'w=1/[\s^2^(Fo^2^)+(0.0663P)^2^+3.1940P] where P=(Fo^2^+2Fc^2^)/3'
_refine_ls_weighting_scheme      calc
_refine_ls_wR_factor_gt          0.1481
_refine_ls_wR_factor_ref         0.1529
_reflns_Friedel_coverage         0.000
_reflns_number_gt                3386
_reflns_number_total             3792
_reflns_threshold_expression     'I > 2\s(I)'
_cod_data_source_file            c4cc02472a2.cif
_cod_data_source_block           mn2180s_sq_s
_cod_original_cell_volume        5575.2(6)
_cod_database_code               7115564
#BEGIN Tags that were not found in dictionaries:
_shelx_space_group_comment
;
The symmetry employed for this shelxl refinement is uniquely defined
by the following loop, which should always be used as a source of
symmetry information in preference to the above space-group names.
They are only intended as comments.
;
_shelx_estimated_absorpt_t_min   0.977
_shelx_estimated_absorpt_t_max   0.999
_shelxl_version_number           2013-4
_shelx_res_file
;
TITL mn2180 in P4(2)/ncm bis-anthracene C70 adduct S with SQUEEZE
CELL 0.77490  16.8655  16.8655  19.6001  90.000  90.000  90.000
ZERR    4.00   0.0008   0.0008   0.0010   0.000   0.000   0.000
LATT  1
SYMM 0.5-X, 0.5-Y, Z
SYMM 0.5-Y, X, 0.5+Z
SYMM Y, 0.5-X, 0.5+Z
SYMM -X, 0.5+Y, 0.5-Z
SYMM 0.5+X, -Y, 0.5-Z
SYMM 0.5+Y, 0.5+X, -Z
SYMM -Y, -X, -Z
SFAC C H
DISP C 0.0040 0.0020 13.6
DISP H 0.0 0.0 0.7
UNIT 392 80
size 0.014 0.24 0.24 ! black plate
TEMP -173
omit 1 1 0
omit 0 2 0
omit 1 1 2
acta
L.S. 10
BOND $h
conf
ABIN
WGHT    0.066300    3.194000
FVAR       0.10470
C1    1    0.606752    0.606752    0.216274    10.50000    0.02355    0.02355 =
         0.02316    0.00002    0.00002   -0.00491
C2    1    0.570338    0.570338    0.147649    10.50000    0.03343    0.03343 =
         0.02675   -0.00421   -0.00421   -0.01010
C3    1    0.632594    0.534455    0.099951    11.00000    0.04405    0.02991 =
         0.02856   -0.00920    0.00192   -0.01642
C4    1    0.709491    0.519896    0.117797    11.00000    0.04213    0.02406 =
         0.03214   -0.01052    0.00732   -0.00840
C5    1    0.742645    0.553262    0.180943    11.00000    0.02992    0.01886 =
         0.02848   -0.00366    0.00254   -0.00265
C6    1    0.696426    0.599055    0.222029    11.00000    0.02412    0.02000 =
         0.01994    0.00033    0.00091   -0.00346
C7    1    0.729508    0.669673    0.250583    11.00000    0.02175    0.01920 =
         0.01383    0.00087    0.00070   -0.00052
C8    1    0.810604    0.689396    0.243933    10.50000    0.02025    0.02025 =
         0.01600    0.00059   -0.00059    0.00110
C9    1    0.859969    0.640031    0.200979    10.50000    0.02214    0.02214 =
         0.02899   -0.00191    0.00191    0.00253
C10   1    0.823873    0.575054    0.168130    11.00000    0.02863    0.02211 =
         0.03352   -0.00542    0.00591    0.00251
C11   1    0.842762    0.556088    0.098796    11.00000    0.03917    0.02976 =
         0.03938   -0.01523    0.01181   -0.00102
C12   1    0.772467    0.523164    0.067841    11.00000    0.04792    0.03201 =
         0.03797   -0.01797    0.01256   -0.00747
C13   1    0.755004    0.539977    0.000265    11.00000    0.06127    0.04616 =
         0.03334   -0.02386    0.01447   -0.01866
C14   1    0.674698    0.555760   -0.019134    11.00000    0.06683    0.05292 =
         0.02477   -0.01846    0.00284   -0.02638
C15   1    0.614719    0.554588    0.030192    11.00000    0.05194    0.04563 =
         0.02808   -0.01240   -0.00311   -0.02387
C16   1    0.897397    0.602603    0.061231    10.50000    0.04005    0.04005 =
         0.04233   -0.01913    0.01913   -0.00300
C17   1    0.879065    0.620935   -0.010078    10.50000    0.05794    0.05794 =
         0.03424   -0.02525    0.02525   -0.01563
C18   1    0.807246    0.591961   -0.038327    11.00000    0.06952    0.05979 =
         0.02889   -0.02580    0.02096   -0.02134
C19   1    0.758744    0.640226   -0.080941    11.00000    0.07947    0.07652 =
         0.01676   -0.01750    0.01127   -0.03236
C20   1    0.676687    0.618984   -0.069244    11.00000    0.07575    0.07073 =
         0.01769   -0.01401   -0.00088   -0.03463
C21   1    0.780742    0.719258   -0.096749    10.50000    0.08107    0.08107 =
         0.01153   -0.00868    0.00868   -0.03470
C22   1    0.506301    0.506301    0.169511    10.50000    0.03833    0.03833 =
         0.03598   -0.00284   -0.00284   -0.01875
AFIX  13
H22   2    0.481009    0.481010    0.128819    10.50000   -1.20000
AFIX   0
C23   1    0.445808    0.548311    0.213307    11.00000    0.02980    0.03332 =
         0.04605    0.00707   -0.00432   -0.01182
C24   1    0.366061    0.558393    0.198837    11.00000    0.03424    0.04396 =
         0.06581    0.01534   -0.01461   -0.01719
AFIX  43
H24   2    0.344364    0.539136    0.157291    11.00000   -1.20000
AFIX   0
C25   1    0.318269    0.597106    0.246017    11.00000    0.02461    0.03764 =
         0.10390    0.01750   -0.00922   -0.00618
AFIX  43
H25   2    0.263448    0.603903    0.236539    11.00000   -1.20000
AFIX   0
C26   1    0.348900    0.625737    0.306147    11.00000    0.02669    0.02783 =
         0.08974    0.00637    0.00986   -0.00072
AFIX  43
H26   2    0.315050    0.651057    0.338181    11.00000   -1.20000
AFIX   0
C27   1    0.429923    0.617672    0.320313    11.00000    0.02759    0.02429 =
         0.05750    0.00390    0.00800   -0.00284
AFIX  43
H27   2    0.451662    0.638073    0.361437    11.00000   -1.20000
AFIX   0
C28   1    0.477587    0.579513    0.273379    11.00000    0.02340    0.02496 =
         0.03926    0.00822    0.00103   -0.00409
C29   1    0.565429    0.565429    0.279918    10.50000    0.02313    0.02313 =
         0.02757    0.00212    0.00212   -0.00333
AFIX  13
H29   2    0.586491    0.586491    0.324033    10.50000   -1.20000
AFIX   0
HKLF 4

REM  mn2180 in P4(2)/ncm bis-anthracene C70 adduct S with SQUEEZE
REM R1 =  0.0570 for    3386 Fo > 4sig(Fo)  and  0.0630 for all    3792 data
REM    235 parameters refined using      0 restraints

END

WGHT      0.0639      3.2674

REM Highest difference peak  0.371,  deepest hole -0.303,  1-sigma level  0.054
Q1    1   0.7682  0.6800  0.2424  11.00000  0.05    0.37
Q2    1   0.7006  0.7006  0.2489  10.50000  0.05    0.34
Q3    1   0.7198  0.5913  0.1909  11.00000  0.05    0.34
Q4    1   0.7165  0.6318  0.2357  11.00000  0.05    0.33
Q5    1   0.8385  0.6615  0.2275  10.50000  0.05    0.33
Q6    1   0.8939  0.6578  0.1888  11.00000  0.05    0.30
Q7    1   0.7113  0.6377 -0.0801  11.00000  0.05    0.26
Q8    1   0.6064  0.5666  0.1208  11.00000  0.05    0.26
Q9    1   0.7350  0.5158  0.0897  11.00000  0.05    0.25
Q10   1   0.8102  0.5359  0.0790  11.00000  0.05    0.25
Q11   1   0.6821  0.5821 -0.0547  11.00000  0.05    0.25
Q12   1   0.7796  0.5766  0.1703  11.00000  0.05    0.24
Q13   1   0.6523  0.6010  0.2166  11.00000  0.05    0.24
Q14   1   0.8427  0.5665  0.1339  11.00000  0.05    0.24
Q15   1   0.7204  0.5310  0.1567  11.00000  0.05    0.24
Q16   1   0.7839  0.6721 -0.0942  11.00000  0.05    0.24
Q17   1   0.8811  0.5666  0.0814  11.00000  0.05    0.23
Q18   1   0.6566  0.6566 -0.0540  10.50000  0.05    0.23
Q19   1   0.5219  0.5777  0.2811  11.00000  0.05    0.22
Q20   1   0.5909  0.5909  0.1789  10.50000  0.05    0.21
;
_shelx_res_checksum              82287
_shelx_fab_file
;
    0    2    0    -97.24      0.00
    2    2    0     72.24      0.00
    1    3    0    -50.12      0.00
    3    3    0     27.63      0.00
    0    4    0     27.52      0.00
    2    4    0    -22.28      0.00
    4    4    0     11.73      0.00
    1    5    0     -1.64      0.00
    3    5    0     -3.64      0.00
    5    5    0      7.50      0.00
    0    6    0     14.87      0.00
    2    6    0     -8.69      0.00
    4    6    0     -2.61      0.00
    6    6    0      8.12      0.00
    1    7    0     17.85      0.00
    3    7    0     -6.29      0.00
    5    7    0     -5.14      0.00
    7    7    0      7.81      0.00
    0    8    0    -14.91      0.00
    2    8    0     10.71      0.00
    4    8    0     -1.67      0.00
    6    8    0     -5.02      0.00
    8    8    0      5.26      0.00
    1    9    0     -8.09      0.00
    3    9    0      4.93      0.00
    5    9    0     -0.12      0.00
    7    9    0     -2.71      0.00
    9    9    0      1.44      0.00
    0   10    0     -0.24      0.00
    2   10    0     -1.13      0.00
    4   10    0      2.55      0.00
    6   10    0     -1.21      0.00
    8   10    0     -0.78      0.00
   10   10    0      0.11      0.00
    1   11    0     -3.65      0.00
    3   11    0     -0.60      0.00
    5   11    0      3.65      0.00
    7   11    0     -3.17      0.00
    9   11    0      2.20      0.00
   11   11    0     -1.99      0.00
    0   12    0      8.19      0.00
    2   12    0     -4.47      0.00
    4   12    0     -2.22      0.00
    6   12    0      5.02      0.00
    8   12    0     -3.82      0.00
   10   12    0      1.54      0.00
   12   12    0     -0.23      0.00
    1   13    0      7.23      0.00
    3   13    0     -1.61      0.00
    5   13    0     -3.80      0.00
    7   13    0      5.46      0.00
    9   13    0     -4.04      0.00
   11   13    0      1.67      0.00
   13   13    0      0.08      0.00
    0   14    0     -6.60      0.00
    2   14    0      3.78      0.00
    4   14    0      1.67      0.00
    6   14    0     -5.04      0.00
    8   14    0      4.59      0.00
   10   14    0     -2.22      0.00
   12   14    0     -0.33      0.00
   14   14    0      0.90      0.00
    1   15    0     -4.45      0.00
    3   15    0      1.39      0.00
    5   15    0      2.18      0.00
    7   15    0     -3.70      0.00
    9   15    0      3.07      0.00
   11   15    0     -1.22      0.00
   13   15    0     -0.23      0.00
   15   15    0      0.45      0.00
    0   16    0      1.80      0.00
    2   16    0     -1.00      0.00
    4   16    0     -0.80      0.00
    6   16    0      2.12      0.00
    8   16    0     -2.32      0.00
   10   16    0      1.37      0.00
   12   16    0     -0.36      0.00
   14   16    0     -0.46      0.00
   16   16    0      0.35      0.00
    1   17    0      0.22      0.00
    3   17    0     -0.24      0.00
    5   17    0      0.03      0.00
    7   17    0      0.55      0.00
    9   17    0     -0.97      0.00
   11   17    0      1.02      0.00
   13   17    0     -0.43      0.00
   15   17    0     -0.21      0.00
    0   18    0      1.27      0.00
    2   18    0     -0.62      0.00
    4   18    0     -0.54      0.00
    6   18    0      0.99      0.00
    8   18    0     -0.51      0.00
   10   18    0     -0.43      0.00
   12   18    0      0.58      0.00
   14   18    0     -0.15      0.00
    1   19    0      1.80      0.00
    3   19    0     -0.08      0.00
    5   19    0     -1.42      0.00
    7   19    0      1.51      0.00
    9   19    0     -0.30      0.00
   11   19    0     -0.61      0.00
    0   20    0     -1.42      0.00
    2   20    0      0.51      0.00
    4   20    0      1.22      0.00
    6   20    0     -1.98      0.00
    8   20    0      1.34      0.00
   10   20    0     -0.19      0.00
    1   21    0     -1.00      0.00
    3   21    0     -0.29      0.00
    5   21    0      1.37      0.00
    7   21    0     -1.20      0.00
    0   22    0      0.45      0.00
    2   22    0      0.00      0.00
    4   22    0     -0.62      0.00
    6   22    0      0.78      0.00
    1    2    1      0.15      0.00
    2    2    1     22.27      0.00
    1    3    1    -15.70      0.00
    2    3    1     -0.68      0.00
    3    3    1     30.95      0.00
    1    4    1      0.18      0.00
    2    4    1    -23.27      0.00
    3    4    1     -0.02      0.00
    4    4    1     24.90      0.00
    1    5    1      9.89      0.00
    2    5    1      1.37      0.00
    3    5    1    -20.47      0.00
    4    5    1     -0.91      0.00
    5    5    1     14.75      0.00
    1    6    1     -0.81      0.00
    2    6    1      8.64      0.00
    3    6    1      1.44      0.00
    4    6    1    -10.70      0.00
    5    6    1     -0.74      0.00
    6    6    1      6.88      0.00
    1    7    1     -0.96      0.00
    2    7    1     -1.80      0.00
    3    7    1      2.66      0.00
    4    7    1      1.69      0.00
    5    7    1     -3.93      0.00
    6    7    1     -0.35      0.00
    7    7    1      3.70      0.00
    1    8    1      1.08      0.00
    2    8    1      2.40      0.00
    3    8    1     -2.29      0.00
    4    8    1     -1.07      0.00
    5    8    1      1.83      0.00
    6    8    1     -2.46      0.00
    7    8    1     -0.82      0.00
    8    8    1      3.78      0.00
    1    9    1     -2.51      0.00
    2    9    1      1.66      0.00
    3    9    1      4.50      0.00
    4    9    1     -1.86      0.00
    5    9    1     -1.63      0.00
    6    9    1      0.93      0.00
    7    9    1     -1.99      0.00
    8    9    1     -0.04      0.00
    9    9    1      3.06      0.00
    1   10    1     -0.81      0.00
    2   10    1     -3.38      0.00
    3   10    1      1.75      0.00
    4   10    1      2.99      0.00
    5   10    1     -1.70      0.00
    6   10    1      0.05      0.00
    7   10    1      1.13      0.00
    8   10    1     -2.64      0.00
    9   10    1     -0.56      0.00
   10   10    1      2.95      0.00
    1   11    1      0.95      0.00
    2   11    1     -0.99      0.00
    3   11    1     -1.96      0.00
    4   11    1      1.19      0.00
    5   11    1      1.32      0.00
    6   11    1     -0.87      0.00
    7   11    1      0.43      0.00
    8   11    1      0.36      0.00
    9   11    1     -1.60      0.00
   10   11    1      0.04      0.00
   11   11    1      1.38      0.00
    1   12    1      0.19      0.00
    2   12    1     -0.16      0.00
    3   12    1     -0.50      0.00
    4   12    1     -0.11      0.00
    5   12    1      0.69      0.00
    6   12    1     -0.05      0.00
    7   12    1     -0.81      0.00
    8   12    1      0.85      0.00
    9   12    1      0.72      0.00
   10   12    1     -1.42      0.00
   11   12    1     -0.43      0.00
   12   12    1      0.76      0.00
    1   13    1      1.20      0.00
    2   13    1      0.25      0.00
    3   13    1     -2.08      0.00
    4   13    1     -0.31      0.00
    5   13    1      0.90      0.00
    6   13    1      0.20      0.00
    7   13    1      0.41      0.00
    8   13    1     -0.19      0.00
    9   13    1     -0.54      0.00
   10   13    1      0.08      0.00
   11   13    1      0.60      0.00
   12   13    1      0.06      0.00
   13   13    1     -0.62      0.00
    1   14    1      0.11      0.00
    2   14    1      2.61      0.00
    3   14    1     -0.22      0.00
    4   14    1     -2.59      0.00
    5   14    1      0.12      0.00
    6   14    1      0.79      0.00
    7   14    1      0.27      0.00
    8   14    1      0.45      0.00
    9   14    1     -0.58      0.00
   10   14    1     -0.78      0.00
   11   14    1      0.55      0.00
   12   14    1      0.43      0.00
   13   14    1     -0.30      0.00
   14   14    1      0.10      0.00
    1   15    1     -1.92      0.00
    2   15    1     -0.05      0.00
    3   15    1      3.73      0.00
    4   15    1     -0.20      0.00
    5   15    1     -2.06      0.00
    6   15    1      0.37      0.00
    7   15    1     -0.69      0.00
    8   15    1     -0.32      0.00
    9   15    1      2.42      0.00
   10   15    1      0.06      0.00
   11   15    1     -2.08      0.00
   12   15    1      0.06      0.00
   13   15    1      0.90      0.00
   14   15    1     -0.02      0.00
   15   15    1      0.21      0.00
    1   16    1      0.00      0.00
    2   16    1     -3.00      0.00
    3   16    1      0.19      0.00
    4   16    1      3.18      0.00
    5   16    1     -0.29      0.00
    6   16    1     -1.15      0.00
    7   16    1      0.11      0.00
    8   16    1     -1.09      0.00
    9   16    1      0.29      0.00
   10   16    1      1.74      0.00
   11   16    1     -0.49      0.00
   12   16    1     -0.82      0.00
   13   16    1      0.39      0.00
   14   16    1     -0.30      0.00
   15   16    1     -0.15      0.00
   16   16    1      0.52      0.00
    1   17    1      1.50      0.00
    2   17    1      0.08      0.00
    3   17    1     -2.96      0.00
    4   17    1      0.22      0.00
    5   17    1      1.72      0.00
    6   17    1     -0.62      0.00
    7   17    1      0.80      0.00
    8   17    1      0.56      0.00
    9   17    1     -2.31      0.00
   10   17    1     -0.26      0.00
   11   17    1      2.05      0.00
   12   17    1     -0.04      0.00
   13   17    1     -0.54      0.00
   14   17    1      0.11      0.00
   15   17    1     -0.15      0.00
    1   18    1     -0.06      0.00
    2   18    1      1.74      0.00
    3   18    1      0.05      0.00
    4   18    1     -1.88      0.00
    5   18    1      0.22      0.00
    6   18    1      0.55      0.00
    7   18    1     -0.17      0.00
    8   18    1      0.63      0.00
    9   18    1     -0.09      0.00
   10   18    1     -0.92      0.00
   11   18    1      0.31      0.00
   12   18    1      0.27      0.00
   13   18    1     -0.30      0.00
   14   18    1      0.29      0.00
    1   19    1     -0.53      0.00
    2   19    1     -0.19      0.00
    3   19    1      0.97      0.00
    4   19    1     -0.03      0.00
    5   19    1     -0.37      0.00
    6   19    1      0.35      0.00
    7   19    1     -0.52      0.00
    8   19    1     -0.42      0.00
    9   19    1      0.93      0.00
   10   19    1      0.24      0.00
   11   19    1     -0.66      0.00
   12   19    1     -0.05      0.00
    1   20    1      0.15      0.00
    2   20    1     -0.05      0.00
    3   20    1     -0.18      0.00
    4   20    1     -0.14      0.00
    5   20    1      0.04      0.00
    6   20    1      0.21      0.00
    7   20    1      0.08      0.00
    8   20    1     -0.01      0.00
    9   20    1      0.05      0.00
   10   20    1     -0.30      0.00
    1   21    1     -0.23      0.00
    2   21    1      0.31      0.00
    3   21    1      0.54      0.00
    4   21    1     -0.29      0.00
    5   21    1     -0.64      0.00
    6   21    1      0.00      0.00
    7   21    1      0.29      0.00
    8   21    1      0.14      0.00
    1   22    1     -0.14      0.00
    2   22    1     -0.64      0.00
    3   22    1      0.32      0.00
    4   22    1      0.85      0.00
    5   22    1     -0.16      0.00
    6   22    1     -0.49      0.00
    0    1    2      5.01      0.00
    1    1    2     88.19      0.00
    0    2    2    -75.96      0.00
    1    2    2     -7.83      0.00
    2    2    2     56.29      0.00
    0    3    2      3.77      0.00
    1    3    2    -43.62      0.00
    2    3    2     -0.60      0.00
    3    3    2     24.94      0.00
    0    4    2     19.60      0.00
    1    4    2     11.54      0.00
    2    4    2    -16.80      0.00
    3    4    2     -4.22      0.00
    4    4    2     10.66      0.00
    0    5    2    -10.01      0.00
    1    5    2     -1.42      0.00
    2    5    2      7.04      0.00
    3    5    2     -4.41      0.00
    4    5    2     -1.77      0.00
    5    5    2      8.35      0.00
    0    6    2     14.28      0.00
    1    6    2    -10.26      0.00
    2    6    2     -7.75      0.00
    3    6    2      5.01      0.00
    4    6    2     -3.97      0.00
    5    6    2     -0.44      0.00
    6    6    2      9.07      0.00
    0    7    2      8.12      0.00
    1    7    2     15.53      0.00
    2    7    2     -5.97      0.00
    3    7    2     -4.67      0.00
    4    7    2      2.27      0.00
    5    7    2     -5.62      0.00
    6    7    2     -0.32      0.00
    7    7    2      7.33      0.00
    0    8    2    -13.22      0.00
    1    8    2      5.44      0.00
    2    8    2      9.05      0.00
    3    8    2     -2.48      0.00
    4    8    2     -0.42      0.00
    5    8    2      0.15      0.00
    6    8    2     -5.23      0.00
    7    8    2      0.09      0.00
    8    8    2      4.61      0.00
    0    9    2     -2.29      0.00
    1    9    2     -6.66      0.00
    2    9    2      1.54      0.00
    3    9    2      3.88      0.00
    4    9    2     -0.15      0.00
    5    9    2      0.08      0.00
    6    9    2     -0.26      0.00
    7    9    2     -2.16      0.00
    8    9    2      0.33      0.00
    9    9    2      0.95      0.00
    0   10    2     -0.16      0.00
    1   10    2     -0.98      0.00
    2   10    2     -0.92      0.00
    3   10    2     -0.07      0.00
    4   10    2      2.09      0.00
    5   10    2      0.62      0.00
    6   10    2     -1.21      0.00
    7   10    2      0.11      0.00
    8   10    2     -0.17      0.00
    9   10    2     -0.60      0.00
   10   10    2     -0.40      0.00
    0   11    2     -1.44      0.00
    1   11    2     -3.68      0.00
    2   11    2      1.51      0.00
    3   11    2     -0.41      0.00
    4   11    2     -1.28      0.00
    5   11    2      3.55      0.00
    6   11    2      0.65      0.00
    7   11    2     -3.30      0.00
    8   11    2     -0.17      0.00
    9   11    2      2.10      0.00
   10   11    2      0.42      0.00
   11   11    2     -1.45      0.00
    0   12    2      7.16      0.00
    1   12    2     -1.30      0.00
    2   12    2     -3.89      0.00
    3   12    2      1.78      0.00
    4   12    2     -2.08      0.00
    5   12    2     -1.45      0.00
    6   12    2      4.79      0.00
    7   12    2      0.32      0.00
    8   12    2     -3.85      0.00
    9   12    2      0.72      0.00
   10   12    2      1.64      0.00
   11   12    2     -0.67      0.00
   12   12    2     -0.27      0.00
    0   13    2      1.59      0.00
    1   13    2      6.42      0.00
    2   13    2     -1.78      0.00
    3   13    2     -1.20      0.00
    4   13    2      1.77      0.00
    5   13    2     -3.89      0.00
    6   13    2     -1.07      0.00
    7   13    2      5.35      0.00
    8   13    2      0.27      0.00
    9   13    2     -3.68      0.00
   10   13    2     -0.04      0.00
   11   13    2      1.17      0.00
   12   13    2      0.25      0.00
   13   13    2      0.33      0.00
    0   14    2     -5.88      0.00
    1   14    2      1.49      0.00
    2   14    2      3.40      0.00
    3   14    2     -2.19      0.00
    4   14    2      1.46      0.00
    5   14    2      2.26      0.00
    6   14    2     -4.59      0.00
    7   14    2     -1.03      0.00
    8   14    2      4.32      0.00
    9   14    2     -0.12      0.00
   10   14    2     -2.13      0.00
   11   14    2      0.61      0.00
   12   14    2     -0.19      0.00
   13   14    2     -0.36      0.00
   14   14    2      0.70      0.00
    0   15    2     -0.30      0.00
    1   15    2     -3.65      0.00
    2   15    2      0.74      0.00
    3   15    2      0.88      0.00
    4   15    2     -1.46      0.00
    5   15    2      2.33      0.00
    6   15    2      1.24      0.00
    7   15    2     -3.62      0.00
    8   15    2     -0.53      0.00
    9   15    2      2.83      0.00
   10   15    2      0.03      0.00
   11   15    2     -1.01      0.00
   12   15    2      0.11      0.00
   13   15    2     -0.21      0.00
   14   15    2      0.01      0.00
   15   15    2      0.26      0.00
    0   16    2      1.61      0.00
    1   16    2     -0.54      0.00
    2   16    2     -0.96      0.00
    3   16    2      1.34      0.00
    4   16    2     -0.55      0.00
    5   16    2     -1.68      0.00
    6   16    2      1.75      0.00
    7   16    2      1.14      0.00
    8   16    2     -2.06      0.00
    9   16    2     -0.20      0.00
   10   16    2      1.30      0.00
   11   16    2     -0.27      0.00
   12   16    2     -0.41      0.00
   13   16    2      0.39      0.00
   14   16    2     -0.31      0.00
   15   16    2     -0.14      0.00
   16   16    2      0.30      0.00
    0   17    2     -0.35      0.00
    1   17    2      0.07      0.00
    2   17    2     -0.05      0.00
    3   17    2     -0.10      0.00
    4   17    2      0.59      0.00
    5   17    2     -0.03      0.00
    6   17    2     -0.85      0.00
    7   17    2      0.51      0.00
    8   17    2      0.51      0.00
    9   17    2     -0.88      0.00
   10   17    2     -0.19      0.00
   11   17    2      0.92      0.00
   12   17    2     -0.06      0.00
   13   17    2     -0.46      0.00
   14   17    2      0.20      0.00
   15   17    2     -0.07      0.00
    0   18    2      1.16      0.00
    1   18    2     -0.34      0.00
    2   18    2     -0.54      0.00
    3   18    2     -0.06      0.00
    4   18    2     -0.61      0.00
    5   18    2      0.59      0.00
    6   18    2      1.06      0.00
    7   18    2     -0.55      0.00
    8   18    2     -0.52      0.00
    9   18    2      0.25      0.00
   10   18    2     -0.42      0.00
   11   18    2      0.05      0.00
   12   18    2      0.55      0.00
   13   18    2     -0.20      0.00
    0   19    2      0.10      0.00
    1   19    2      1.34      0.00
    2   19    2     -0.13      0.00
    3   19    2      0.09      0.00
    4   19    2     -0.20      0.00
    5   19    2     -1.37      0.00
    6   19    2      0.41      0.00
    7   19    2      1.41      0.00
    8   19    2     -0.48      0.00
    9   19    2     -0.28      0.00
   10   19    2      0.29      0.00
   11   19    2     -0.56      0.00
   12   19    2     -0.07      0.00
    0   20    2     -1.19      0.00
    1   20    2      0.43      0.00
    2   20    2      0.40      0.00
    3   20    2     -0.19      0.00
    4   20    2      1.15      0.00
    5   20    2     -0.14      0.00
    6   20    2     -1.82      0.00
    7   20    2      0.32      0.00
    8   20    2      1.17      0.00
    9   20    2     -0.18      0.00
   10   20    2     -0.09      0.00
    0   21    2      0.09      0.00
    1   21    2     -0.62      0.00
    2   21    2     -0.14      0.00
    3   21    2     -0.37      0.00
    4   21    2      0.10      0.00
    5   21    2      1.22      0.00
    6   21    2     -0.31      0.00
    7   21    2     -1.06      0.00
    8   21    2      0.29      0.00
    0   22    2      0.24      0.00
    1   22    2      0.19      0.00
    2   22    2      0.14      0.00
    3   22    2     -0.19      0.00
    4   22    2     -0.66      0.00
    5   22    2      0.27      0.00
    1    1    3      5.13      0.00
    1    2    3      0.11      0.00
    2    2    3     15.62      0.00
    1    3    3    -10.12      0.00
    2    3    3     -1.10      0.00
    3    3    3     19.33      0.00
    1    4    3      0.70      0.00
    2    4    3    -15.37      0.00
    3    4    3     -0.61      0.00
    4    4    3     15.45      0.00
    1    5    3      5.51      0.00
    2    5    3      2.83      0.00
    3    5    3    -11.18      0.00
    4    5    3     -1.82      0.00
    5    5    3      7.43      0.00
    1    6    3     -2.04      0.00
    2    6    3      3.90      0.00
    3    6    3      3.63      0.00
    4    6    3     -4.74      0.00
    5    6    3     -1.72      0.00
    6    6    3      2.84      0.00
    1    7    3      0.80      0.00
    2    7    3     -4.09      0.00
    3    7    3     -0.92      0.00
    4    7    3      4.00      0.00
    5    7    3     -1.27      0.00
    6    7    3     -1.19      0.00
    7    7    3      3.14      0.00
    1    8    3      2.47      0.00
    2    8    3      3.83      0.00
    3    8    3     -5.18      0.00
    4    8    3     -2.92      0.00
    5    8    3      3.86      0.00
    6    8    3     -0.98      0.00
    7    8    3     -1.32      0.00
    8    8    3      3.17      0.00
    1    9    3     -2.67      0.00
    2    9    3      3.71      0.00
    3    9    3      4.60      0.00
    4    9    3     -4.33      0.00
    5    9    3     -1.23      0.00
    6    9    3      2.42      0.00
    7    9    3     -2.90      0.00
    8    9    3     -0.56      0.00
    9    9    3      4.10      0.00
    1   10    3     -1.74      0.00
    2   10    3     -3.29      0.00
    3   10    3      3.71      0.00
    4   10    3      2.79      0.00
    5   10    3     -3.41      0.00
    6   10    3      0.26      0.00
    7   10    3      1.97      0.00
    8   10    3     -2.65      0.00
    9   10    3     -0.76      0.00
   10   10    3      2.72      0.00
    1   11    3      1.01      0.00
    2   11    3     -2.00      0.00
    3   11    3     -1.79      0.00
    4   11    3      2.50      0.00
    5   11    3      0.54      0.00
    6   11    3     -1.97      0.00
    7   11    3      1.49      0.00
    8   11    3      0.97      0.00
    9   11    3     -2.41      0.00
   10   11    3     -0.18      0.00
   11   11    3      1.79      0.00
    1   12    3      0.40      0.00
    2   12    3     -0.19      0.00
    3   12    3     -1.00      0.00
    4   12    3      0.22      0.00
    5   12    3      1.27      0.00
    6   12    3     -0.43      0.00
    7   12    3     -1.39      0.00
    8   12    3      0.83      0.00
    9   12    3      1.14      0.00
   10   12    3     -1.02      0.00
   11   12    3     -0.63      0.00
   12   12    3      0.40      0.00
    1   13    3      0.70      0.00
    2   13    3      0.35      0.00
    3   13    3     -1.33      0.00
    4   13    3     -0.47      0.00
    5   13    3      0.88      0.00
    6   13    3      0.35      0.00
    7   13    3     -0.21      0.00
    8   13    3     -0.48      0.00
    9   13    3      0.05      0.00
   10   13    3      0.28      0.00
   11   13    3      0.11      0.00
   12   13    3     -0.01      0.00
   13   13    3     -0.16      0.00
    1   14    3      0.18      0.00
    2   14    3      2.15      0.00
    3   14    3     -0.42      0.00
    4   14    3     -2.27      0.00
    5   14    3      0.34      0.00
    6   14    3      0.71      0.00
    7   14    3      0.32      0.00
    8   14    3      0.69      0.00
    9   14    3     -0.88      0.00
   10   14    3     -1.08      0.00
   11   14    3      0.88      0.00
   12   14    3      0.53      0.00
   13   14    3     -0.51      0.00
   14   14    3      0.17      0.00
    1   15    3     -1.25      0.00
    2   15    3     -0.02      0.00
    3   15    3      2.57      0.00
    4   15    3     -0.54      0.00
    5   15    3     -1.67      0.00
    6   15    3      0.77      0.00
    7   15    3     -0.19      0.00
    8   15    3     -0.57      0.00
    9   15    3      1.53      0.00
   10   15    3      0.01      0.00
   11   15    3     -1.30      0.00
   12   15    3      0.16      0.00
   13   15    3      0.32      0.00
   14   15    3     -0.05      0.00
   15   15    3      0.43      0.00
    1   16    3      0.07      0.00
    2   16    3     -2.22      0.00
    3   16    3      0.32      0.00
    4   16    3      2.41      0.00
    5   16    3     -0.66      0.00
    6   16    3     -0.74      0.00
    7   16    3      0.43      0.00
    8   16    3     -1.25      0.00
    9   16    3      0.35      0.00
   10   16    3      1.78      0.00
   11   16    3     -0.79      0.00
   12   16    3     -0.76      0.00
   13   16    3      0.70      0.00
   14   16    3     -0.34      0.00
   15   16    3     -0.31      0.00
   16   16    3      0.45      0.00
    1   17    3      0.94      0.00
    2   17    3      0.17      0.00
    3   17    3     -1.99      0.00
    4   17    3      0.41      0.00
    5   17    3      1.43      0.00
    6   17    3     -1.13      0.00
    7   17    3      0.16      0.00
    8   17    3      0.93      0.00
    9   17    3     -1.25      0.00
   10   17    3     -0.42      0.00
   11   17    3      1.08      0.00
   12   17    3     -0.08      0.00
   13   17    3     -0.09      0.00
   14   17    3      0.21      0.00
   15   17    3     -0.21      0.00
    1   18    3     -0.14      0.00
    2   18    3      1.08      0.00
    3   18    3      0.15      0.00
    4   18    3     -1.21      0.00
    5   18    3      0.48      0.00
    6   18    3      0.30      0.00
    7   18    3     -0.41      0.00
    8   18    3      0.67      0.00
    9   18    3     -0.06      0.00
   10   18    3     -0.87      0.00
   11   18    3      0.48      0.00
   12   18    3      0.26      0.00
   13   18    3     -0.53      0.00
    1   19    3     -0.24      0.00
    2   19    3     -0.36      0.00
    3   19    3      0.51      0.00
    4   19    3     -0.05      0.00
    5   19    3     -0.39      0.00
    6   19    3      0.55      0.00
    7   19    3      0.05      0.00
    8   19    3     -0.68      0.00
    9   19    3      0.18      0.00
   10   19    3      0.43      0.00
   11   19    3     -0.09      0.00
   12   19    3     -0.15      0.00
    1   20    3      0.29      0.00
    2   20    3      0.03      0.00
    3   20    3     -0.30      0.00
    4   20    3     -0.09      0.00
    5   20    3      0.08      0.00
    6   20    3      0.05      0.00
    7   20    3      0.15      0.00
    8   20    3      0.03      0.00
    9   20    3      0.05      0.00
   10   20    3     -0.15      0.00
    1   21    3     -0.21      0.00
    2   21    3      0.51      0.00
    3   21    3      0.42      0.00
    4   21    3     -0.51      0.00
    5   21    3     -0.31      0.00
    6   21    3      0.02      0.00
    7   21    3     -0.06      0.00
    8   21    3      0.27      0.00
    1   22    3     -0.21      0.00
    2   22    3     -0.34      0.00
    3   22    3      0.59      0.00
    4   22    3      0.40      0.00
    5   22    3     -0.33      0.00
    0    1    4     -0.12      0.00
    1    1    4     51.37      0.00
    0    2    4    -35.20      0.00
    1    2    4     -4.70      0.00
    2    2    4     26.09      0.00
    0    3    4      9.15      0.00
    1    3    4    -24.65      0.00
    2    3    4     -4.19      0.00
    3    3    4     15.82      0.00
    0    4    4      5.55      0.00
    1    4    4     12.22      0.00
    2    4    4     -7.29      0.00
    3    4    4     -3.96      0.00
    4    4    4      9.18      0.00
    0    5    4    -14.65      0.00
    1    5    4     -2.81      0.00
    2    5    4     10.39      0.00
    3    5    4     -4.80      0.00
    4    5    4     -2.57      0.00
    5    5    4      9.73      0.00
    0    6    4     11.83      0.00
    1    6    4    -12.66      0.00
    2    6    4     -5.01      0.00
    3    6    4      6.46      0.00
    4    6    4     -6.71      0.00
    5    6    4     -1.01      0.00
    6    6    4     10.38      0.00
    0    7    4     10.74      0.00
    1    7    4     10.81      0.00
    2    7    4     -7.80      0.00
    3    7    4     -1.31      0.00
    4    7    4      2.73      0.00
    5    7    4     -6.75      0.00
    6    7    4      0.04      0.00
    7    7    4      6.57      0.00
    0    8    4     -9.42      0.00
    1    8    4      6.76      0.00
    2    8    4      5.50      0.00
    3    8    4     -3.33      0.00
    4    8    4      1.82      0.00
    5    8    4      0.68      0.00
    6    8    4     -5.06      0.00
    7    8    4     -0.25      0.00
    8    8    4      2.78      0.00
    0    9    4     -2.89      0.00
    1    9    4     -3.78      0.00
    2    9    4      1.86      0.00
    3    9    4      1.61      0.00
    4    9    4      0.02      0.00
    5    9    4      0.74      0.00
    6    9    4     -0.56      0.00
    7    9    4     -1.35      0.00
    8    9    4      0.57      0.00
    9    9    4      0.27      0.00
    0   10    4      0.08      0.00
    1   10    4     -0.82      0.00
    2   10    4     -0.60      0.00
    3   10    4     -0.20      0.00
    4   10    4      1.36      0.00
    5   10    4      0.61      0.00
    6   10    4     -1.49      0.00
    7   10    4      0.29      0.00
    8   10    4      1.24      0.00
    9   10    4     -0.67      0.00
   10   10    4     -1.37      0.00
    0   11    4     -1.51      0.00
    1   11    4     -3.43      0.00
    2   11    4      1.76      0.00
    3   11    4     -0.03      0.00
    4   11    4     -1.71      0.00
    5   11    4      3.06      0.00
    6   11    4      1.02      0.00
    7   11    4     -3.17      0.00
    8   11    4     -0.33      0.00
    9   11    4      1.53      0.00
   10   11    4      0.44      0.00
   11   11    4     -0.14      0.00
    0   12    4      4.89      0.00
    1   12    4     -1.59      0.00
    2   12    4     -2.57      0.00
    3   12    4      2.13      0.00
    4   12    4     -1.90      0.00
    5   12    4     -1.62      0.00
    6   12    4      4.37      0.00
    7   12    4      0.38      0.00
    8   12    4     -3.83      0.00
    9   12    4      0.67      0.00
   10   12    4      1.66      0.00
   11   12    4     -0.52      0.00
   12   12    4     -0.08      0.00
    0   13    4      1.45      0.00
    1   13    4      4.51      0.00
    2   13    4     -1.91      0.00
    3   13    4     -0.41      0.00
    4   13    4      2.26      0.00
    5   13    4     -3.72      0.00
    6   13    4     -1.58      0.00
    7   13    4      4.68      0.00
    8   13    4      0.58      0.00
    9   13    4     -2.61      0.00
   10   13    4     -0.11      0.00
   11   13    4     -0.04      0.00
   12   13    4      0.20      0.00
   13   13    4      1.07      0.00
    0   14    4     -4.15      0.00
    1   14    4      1.21      0.00
    2   14    4      2.44      0.00
    3   14    4     -2.16      0.00
    4   14    4      1.10      0.00
    5   14    4      2.42      0.00
    6   14    4     -3.64      0.00
    7   14    4     -1.20      0.00
    8   14    4      3.59      0.00
    9   14    4      0.16      0.00
   10   14    4     -1.72      0.00
   11   14    4      0.42      0.00
   12   14    4     -0.14      0.00
   13   14    4     -0.29      0.00
   14   14    4      0.46      0.00
    0   15    4      0.09      0.00
    1   15    4     -1.91      0.00
    2   15    4      0.59      0.00
    3   15    4      0.01      0.00
    4   15    4     -1.80      0.00
    5   15    4      2.19      0.00
    6   15    4      1.77      0.00
    7   15    4     -2.99      0.00
    8   15    4     -1.03      0.00
    9   15    4      2.05      0.00
   10   15    4      0.35      0.00
   11   15    4     -0.41      0.00
   12   15    4      0.02      0.00
   13   15    4     -0.41      0.00
   14   15    4      0.06      0.00
   15   15    4      0.18      0.00
    0   16    4      0.99      0.00
    1   16    4     -0.04      0.00
    2   16    4     -0.72      0.00
    3   16    4      1.08      0.00
    4   16    4     -0.01      0.00
    5   16    4     -1.65      0.00
    6   16    4      0.85      0.00
    7   16    4      1.43      0.00
    8   16    4     -1.35      0.00
    9   16    4     -0.63      0.00
   10   16    4      1.06      0.00
   11   16    4      0.03      0.00
   12   16    4     -0.46      0.00
   13   16    4      0.43      0.00
   14   16    4      0.01      0.00
   15   16    4     -0.29      0.00
    0   17    4     -0.71      0.00
    1   17    4     -0.39      0.00
    2   17    4      0.14      0.00
    3   17    4      0.03      0.00
    4   17    4      0.63      0.00
    5   17    4      0.21      0.00
    6   17    4     -1.23      0.00
    7   17    4      0.07      0.00
    8   17    4      1.06      0.00
    9   17    4     -0.48      0.00
   10   17    4     -0.68      0.00
   11   17    4      0.58      0.00
   12   17    4      0.17      0.00
   13   17    4     -0.37      0.00
   14   17    4      0.14      0.00
    0   18    4      1.09      0.00
    1   18    4     -0.42      0.00
    2   18    4     -0.42      0.00
    3   18    4      0.09      0.00
    4   18    4     -0.86      0.00
    5   18    4      0.57      0.00
    6   18    4      1.36      0.00
    7   18    4     -0.80      0.00
    8   18    4     -0.65      0.00
    9   18    4      0.68      0.00
   10   18    4     -0.37      0.00
   11   18    4     -0.20      0.00
   12   18    4      0.60      0.00
   13   18    4     -0.24      0.00
    0   19    4      0.08      0.00
    1   19    4      0.68      0.00
    2   19    4     -0.19      0.00
    3   19    4      0.38      0.00
    4   19    4     -0.25      0.00
    5   19    4     -1.41      0.00
    6   19    4      0.64      0.00
    7   19    4      1.36      0.00
    8   19    4     -0.90      0.00
    9   19    4     -0.36      0.00
   10   19    4      0.65      0.00
   11   19    4     -0.37      0.00
   12   19    4     -0.27      0.00
    0   20    4     -0.87      0.00
    1   20    4      0.16      0.00
    2   20    4      0.27      0.00
    3   20    4     -0.07      0.00
    4   20    4      0.98      0.00
    5   20    4     -0.20      0.00
    6   20    4     -1.52      0.00
    7   20    4      0.50      0.00
    8   20    4      0.86      0.00
    9   20    4     -0.37      0.00
   10   20    4      0.09      0.00
    0   21    4      0.23      0.00
    1   21    4     -0.06      0.00
    2   21    4     -0.31      0.00
    3   21    4     -0.43      0.00
    4   21    4      0.25      0.00
    5   21    4      0.92      0.00
    6   21    4     -0.54      0.00
    7   21    4     -0.80      0.00
    8   21    4      0.49      0.00
    0   22    4     -0.04      0.00
    1   22    4      0.29      0.00
    2   22    4      0.25      0.00
    3   22    4     -0.24      0.00
    4   22    4     -0.57      0.00
    5   22    4      0.32      0.00
    1    1    5      2.27      0.00
    1    2    5     -0.23      0.00
    2    2    5      6.83      0.00
    1    3    5     -3.84      0.00
    2    3    5     -0.35      0.00
    3    3    5      6.45      0.00
    1    4    5      1.00      0.00
    2    4    5     -5.16      0.00
    3    4    5     -1.31      0.00
    4    4    5      3.59      0.00
    1    5    5      0.82      0.00
    2    5    5      2.22      0.00
    3    5    5     -1.15      0.00
    4    5    5     -1.42      0.00
    5    5    5     -0.45      0.00
    1    6    5     -2.11      0.00
    2    6    5     -1.71      0.00
    3    6    5      3.71      0.00
    4    6    5      1.95      0.00
    5    6    5     -1.50      0.00
    6    6    5     -0.89      0.00
    1    7    5      2.46      0.00
    2    7    5     -3.80      0.00
    3    7    5     -4.42      0.00
    4    7    5      4.01      0.00
    5    7    5      1.64      0.00
    6    7    5     -1.72      0.00
    7    7    5      2.00      0.00
    1    8    5      2.23      0.00
    2    8    5      5.02      0.00
    3    8    5     -4.62      0.00
    4    8    5     -4.19      0.00
    5    8    5      3.06      0.00
    6    8    5     -0.45      0.00
    7    8    5     -0.49      0.00
    8    8    5      3.57      0.00
    1    9    5     -2.63      0.00
    2    9    5      3.24      0.00
    3    9    5      4.47      0.00
    4    9    5     -4.03      0.00
    5    9    5     -1.01      0.00
    6    9    5      2.55      0.00
    7    9    5     -3.16      0.00
    8    9    5     -1.01      0.00
    9    9    5      4.29      0.00
    1   10    5     -1.40      0.00
    2   10    5     -2.94      0.00
    3   10    5      2.90      0.00
    4   10    5      2.07      0.00
    5   10    5     -2.46      0.00
    6   10    5      1.19      0.00
    7   10    5      1.06      0.00
    8   10    5     -3.33      0.00
    9   10    5     -0.17      0.00
   10   10    5      2.98      0.00
    1   11    5      0.97      0.00
    2   11    5     -1.25      0.00
    3   11    5     -1.50      0.00
    4   11    5      1.66      0.00
    5   11    5     -0.14      0.00
    6   11    5     -1.57      0.00
    7   11    5      2.06      0.00
    8   11    5      0.90      0.00
    9   11    5     -2.59      0.00
   10   11    5     -0.34      0.00
   11   11    5      1.67      0.00
    1   12    5      0.26      0.00
    2   12    5     -0.10      0.00
    3   12    5     -0.65      0.00
    4   12    5      0.57      0.00
    5   12    5      0.77      0.00
    6   12    5     -1.06      0.00
    7   12    5     -0.76      0.00
    8   12    5      1.20      0.00
    9   12    5      0.52      0.00
   10   12    5     -1.01      0.00
   11   12    5     -0.29      0.00
   12   12    5      0.41      0.00
    1   13    5      0.25      0.00
    2   13    5     -0.27      0.00
    3   13    5     -0.69      0.00
    4   13    5      0.21      0.00
    5   13    5      0.83      0.00
    6   13    5     -0.03      0.00
    7   13    5     -0.54      0.00
    8   13    5     -0.38      0.00
    9   13    5      0.22      0.00
   10   13    5      0.23      0.00
   11   13    5     -0.09      0.00
   12   13    5     -0.05      0.00
   13   13    5      0.08      0.00
    1   14    5      0.10      0.00
    2   14    5      1.41      0.00
    3   14    5     -0.25      0.00
    4   14    5     -1.69      0.00
    5   14    5      0.34      0.00
    6   14    5      0.66      0.00
    7   14    5     -0.01      0.00
    8   14    5      0.60      0.00
    9   14    5     -0.30      0.00
   10   14    5     -0.93      0.00
   11   14    5      0.38      0.00
   12   14    5      0.31      0.00
   13   14    5     -0.33      0.00
   14   14    5      0.37      0.00
    1   15    5     -0.60      0.00
    2   15    5      0.22      0.00
    3   15    5      1.40      0.00
    4   15    5     -0.69      0.00
    5   15    5     -1.13      0.00
    6   15    5      0.60      0.00
    7   15    5      0.00      0.00
    8   15    5     -0.31      0.00
    9   15    5      0.93      0.00
   10   15    5     -0.08      0.00
   11   15    5     -0.76      0.00
   12   15    5      0.06      0.00
   13   15    5     -0.14      0.00
   14   15    5      0.02      0.00
   15   15    5      0.62      0.00
    1   16    5      0.17      0.00
    2   16    5     -1.16      0.00
    3   16    5      0.11      0.00
    4   16    5      1.42      0.00
    5   16    5     -0.48      0.00
    6   16    5     -0.44      0.00
    7   16    5      0.54      0.00
    8   16    5     -0.93      0.00
    9   16    5     -0.11      0.00
   10   16    5      1.33      0.00
   11   16    5     -0.23      0.00
   12   16    5     -0.49      0.00
   13   16    5      0.37      0.00
   14   16    5     -0.41      0.00
   15   16    5     -0.27      0.00
    1   17    5      0.30      0.00
    2   17    5      0.09      0.00
    3   17    5     -0.82      0.00
    4   17    5      0.23      0.00
    5   17    5      0.88      0.00
    6   17    5     -0.56      0.00
    7   17    5     -0.26      0.00
    8   17    5      0.30      0.00
    9   17    5     -0.35      0.00
   10   17    5     -0.18      0.00
   11   17    5      0.27      0.00
   12   17    5      0.02      0.00
   13   17    5      0.20      0.00
   14   17    5      0.07      0.00
    1   18    5     -0.09      0.00
    2   18    5      0.18      0.00
    3   18    5      0.15      0.00
    4   18    5     -0.40      0.00
    5   18    5      0.39      0.00
    6   18    5      0.30      0.00
    7   18    5     -0.37      0.00
    8   18    5      0.17      0.00
    9   18    5      0.23      0.00
   10   18    5     -0.38      0.00
   11   18    5     -0.03      0.00
   12   18    5      0.16      0.00
   13   18    5     -0.18      0.00
    1   19    5      0.18      0.00
    2   19    5     -0.12      0.00
    3   19    5     -0.22      0.00
    4   19    5     -0.08      0.00
    5   19    5     -0.23      0.00
    6   19    5      0.12      0.00
    7   19    5      0.59      0.00
    8   19    5     -0.17      0.00
    9   19    5     -0.60      0.00
   10   19    5      0.24      0.00
   11   19    5      0.42      0.00
    1   20    5      0.12      0.00
    2   20    5      0.38      0.00
    3   20    5      0.03      0.00
    4   20    5     -0.22      0.00
    5   20    5     -0.02      0.00
    6   20    5     -0.24      0.00
    7   20    5      0.16      0.00
    8   20    5      0.39      0.00
    9   20    5     -0.13      0.00
   10   20    5     -0.21      0.00
    1   21    5     -0.31      0.00
    2   21    5      0.02      0.00
    3   21    5      0.50      0.00
    4   21    5     -0.12      0.00
    5   21    5     -0.06      0.00
    6   21    5      0.01      0.00
    7   21    5     -0.49      0.00
    1   22    5      0.03      0.00
    2   22    5     -0.24      0.00
    3   22    5      0.21      0.00
    4   22    5      0.14      0.00
    0    0    6     12.04      0.00
    0    1    6     -3.96      0.00
    1    1    6     11.23      0.00
    0    2    6     -7.29      0.00
    1    2    6      0.06      0.00
    2    2    6      5.56      0.00
    0    3    6      7.96      0.00
    1    3    6     -3.03      0.00
    2    3    6     -4.22      0.00
    3    3    6      4.30      0.00
    0    4    6     -2.71      0.00
    1    4    6      6.85      0.00
    2    4    6     -1.49      0.00
    3    4    6     -2.33      0.00
    4    4    6      7.66      0.00
    0    5    6    -10.14      0.00
    1    5    6     -5.46      0.00
    2    5    6      7.14      0.00
    3    5    6     -3.75      0.00
    4    5    6     -1.41      0.00
    5    5    6      9.99      0.00
    0    6    6      8.33      0.00
    1    6    6     -8.70      0.00
    2    6    6     -2.31      0.00
    3    6    6      4.97      0.00
    4    6    6     -7.67      0.00
    5    6    6     -1.35      0.00
    6    6    6      9.65      0.00
    0    7    6      7.34      0.00
    1    7    6      6.63      0.00
    2    7    6     -5.29      0.00
    3    7    6      1.41      0.00
    4    7    6      1.81      0.00
    5    7    6     -7.44      0.00
    6    7    6      0.19      0.00
    7    7    6      5.90      0.00
    0    8    6     -5.85      0.00
    1    8    6      4.61      0.00
    2    8    6      2.59      0.00
    3    8    6     -2.67      0.00
    4    8    6      2.81      0.00
    5    8    6      1.07      0.00
    6    8    6     -3.96      0.00
    7    8    6     -0.30      0.00
    8    8    6      1.03      0.00
    0    9    6     -2.23      0.00
    1    9    6     -1.72      0.00
    2    9    6      1.56      0.00
    3    9    6     -0.16      0.00
    4    9    6     -0.32      0.00
    5    9    6      1.36      0.00
    6    9    6     -0.01      0.00
    7    9    6     -0.95      0.00
    8    9    6      0.04      0.00
    9    9    6      0.00      0.00
    0   10    6      0.07      0.00
    1   10    6     -0.08      0.00
    2   10    6     -0.23      0.00
    3   10    6     -0.13      0.00
    4   10    6      0.89      0.00
    5   10    6      0.13      0.00
    6   10    6     -1.78      0.00
    7   10    6      0.22      0.00
    8   10    6      2.04      0.00
    9   10    6      0.02      0.00
   10   10    6     -1.47      0.00
    0   11    6     -0.41      0.00
    1   11    6     -2.49      0.00
    2   11    6      0.66      0.00
    3   11    6      0.11      0.00
    4   11    6     -0.76      0.00
    5   11    6      2.30      0.00
    6   11    6      0.38      0.00
    7   11    6     -2.58      0.00
    8   11    6      0.14      0.00
    9   11    6      0.84      0.00
   10   11    6     -0.21      0.00
   11   11    6      0.84      0.00
    0   12    6      3.09      0.00
    1   12    6     -0.90      0.00
    2   12    6     -1.55      0.00
    3   12    6      1.11      0.00
    4   12    6     -1.67      0.00
    5   12    6     -0.72      0.00
    6   12    6      3.81      0.00
    7   12    6      0.32      0.00
    8   12    6     -3.26      0.00
    9   12    6     -0.02      0.00
   10   12    6      1.01      0.00
   11   12    6      0.23      0.00
   12   12    6      0.76      0.00
    0   13    6      0.17      0.00
    1   13    6      2.63      0.00
    2   13    6     -0.67      0.00
    3   13    6     -0.01      0.00
    4   13    6      1.24      0.00
    5   13    6     -2.84      0.00
    6   13    6     -1.05      0.00
    7   13    6      3.36      0.00
    8   13    6      0.39      0.00
    9   13    6     -1.39      0.00
   10   13    6      0.16      0.00
   11   13    6     -0.99      0.00
   12   13    6     -0.23      0.00
   13   13    6      1.71      0.00
    0   14    6     -2.36      0.00
    1   14    6     -0.24      0.00
    2   14    6      1.38      0.00
    3   14    6     -0.48      0.00
    4   14    6      0.86      0.00
    5   14    6      1.03      0.00
    6   14    6     -2.62      0.00
    7   14    6     -0.77      0.00
    8   14    6      2.51      0.00
    9   14    6      0.57      0.00
   10   14    6     -0.78      0.00
   11   14    6     -0.19      0.00
   12   14    6     -0.65      0.00
   13   14    6      0.10      0.00
   14   14    6      0.78      0.00
    0   15    6      0.64      0.00
    1   15    6     -0.54      0.00
    2   15    6     -0.09      0.00
    3   15    6     -0.17      0.00
    4   15    6     -1.06      0.00
    5   15    6      1.14      0.00
    6   15    6      1.38      0.00
    7   15    6     -1.62      0.00
    8   15    6     -1.08      0.00
    9   15    6      0.95      0.00
   10   15    6      0.46      0.00
   11   15    6      0.22      0.00
   12   15    6      0.11      0.00
   13   15    6     -0.83      0.00
   14   15    6     -0.10      0.00
   15   15    6      0.55      0.00
    0   16    6      0.01      0.00
    1   16    6      0.82      0.00
    2   16    6     -0.19      0.00
    3   16    6     -0.06      0.00
    4   16    6      0.40      0.00
    5   16    6     -0.58      0.00
    6   16    6     -0.08      0.00
    7   16    6      1.06      0.00
    8   16    6     -0.45      0.00
    9   16    6     -0.98      0.00
   10   16    6      0.56      0.00
   11   16    6      0.53      0.00
   12   16    6     -0.24      0.00
   13   16    6      0.13      0.00
   14   16    6      0.09      0.00
   15   16    6     -0.20      0.00
    0   17    6     -0.64      0.00
    1   17    6     -0.93      0.00
    2   17    6      0.19      0.00
    3   17    6     -0.13      0.00
    4   17    6      0.41      0.00
    5   17    6      1.01      0.00
    6   17    6     -1.13      0.00
    7   17    6     -0.86      0.00
    8   17    6      1.28      0.00
    9   17    6      0.13      0.00
   10   17    6     -0.95      0.00
   11   17    6      0.20      0.00
   12   17    6      0.23      0.00
   13   17    6     -0.13      0.00
   14   17    6      0.16      0.00
    0   18    6      1.36      0.00
    1   18    6     -0.07      0.00
    2   18    6     -0.52      0.00
    3   18    6      0.07      0.00
    4   18    6     -1.07      0.00
    5   18    6      0.32      0.00
    6   18    6      1.72      0.00
    7   18    6     -0.76      0.00
    8   18    6     -0.90      0.00
    9   18    6      1.01      0.00
   10   18    6     -0.22      0.00
   11   18    6     -0.58      0.00
   12   18    6      0.69      0.00
   13   18    6     -0.05      0.00
    0   19    6     -0.19      0.00
    1   19    6      0.80      0.00
    2   19    6      0.03      0.00
    3   19    6      0.38      0.00
    4   19    6     -0.34      0.00
    5   19    6     -1.56      0.00
    6   19    6      0.66      0.00
    7   19    6      1.51      0.00
    8   19    6     -0.98      0.00
    9   19    6     -0.60      0.00
   10   19    6      0.74      0.00
   11   19    6     -0.13      0.00
    0   20    6     -0.90      0.00
    1   20    6     -0.53      0.00
    2   20    6      0.38      0.00
    3   20    6      0.31      0.00
    4   20    6      0.71      0.00
    5   20    6     -0.24      0.00
    6   20    6     -1.21      0.00
    7   20    6      0.47      0.00
    8   20    6      0.66      0.00
    9   20    6     -0.47      0.00
    0   21    6      0.30      0.00
    1   21    6     -0.12      0.00
    2   21    6     -0.40      0.00
    3   21    6     -0.22      0.00
    4   21    6      0.33      0.00
    5   21    6      0.63      0.00
    6   21    6     -0.53      0.00
    7   21    6     -0.63      0.00
    0   22    6     -0.01      0.00
    1   22    6      0.29      0.00
    2   22    6      0.06      0.00
    3   22    6     -0.19      0.00
    1    1    7      0.65      0.00
    1    2    7     -0.23      0.00
    2    2    7      0.80      0.00
    1    3    7     -0.33      0.00
    2    3    7      0.15      0.00
    3    3    7     -0.42      0.00
    1    4    7      0.47      0.00
    2    4    7      1.30      0.00
    3    4    7     -0.76      0.00
    4    4    7     -3.23      0.00
    1    5    7     -1.38      0.00
    2    5    7      0.77      0.00
    3    5    7      3.59      0.00
    4    5    7     -0.62      0.00
    5    5    7     -3.97      0.00
    1    6    7     -0.92      0.00
    2    6    7     -4.20      0.00
    3    6    7      1.60      0.00
    4    6    7      4.57      0.00
    5    6    7     -0.57      0.00
    6    6    7     -1.56      0.00
    1    7    7      2.74      0.00
    2    7    7     -1.73      0.00
    3    7    7     -5.21      0.00
    4    7    7      1.94      0.00
    5    7    7      2.77      0.00
    6    7    7     -0.98      0.00
    7    7    7      1.00      0.00
    1    8    7      0.87      0.00
    2    8    7      4.51      0.00
    3    8    7     -1.86      0.00
    4    8    7     -3.46      0.00
    5    8    7      1.15      0.00
    6    8    7     -1.13      0.00
    7    8    7     -0.10      0.00
    8    8    7      4.09      0.00
    1    9    7     -2.12      0.00
    2    9    7      1.16      0.00
    3    9    7      3.62      0.00
    4    9    7     -1.56      0.00
    5    9    7     -0.84      0.00
    6    9    7      0.99      0.00
    7    9    7     -2.57      0.00
    8    9    7     -0.42      0.00
    9    9    7      3.45      0.00
    1   10    7     -0.37      0.00
    2   10    7     -2.21      0.00
    3   10    7      0.77      0.00
    4   10    7      1.17      0.00
    5   10    7     -0.73      0.00
    6   10    7      1.84      0.00
    7   10    7      0.33      0.00
    8   10    7     -3.44      0.00
    9   10    7     -0.14      0.00
   10   10    7      2.73      0.00
    1   11    7      0.64      0.00
    2   11    7      0.24      0.00
    3   11    7     -0.84      0.00
    4   11    7     -0.20      0.00
    5   11    7     -0.55      0.00
    6   11    7     -0.21      0.00
    7   11    7      1.86      0.00
    8   11    7      0.20      0.00
    9   11    7     -2.13      0.00
   10   11    7     -0.06      0.00
   11   11    7      1.31      0.00
    1   12    7     -0.13      0.00
    2   12    7      0.06      0.00
    3   12    7      0.20      0.00
    4   12    7      0.54      0.00
    5   12    7      0.03      0.00
    6   12    7     -1.11      0.00
    7   12    7     -0.27      0.00
    8   12    7      1.17      0.00
    9   12    7      0.28      0.00
   10   12    7     -0.86      0.00
   11   12    7     -0.28      0.00
   12   12    7      0.37      0.00
    1   13    7      0.29      0.00
    2   13    7     -0.90      0.00
    3   13    7     -0.88      0.00
    4   13    7      0.89      0.00
    5   13    7      1.05      0.00
    6   13    7     -0.41      0.00
    7   13    7     -0.62      0.00
    8   13    7     -0.10      0.00
    9   13    7      0.14      0.00
   10   13    7     -0.02      0.00
   11   13    7     -0.24      0.00
   12   13    7      0.16      0.00
   13   13    7      0.31      0.00
    1   14    7      0.13      0.00
    2   14    7      0.75      0.00
    3   14    7     -0.17      0.00
    4   14    7     -1.05      0.00
    5   14    7      0.11      0.00
    6   14    7      0.53      0.00
    7   14    7      0.06      0.00
    8   14    7      0.37      0.00
    9   14    7     -0.14      0.00
   10   14    7     -0.55      0.00
   11   14    7      0.18      0.00
   12   14    7      0.09      0.00
   13   14    7     -0.25      0.00
   14   14    7      0.38      0.00
    1   15    7     -0.42      0.00
    2   15    7      0.40      0.00
    3   15    7      1.07      0.00
    4   15    7     -0.51      0.00
    5   15    7     -0.98      0.00
    6   15    7      0.15      0.00
    7   15    7      0.03      0.00
    8   15    7     -0.03      0.00
    9   15    7      0.63      0.00
   10   15    7      0.03      0.00
   11   15    7     -0.43      0.00
   12   15    7     -0.21      0.00
   13   15    7     -0.45      0.00
   14   15    7      0.17      0.00
   15   15    7      0.73      0.00
    1   16    7      0.12      0.00
    2   16    7     -0.36      0.00
    3   16    7     -0.06      0.00
    4   16    7      0.73      0.00
    5   16    7      0.07      0.00
    6   16    7     -0.48      0.00
    7   16    7      0.07      0.00
    8   16    7     -0.15      0.00
    9   16    7     -0.15      0.00
   10   16    7      0.49      0.00
   11   16    7      0.14      0.00
   12   16    7     -0.14      0.00
   13   16    7      0.01      0.00
   14   16    7     -0.35      0.00
   15   16    7     -0.13      0.00
    1   17    7     -0.04      0.00
    2   17    7     -0.09      0.00
    3   17    7     -0.17      0.00
    4   17    7      0.02      0.00
    5   17    7      0.46      0.00
    6   17    7      0.09      0.00
    7   17    7     -0.35      0.00
    8   17    7     -0.16      0.00
    9   17    7      0.02      0.00
   10   17    7     -0.15      0.00
   11   17    7     -0.06      0.00
   12   17    7      0.26      0.00
   13   17    7      0.22      0.00
    1   18    7      0.07      0.00
    2   18    7     -0.48      0.00
    3   18    7      0.00      0.00
    4   18    7      0.11      0.00
    5   18    7      0.10      0.00
    6   18    7      0.63      0.00
    7   18    7     -0.03      0.00
    8   18    7     -0.74      0.00
    9   18    7      0.30      0.00
   10   18    7      0.43      0.00
   11   18    7     -0.45      0.00
   12   18    7     -0.03      0.00
    1   19    7      0.48      0.00
    2   19    7      0.30      0.00
    3   19    7     -0.80      0.00
    4   19    7     -0.30      0.00
    5   19    7      0.08      0.00
    6   19    7     -0.07      0.00
    7   19    7      0.71      0.00
    8   19    7      0.13      0.00
    9   19    7     -0.86      0.00
   10   19    7      0.14      0.00
   11   19    7      0.47      0.00
    1   20    7     -0.13      0.00
    2   20    7      0.81      0.00
    3   20    7      0.45      0.00
    4   20    7     -0.50      0.00
    5   20    7     -0.22      0.00
    6   20    7     -0.45      0.00
    7   20    7      0.17      0.00
    8   20    7      0.90      0.00
    9   20    7     -0.30      0.00
    1   21    7     -0.44      0.00
    2   21    7     -0.50      0.00
    3   21    7      0.76      0.00
    4   21    7      0.45      0.00
    5   21    7     -0.16      0.00
    6   21    7     -0.15      0.00
    1   22    7      0.22      0.00
    0    0    8     -4.01      0.00
    0    1    8     -0.21      0.00
    1    1    8     -7.93      0.00
    0    2    8      4.43      0.00
    1    2    8     -0.33      0.00
    2    2    8     -3.66      0.00
    0    3    8      0.53      0.00
    1    3    8      6.62      0.00
    2    3    8      0.00      0.00
    3    3    8     -1.34      0.00
    0    4    8     -6.04      0.00
    1    4    8      2.01      0.00
    2    4    8      2.01      0.00
    3    4    8     -1.22      0.00
    4    4    8      4.17      0.00
    0    5    8     -1.83      0.00
    1    5    8     -5.22      0.00
    2    5    8      1.33      0.00
    3    5    8     -2.75      0.00
    4    5    8     -0.08      0.00
    5    5    8      8.30      0.00
    0    6    8      6.03      0.00
    1    6    8     -3.18      0.00
    2    6    8     -1.73      0.00
    3    6    8      2.22      0.00
    4    6    8     -5.56      0.00
    5    6    8     -0.77      0.00
    6    6    8      7.01      0.00
    0    7    8      2.67      0.00
    1    7    8      3.50      0.00
    2    7    8     -2.15      0.00
    3    7    8      2.30      0.00
    4    7    8      1.23      0.00
    5    7    8     -6.40      0.00
    6    7    8     -0.38      0.00
    7    7    8      4.63      0.00
    0    8    8     -3.42      0.00
    1    8    8      2.07      0.00
    2    8    8      1.14      0.00
    3    8    8     -1.66      0.00
    4    8    8      2.42      0.00
    5    8    8      1.04      0.00
    6    8    8     -2.96      0.00
    7    8    8     -0.03      0.00
    8    8    8      0.89      0.00
    0    9    8     -1.60      0.00
    1    9    8     -0.91      0.00
    2    9    8      1.52      0.00
    3    9    8     -0.61      0.00
    4    9    8     -1.26      0.00
    5    9    8      1.23      0.00
    6    9    8      1.03      0.00
    7    9    8     -0.57      0.00
    8    9    8     -0.69      0.00
    9    9    8     -0.34      0.00
    0   10    8     -0.50      0.00
    1   10    8     -0.23      0.00
    2   10    8      0.37      0.00
    3   10    8      0.61      0.00
    4   10    8      0.32      0.00
    5   10    8     -0.65      0.00
    6   10    8     -1.18      0.00
    7   10    8      0.23      0.00
    8   10    8      1.23      0.00
    9   10    8      0.49      0.00
   10   10    8     -0.36      0.00
    0   11    8      0.54      0.00
    1   11    8     -1.45      0.00
    2   11    8     -0.60      0.00
    3   11    8      0.05      0.00
    4   11    8      0.71      0.00
    5   11    8      1.63      0.00
    6   11    8     -0.75      0.00
    7   11    8     -2.06      0.00
    8   11    8      0.82      0.00
    9   11    8      0.79      0.00
   10   11    8     -0.70      0.00
   11   11    8      0.59      0.00
    0   12    8      2.41      0.00
    1   12    8      0.29      0.00
    2   12    8     -1.35      0.00
    3   12    8     -0.40      0.00
    4   12    8     -1.00      0.00
    5   12    8      0.39      0.00
    6   12    8      2.66      0.00
    7   12    8      0.05      0.00
    8   12    8     -1.93      0.00
    9   12    8     -0.28      0.00
   10   12    8     -0.12      0.00
   11   12    8      0.45      0.00
   12   12    8      1.68      0.00
    0   13    8     -0.70      0.00
    1   13    8      1.74      0.00
    2   13    8      0.53      0.00
    3   13    8     -0.31      0.00
    4   13    8     -0.25      0.00
    5   13    8     -1.56      0.00
    6   13    8      0.04      0.00
    7   13    8      2.05      0.00
    8   13    8     -0.17      0.00
    9   13    8     -0.80      0.00
   10   13    8      0.46      0.00
   11   13    8     -0.92      0.00
   12   13    8     -0.40      0.00
   13   13    8      1.52      0.00
    0   14    8     -1.30      0.00
    1   14    8     -1.23      0.00
    2   14    8      0.82      0.00
    3   14    8      0.85      0.00
    4   14    8      0.46      0.00
    5   14    8     -0.14      0.00
    6   14    8     -1.50      0.00
    7   14    8     -0.35      0.00
    8   14    8      1.27      0.00
    9   14    8      0.51      0.00
   10   14    8      0.26      0.00
   11   14    8     -0.24      0.00
   12   14    8     -1.29      0.00
   13   14    8      0.18      0.00
   14   14    8      1.33      0.00
    0   15    8      0.78      0.00
    1   15    8     -0.27      0.00
    2   15    8     -0.58      0.00
    3   15    8      0.40      0.00
    4   15    8     -0.06      0.00
    5   15    8     -0.21      0.00
    6   15    8      0.52      0.00
    7   15    8     -0.27      0.00
    8   15    8     -0.62      0.00
    9   15    8      0.17      0.00
   10   15    8      0.21      0.00
   11   15    8      0.40      0.00
   12   15    8      0.27      0.00
   13   15    8     -0.84      0.00
   14   15    8     -0.27      0.00
   15   15    8      0.72      0.00
    0   16    8     -0.79      0.00
    1   16    8      0.85      0.00
    2   16    8      0.31      0.00
    3   16    8     -0.46      0.00
    4   16    8      0.51      0.00
    5   16    8     -0.06      0.00
    6   16    8     -0.63      0.00
    7   16    8      0.70      0.00
    8   16    8      0.28      0.00
    9   16    8     -0.86      0.00
   10   16    8     -0.02      0.00
   11   16    8      0.50      0.00
   12   16    8      0.26      0.00
   13   16    8     -0.03      0.00
   14   16    8     -0.25      0.00
    0   17    8     -0.15      0.00
    1   17    8     -1.22      0.00
    2   17    8     -0.07      0.00
    3   17    8     -0.29      0.00
    4   17    8      0.29      0.00
    5   17    8      1.55      0.00
    6   17    8     -0.75      0.00
    7   17    8     -1.48      0.00
    8   17    8      0.96      0.00
    9   17    8      0.51      0.00
   10   17    8     -0.63      0.00
   11   17    8      0.05      0.00
   12   17    8     -0.04      0.00
   13   17    8     -0.02      0.00
    0   18    8      1.72      0.00
    1   18    8      0.47      0.00
    2   18    8     -0.84      0.00
    3   18    8     -0.34      0.00
    4   18    8     -0.83      0.00
    5   18    8      0.39      0.00
    6   18    8      1.59      0.00
    7   18    8     -0.67      0.00
    8   18    8     -0.95      0.00
    9   18    8      0.92      0.00
   10   18    8      0.03      0.00
   11   18    8     -0.61      0.00
   12   18    8      0.45      0.00
    0   19    8     -0.51      0.00
    1   19    8      1.41      0.00
    2   19    8      0.41      0.00
    3   19    8     -0.05      0.00
    4   19    8     -0.49      0.00
    5   19    8     -1.33      0.00
    6   19    8      0.53      0.00
    7   19    8      1.39      0.00
    8   19    8     -0.64      0.00
    9   19    8     -0.64      0.00
   10   19    8      0.40      0.00
    0   20    8     -1.07      0.00
    1   20    8     -0.76      0.00
    2   20    8      0.63      0.00
    3   20    8      0.53      0.00
    4   20    8      0.29      0.00
    5   20    8     -0.30      0.00
    6   20    8     -0.77      0.00
    7   20    8      0.34      0.00
    8   20    8      0.49      0.00
    0   21    8      0.21      0.00
    1   21    8     -0.55      0.00
    2   21    8     -0.30      0.00
    3   21    8      0.16      0.00
    4   21    8      0.24      0.00
    5   21    8      0.30      0.00
    1    1    9      0.11      0.00
    1    2    9      0.06      0.00
    2    2    9     -1.05      0.00
    1    3    9      0.67      0.00
    2    3    9      0.10      0.00
    3    3    9     -1.94      0.00
    1    4    9     -0.36      0.00
    2    4    9      2.51      0.00
    3    4    9      0.36      0.00
    4    4    9     -3.73      0.00
    1    5    9     -1.43      0.00
    2    5    9     -0.52      0.00
    3    5    9      3.57      0.00
    4    5    9      0.25      0.00
    5    5    9     -3.38      0.00
    1    6    9      0.45      0.00
    2    6    9     -3.24      0.00
    3    6    9     -0.75      0.00
    4    6    9      3.38      0.00
    5    6    9      0.09      0.00
    6    6    9     -0.82      0.00
    1    7    9      1.89      0.00
    2    7    9      0.59      0.00
    3    7    9     -3.57      0.00
    4    7    9     -0.74      0.00
    5    7    9      1.91      0.00
    6    7    9      0.49      0.00
    7    7    9      0.73      0.00
    1    8    9     -0.42      0.00
    2    8    9      2.69      0.00
    3    8    9      0.74      0.00
    4    8    9     -1.90      0.00
    5    8    9     -0.31      0.00
    6    8    9     -1.03      0.00
    7    8    9     -0.29      0.00
    8    8    9      2.77      0.00
    1    9    9     -1.20      0.00
    2    9    9     -0.82      0.00
    3    9    9      2.05      0.00
    4    9    9      1.01      0.00
    5    9    9     -0.35      0.00
    6    9    9     -0.76      0.00
    7    9    9     -1.79      0.00
    8    9    9      0.31      0.00
    9    9    9      2.21      0.00
    1   10    9      0.52      0.00
    2   10    9     -1.22      0.00
    3   10    9     -1.00      0.00
    4   10    9      0.63      0.00
    5   10    9      0.59      0.00
    6   10    9      1.15      0.00
    7   10    9     -0.02      0.00
    8   10    9     -1.96      0.00
    9   10    9     -0.14      0.00
   10   10    9      1.35      0.00
    1   11    9      0.14      0.00
    2   11    9      1.08      0.00
    3   11    9     -0.01      0.00
    4   11    9     -1.26      0.00
    5   11    9     -0.71      0.00
    6   11    9      0.61      0.00
    7   11    9      1.22      0.00
    8   11    9     -0.07      0.00
    9   11    9     -1.36      0.00
   10   11    9     -0.11      0.00
   11   11    9      0.86      0.00
    1   12    9     -0.53      0.00
    2   12    9     -0.04      0.00
    3   12    9      1.06      0.00
    4   12    9      0.38      0.00
    5   12    9     -0.67      0.00
    6   12    9     -0.52      0.00
    7   12    9      0.10      0.00
    8   12    9      0.44      0.00
    9   12    9      0.12      0.00
   10   12    9     -0.16      0.00
   11   12    9     -0.07      0.00
   12   12    9     -0.06      0.00
    1   13    9      0.53      0.00
    2   13    9     -0.80      0.00
    3   13    9     -1.32      0.00
    4   13    9      0.72      0.00
    5   13    9      1.22      0.00
    6   13    9     -0.21      0.00
    7   13    9     -0.59      0.00
    8   13    9     -0.18      0.00
    9   13    9      0.13      0.00
   10   13    9      0.15      0.00
   11   13    9     -0.49      0.00
   12   13    9      0.00      0.00
   13   13    9      0.65      0.00
    1   14    9      0.31      0.00
    2   14    9      0.59      0.00
    3   14    9     -0.43      0.00
    4   14    9     -0.83      0.00
    5   14    9      0.12      0.00
    6   14    9      0.49      0.00
    7   14    9      0.15      0.00
    8   14    9      0.20      0.00
    9   14    9     -0.21      0.00
   10   14    9     -0.36      0.00
   11   14    9      0.11      0.00
   12   14    9      0.09      0.00
   13   14    9     -0.01      0.00
   14   14    9      0.20      0.00
    1   15    9     -0.51      0.00
    2   15    9      0.17      0.00
    3   15    9      1.23      0.00
    4   15    9      0.05      0.00
    5   15    9     -1.17      0.00
    6   15    9     -0.27      0.00
    7   15    9      0.35      0.00
    8   15    9      0.14      0.00
    9   15    9      0.04      0.00
   10   15    9      0.05      0.00
   11   15    9      0.15      0.00
   12   15    9     -0.19      0.00
   13   15    9     -0.79      0.00
   14   15    9      0.08      0.00
   15   15    9      0.71      0.00
    1   16    9     -0.06      0.00
    2   16    9     -0.17      0.00
    3   16    9      0.00      0.00
    4   16    9      0.61      0.00
    5   16    9      0.37      0.00
    6   16    9     -0.68      0.00
    7   16    9     -0.43      0.00
    8   16    9      0.43      0.00
    9   16    9      0.19      0.00
   10   16    9     -0.12      0.00
   11   16    9      0.10      0.00
   12   16    9      0.09      0.00
   13   16    9     -0.22      0.00
   14   16    9     -0.21      0.00
    1   17    9     -0.05      0.00
    2   17    9     -0.10      0.00
    3   17    9     -0.14      0.00
    4   17    9     -0.06      0.00
    5   17    9      0.51      0.00
    6   17    9      0.16      0.00
    7   17    9     -0.62      0.00
    8   17    9      0.01      0.00
    9   17    9      0.44      0.00
   10   17    9     -0.29      0.00
   11   17    9     -0.41      0.00
   12   17    9      0.34      0.00
   13   17    9      0.27      0.00
    1   18    9      0.19      0.00
    2   18    9     -0.61      0.00
    3   18    9     -0.18      0.00
    4   18    9      0.24      0.00
    5   18    9     -0.10      0.00
    6   18    9      0.71      0.00
    7   18    9      0.28      0.00
    8   18    9     -1.08      0.00
    9   18    9      0.00      0.00
   10   18    9      0.80      0.00
   11   18    9     -0.31      0.00
    1   19    9      0.47      0.00
    2   19    9      0.48      0.00
    3   19    9     -0.79      0.00
    4   19    9     -0.53      0.00
    5   19    9      0.14      0.00
    6   19    9      0.27      0.00
    7   19    9      0.62      0.00
    8   19    9     -0.18      0.00
    9   19    9     -0.78      0.00
   10   19    9      0.24      0.00
    1   20    9     -0.22      0.00
    2   20    9      0.90      0.00
    3   20    9      0.50      0.00
    4   20    9     -0.66      0.00
    5   20    9     -0.26      0.00
    6   20    9     -0.28      0.00
    7   20    9      0.09      0.00
    1   21    9     -0.37      0.00
    2   21    9     -0.53      0.00
    3   21    9      0.70      0.00
    4   21    9      0.62      0.00
    0    0   10     -7.75      0.00
    0    1   10      1.82      0.00
    1    1   10     -6.99      0.00
    0    2   10      7.24      0.00
    1    2   10     -0.04      0.00
    2    2   10     -6.40      0.00
    0    3   10     -3.03      0.00
    1    3   10      5.41      0.00
    2    3   10      1.47      0.00
    3    3   10     -1.99      0.00
    0    4   10     -6.55      0.00
    1    4   10     -2.03      0.00
    2    4   10      3.84      0.00
    3    4   10      0.70      0.00
    4    4   10      0.57      0.00
    0    5   10      2.04      0.00
    1    5   10     -3.54      0.00
    2    5   10     -1.09      0.00
    3    5   10     -1.03      0.00
    4    5   10     -0.26      0.00
    5    5   10      4.47      0.00
    0    6   10      4.47      0.00
    1    6   10      1.09      0.00
    2    6   10     -2.00      0.00
    3    6   10     -0.37      0.00
    4    6   10     -2.70      0.00
    5    6   10      0.13      0.00
    6    6   10      4.37      0.00
    0    7   10      0.52      0.00
    1    7   10      2.10      0.00
    2    7   10     -0.85      0.00
    3    7   10      1.17      0.00
    4    7   10      1.17      0.00
    5    7   10     -3.77      0.00
    6    7   10     -0.67      0.00
    7    7   10      2.97      0.00
    0    8   10     -1.87      0.00
    1    8   10      0.77      0.00
    2    8   10      0.56      0.00
    3    8   10     -1.10      0.00
    4    8   10      1.65      0.00
    5    8   10      1.01      0.00
    6    8   10     -2.49      0.00
    7    8   10     -0.26      0.00
    8    8   10      1.61      0.00
    0    9   10     -1.40      0.00
    1    9   10     -0.61      0.00
    2    9   10      1.60      0.00
    3    9   10     -0.32      0.00
    4    9   10     -1.73      0.00
    5    9   10      0.79      0.00
    6    9   10      1.22      0.00
    7    9   10     -0.45      0.00
    8    9   10     -0.46      0.00
    9    9   10     -0.41      0.00
    0   10   10     -0.82      0.00
    1   10   10     -1.26      0.00
    2   10   10      0.64      0.00
    3   10   10      1.67      0.00
    4   10   10     -0.15      0.00
    5   10   10     -1.49      0.00
    6   10   10     -0.15      0.00
    7   10   10      0.77      0.00
    8   10   10      0.00      0.00
    9   10   10     -0.09      0.00
   10   10   10      0.51      0.00
    0   11   10      0.97      0.00
    1   11   10     -1.22      0.00
    2   11   10     -1.27      0.00
    3   11   10      0.31      0.00
    4   11   10      1.48      0.00
    5   11   10      0.83      0.00
    6   11   10     -1.14      0.00
    7   11   10     -1.40      0.00
    8   11   10      0.68      0.00
    9   11   10      0.87      0.00
   10   11   10     -0.25      0.00
   11   11   10     -0.05      0.00
    0   12   10      2.09      0.00
    1   12   10      1.32      0.00
    2   12   10     -1.35      0.00
    3   12   10     -1.48      0.00
    4   12   10     -0.21      0.00
    5   12   10      1.13      0.00
    6   12   10      1.28      0.00
    7   12   10     -0.51      0.00
    8   12   10     -0.70      0.00
    9   12   10      0.23      0.00
   10   12   10     -0.52      0.00
   11   12   10     -0.14      0.00
   12   12   10      1.47      0.00
    0   13   10     -1.07      0.00
    1   13   10      1.94      0.00
    2   13   10      1.16      0.00
    3   13   10     -0.99      0.00
    4   13   10     -1.13      0.00
    5   13   10     -0.47      0.00
    6   13   10      0.68      0.00
    7   13   10      1.12      0.00
    8   13   10     -0.32      0.00
    9   13   10     -0.62      0.00
   10   13   10      0.20      0.00
   11   13   10     -0.42      0.00
   12   13   10      0.01      0.00
   13   13   10      0.86      0.00
    0   14   10     -1.17      0.00
    1   14   10     -1.24      0.00
    2   14   10      0.93      0.00
    3   14   10      1.03      0.00
    4   14   10     -0.19      0.00
    5   14   10     -0.45      0.00
    6   14   10     -0.42      0.00
    7   14   10     -0.08      0.00
    8   14   10      0.37      0.00
    9   14   10      0.05      0.00
   10   14   10      0.57      0.00
   11   14   10      0.18      0.00
   12   14   10     -1.06      0.00
   13   14   10     -0.15      0.00
   14   14   10      1.10      0.00
    0   15   10      0.80      0.00
    1   15   10     -0.72      0.00
    2   15   10     -0.81      0.00
    3   15   10      0.89      0.00
    4   15   10      0.57      0.00
    5   15   10     -0.79      0.00
    6   15   10     -0.10      0.00
    7   15   10      0.28      0.00
    8   15   10     -0.20      0.00
    9   15   10     -0.12      0.00
   10   15   10      0.10      0.00
   11   15   10      0.29      0.00
   12   15   10      0.08      0.00
   13   15   10     -0.47      0.00
   14   15   10     -0.09      0.00
    0   16   10     -0.74      0.00
    1   16   10      0.26      0.00
    2   16   10      0.28      0.00
    3   16   10     -0.11      0.00
    4   16   10      0.53      0.00
    5   16   10     -0.22      0.00
    6   16   10     -0.73      0.00
    7   16   10      0.52      0.00
    8   16   10      0.54      0.00
    9   16   10     -0.45      0.00
   10   16   10     -0.28      0.00
   11   16   10      0.07      0.00
   12   16   10      0.46      0.00
   13   16   10      0.09      0.00
    0   17   10      0.16      0.00
    1   17   10     -1.18      0.00
    2   17   10     -0.18      0.00
    3   17   10     -0.08      0.00
    4   17   10      0.19      0.00
    5   17   10      1.12      0.00
    6   17   10     -0.35      0.00
    7   17   10     -1.18      0.00
    8   17   10      0.47      0.00
    9   17   10      0.45      0.00
   10   17   10     -0.20      0.00
   11   17   10      0.04      0.00
   12   17   10     -0.17      0.00
    0   18   10      1.68      0.00
    1   18   10      0.61      0.00
    2   18   10     -1.00      0.00
    3   18   10     -0.57      0.00
    4   18   10     -0.27      0.00
    5   18   10      0.49      0.00
    6   18   10      0.92      0.00
    7   18   10     -0.57      0.00
    8   18   10     -0.65      0.00
    9   18   10      0.52      0.00
   10   18   10      0.22      0.00
   11   18   10     -0.24      0.00
    0   19   10     -0.49      0.00
    1   19   10      1.63      0.00
    2   19   10      0.49      0.00
    3   19   10     -0.54      0.00
    4   19   10     -0.43      0.00
    5   19   10     -0.58      0.00
    6   19   10      0.36      0.00
    7   19   10      0.74      0.00
    8   19   10     -0.28      0.00
    9   19   10     -0.32      0.00
    0   20   10     -1.00      0.00
    1   20   10     -0.35      0.00
    2   20   10      0.69      0.00
    3   20   10      0.31      0.00
    4   20   10     -0.12      0.00
    5   20   10     -0.26      0.00
    6   20   10     -0.25      0.00
    0   21   10      0.05      0.00
    1   21   10     -0.57      0.00
    2   21   10     -0.07      0.00
    1    1   11      0.12      0.00
    1    2   11      0.20      0.00
    2    2   11     -0.25      0.00
    1    3   11      0.34      0.00
    2    3   11      0.09      0.00
    3    3   11     -0.73      0.00
    1    4   11     -0.68      0.00
    2    4   11      0.80      0.00
    3    4   11      0.80      0.00
    4    4   11     -1.25      0.00
    1    5   11     -0.54      0.00
    2    5   11     -1.15      0.00
    3    5   11      1.39      0.00
    4    5   11      0.74      0.00
    5    5   11     -1.05      0.00
    1    6   11      1.03      0.00
    2    6   11     -1.13      0.00
    3    6   11     -1.73      0.00
    4    6   11      1.30      0.00
    5    6   11      0.46      0.00
    6    6   11     -0.56      0.00
    1    7   11      0.75      0.00
    2    7   11      1.73      0.00
    3    7   11     -1.25      0.00
    4    7   11     -1.97      0.00
    5    7   11      0.44      0.00
    6    7   11      0.99      0.00
    7    7   11      0.60      0.00
    1    8   11     -0.92      0.00
    2    8   11      1.00      0.00
    3    8   11      1.89      0.00
    4    8   11     -0.90      0.00
    5    8   11     -1.13      0.00
    6    8   11      0.11      0.00
    7    8   11      0.01      0.00
    8    8   11      0.50      0.00
    1    9   11     -0.39      0.00
    2    9   11     -1.52      0.00
    3    9   11      0.68      0.00
    4    9   11      1.93      0.00
    5    9   11     -0.05      0.00
    6    9   11     -1.23      0.00
    7    9   11     -0.70      0.00
    8    9   11      0.34      0.00
    9    9   11      0.52      0.00
    1   10   11      0.81      0.00
    2   10   11     -0.35      0.00
    3   10   11     -1.65      0.00
    4   10   11      0.39      0.00
    5   10   11      1.30      0.00
    6   10   11      0.04      0.00
    7   10   11     -0.48      0.00
    8   10   11     -0.27      0.00
    9   10   11      0.19      0.00
   10   10   11      0.19      0.00
    1   11   11     -0.12      0.00
    2   11   11      1.00      0.00
    3   11   11      0.26      0.00
    4   11   11     -1.18      0.00
    5   11   11     -0.26      0.00
    6   11   11      0.71      0.00
    7   11   11      0.08      0.00
    8   11   11     -0.05      0.00
    9   11   11     -0.03      0.00
   10   11   11     -0.28      0.00
   11   11   11     -0.16      0.00
    1   12   11     -0.58      0.00
    2   12   11     -0.46      0.00
    3   12   11      1.24      0.00
    4   12   11      0.52      0.00
    5   12   11     -0.99      0.00
    6   12   11     -0.17      0.00
    7   12   11      0.51      0.00
    8   12   11     -0.03      0.00
    9   12   11     -0.28      0.00
   10   12   11      0.13      0.00
   11   12   11      0.35      0.00
   12   12   11     -0.01      0.00
    1   13   11      0.54      0.00
    2   13   11     -0.26      0.00
    3   13   11     -1.13      0.00
    4   13   11      0.21      0.00
    5   13   11      0.72      0.00
    6   13   11     -0.05      0.00
    7   13   11     -0.10      0.00
    8   13   11     -0.06      0.00
    9   13   11     -0.26      0.00
   10   13   11      0.29      0.00
   11   13   11     -0.19      0.00
   12   13   11     -0.34      0.00
   13   13   11      0.52      0.00
    1   14   11      0.25      0.00
    2   14   11      0.99      0.00
    3   14   11     -0.39      0.00
    4   14   11     -1.15      0.00
    5   14   11      0.21      0.00
    6   14   11      0.67      0.00
    7   14   11     -0.11      0.00
    8   14   11     -0.03      0.00
    9   14   11      0.10      0.00
   10   14   11     -0.08      0.00
   11   14   11     -0.26      0.00
   12   14   11     -0.19      0.00
   13   14   11      0.43      0.00
   14   14   11      0.35      0.00
    1   15   11     -0.55      0.00
    2   15   11     -0.28      0.00
    3   15   11      1.20      0.00
    4   15   11      0.49      0.00
    5   15   11     -1.13      0.00
    6   15   11     -0.23      0.00
    7   15   11      0.56      0.00
    8   15   11      0.01      0.00
    9   15   11     -0.38      0.00
   10   15   11     -0.01      0.00
   11   15   11      0.45      0.00
   12   15   11      0.10      0.00
   13   15   11     -0.74      0.00
   14   15   11     -0.18      0.00
    1   16   11     -0.04      0.00
    2   16   11     -0.61      0.00
    3   16   11     -0.09      0.00
    4   16   11      0.94      0.00
    5   16   11      0.28      0.00
    6   16   11     -0.75      0.00
    7   16   11     -0.30      0.00
    8   16   11      0.46      0.00
    9   16   11      0.14      0.00
   10   16   11     -0.27      0.00
   11   16   11      0.17      0.00
   12   16   11      0.27      0.00
   13   16   11     -0.45      0.00
    1   17   11      0.12      0.00
    2   17   11      0.16      0.00
    3   17   11     -0.43      0.00
    4   17   11     -0.18      0.00
    5   17   11      0.75      0.00
    6   17   11      0.01      0.00
    7   17   11     -0.91      0.00
    8   17   11      0.22      0.00
    9   17   11      0.80      0.00
   10   17   11     -0.16      0.00
   11   17   11     -0.65      0.00
    1   18   11      0.12      0.00
    2   18   11     -0.22      0.00
    3   18   11     -0.18      0.00
    4   18   11      0.08      0.00
    5   18   11     -0.06      0.00
    6   18   11      0.35      0.00
    7   18   11      0.19      0.00
    8   18   11     -0.55      0.00
    9   18   11     -0.17      0.00
   10   18   11      0.49      0.00
    1   19   11      0.23      0.00
    2   19   11      0.25      0.00
    3   19   11     -0.31      0.00
    4   19   11     -0.32      0.00
    5   19   11     -0.11      0.00
    6   19   11      0.37      0.00
    7   19   11      0.57      0.00
    8   19   11     -0.32      0.00
    1   20   11     -0.19      0.00
    2   20   11      0.58      0.00
    3   20   11      0.28      0.00
    4   20   11     -0.54      0.00
    5   20   11     -0.18      0.00
    0    0   12     -3.59      0.00
    0    1   12      0.37      0.00
    1    1   12     -2.21      0.00
    0    2   12      3.80      0.00
    1    2   12      1.30      0.00
    2    2   12     -3.83      0.00
    0    3   12     -2.10      0.00
    1    3   12      3.38      0.00
    2    3   12      0.61      0.00
    3    3   12     -2.85      0.00
    0    4   12     -4.21      0.00
    1    4   12     -3.20      0.00
    2    4   12      2.96      0.00
    3    4   12      1.36      0.00
    4    4   12     -0.77      0.00
    0    5   12      1.95      0.00
    1    5   12     -3.85      0.00
    2    5   12     -1.12      0.00
    3    5   12      1.81      0.00
    4    5   12     -0.21      0.00
    5    5   12      0.52      0.00
    0    6   12      3.08      0.00
    1    6   12      1.85      0.00
    2    6   12     -1.88      0.00
    3    6   12     -0.86      0.00
    4    6   12     -0.89      0.00
    5    6   12      0.06      0.00
    6    6   12      2.48      0.00
    0    7   12      0.10      0.00
    1    7   12      2.70      0.00
    2    7   12     -0.42      0.00
    3    7   12     -0.82      0.00
    4    7   12      0.65      0.00
    5    7   12     -1.48      0.00
    6    7   12     -0.27      0.00
    7    7   12      2.15      0.00
    0    8   12     -1.41      0.00
    1    8   12      0.77      0.00
    2    8   12      0.70      0.00
    3    8   12     -1.07      0.00
    4    8   12      0.76      0.00
    5    8   12      1.09      0.00
    6    8   12     -1.85      0.00
    7    8   12     -0.69      0.00
    8    8   12      1.56      0.00
    0    9   12     -1.43      0.00
    1    9   12     -0.68      0.00
    2    9   12      1.52      0.00
    3    9   12      0.05      0.00
    4    9   12     -1.55      0.00
    5    9   12      0.77      0.00
    6    9   12      0.86      0.00
    7    9   12     -1.10      0.00
    8    9   12      0.02      0.00
    9    9   12      0.44      0.00
    0   10   12     -0.43      0.00
    1   10   12     -1.78      0.00
    2   10   12      0.23      0.00
    3   10   12      1.95      0.00
    4   10   12     -0.08      0.00
    5   10   12     -1.77      0.00
    6   10   12      0.26      0.00
    7   10   12      1.17      0.00
    8   10   12     -0.27      0.00
    9   10   12     -0.69      0.00
   10   10   12      0.23      0.00
    0   11   12      1.45      0.00
    1   11   12     -1.35      0.00
    2   11   12     -1.71      0.00
    3   11   12      0.65      0.00
    4   11   12      1.71      0.00
    5   11   12     -0.03      0.00
    6   11   12     -1.11      0.00
    7   11   12     -0.30      0.00
    8   11   12      0.29      0.00
    9   11   12      0.17      0.00
   10   11   12      0.24      0.00
   11   11   12      0.09      0.00
    0   12   12      1.80      0.00
    1   12   12      1.48      0.00
    2   12   12     -1.23      0.00
    3   12   12     -1.58      0.00
    4   12   12      0.19      0.00
    5   12   12      1.21      0.00
    6   12   12      0.48      0.00
    7   12   12     -0.85      0.00
    8   12   12     -0.30      0.00
    9   12   12      0.59      0.00
   10   12   12     -0.01      0.00
   11   12   12     -0.47      0.00
   12   12   12      0.35      0.00
    0   13   12     -1.44      0.00
    1   13   12      2.20      0.00
    2   13   12      1.49      0.00
    3   13   12     -1.25      0.00
    4   13   12     -1.31      0.00
    5   13   12      0.06      0.00
    6   13   12      0.69      0.00
    7   13   12      0.42      0.00
    8   13   12     -0.15      0.00
    9   13   12     -0.21      0.00
   10   13   12     -0.12      0.00
   11   13   12     -0.32      0.00
   12   13   12      0.21      0.00
   13   13   12      0.48      0.00
    0   14   12     -1.67      0.00
    1   14   12     -0.83      0.00
    2   14   12      1.39      0.00
    3   14   12      0.65      0.00
    4   14   12     -0.67      0.00
    5   14   12     -0.33      0.00
    6   14   12      0.12      0.00
    7   14   12     -0.01      0.00
    8   14   12      0.10      0.00
    9   14   12     -0.15      0.00
   10   14   12      0.16      0.00
   11   14   12      0.23      0.00
   12   14   12     -0.17      0.00
   13   14   12     -0.22      0.00
   14   14   12      0.22      0.00
    0   15   12      0.88      0.00
    1   15   12     -0.98      0.00
    2   15   12     -0.82      0.00
    3   15   12      0.80      0.00
    4   15   12      0.59      0.00
    5   15   12     -0.48      0.00
    6   15   12     -0.12      0.00
    7   15   12      0.17      0.00
    8   15   12     -0.12      0.00
    9   15   12     -0.18      0.00
   10   15   12      0.12      0.00
   11   15   12      0.25      0.00
   12   15   12     -0.11      0.00
   13   15   12     -0.21      0.00
    0   16   12     -0.07      0.00
    1   16   12      0.02      0.00
    2   16   12     -0.16      0.00
    3   16   12      0.03      0.00
    4   16   12      0.52      0.00
    5   16   12     -0.29      0.00
    6   16   12     -0.51      0.00
    7   16   12      0.36      0.00
    8   16   12      0.40      0.00
    9   16   12     -0.23      0.00
   10   16   12     -0.16      0.00
   11   16   12     -0.08      0.00
   12   16   12      0.18      0.00
    0   17   12      0.09      0.00
    1   17   12     -0.99      0.00
    2   17   12      0.00      0.00
    3   17   12      0.25      0.00
    4   17   12      0.06      0.00
    5   17   12      0.33      0.00
    6   17   12     -0.14      0.00
    7   17   12     -0.48      0.00
    8   17   12      0.23      0.00
    9   17   12      0.24      0.00
   10   17   12     -0.05      0.00
   11   17   12     -0.01      0.00
    0   18   12      1.28      0.00
    1   18   12      0.21      0.00
    2   18   12     -0.86      0.00
    3   18   12     -0.23      0.00
    4   18   12      0.11      0.00
    5   18   12      0.24      0.00
    6   18   12      0.27      0.00
    7   18   12     -0.38      0.00
    8   18   12     -0.26      0.00
    9   18   12      0.20      0.00
    0   19   12     -0.18      0.00
    1   19   12      1.28      0.00
    2   19   12      0.23      0.00
    3   19   12     -0.58      0.00
    4   19   12     -0.11      0.00
    5   19   12     -0.05      0.00
    6   19   12      0.19      0.00
    7   19   12      0.14      0.00
    0   20   12     -0.71      0.00
    1   20   12      0.09      0.00
    2   20   12      0.49      0.00
    3   20   12     -0.04      0.00
    1    1   13      0.42      0.00
    1    2   13      0.13      0.00
    2    2   13      1.37      0.00
    1    3   13     -0.64      0.00
    2    3   13      0.20      0.00
    3    3   13      1.46      0.00
    1    4   13     -0.50      0.00
    2    4   13     -1.46      0.00
    3    4   13      0.61      0.00
    4    4   13      1.51      0.00
    1    5   13      0.48      0.00
    2    5   13     -1.00      0.00
    3    5   13     -0.91      0.00
    4    5   13      0.53      0.00
    5    5   13      0.78      0.00
    1    6   13      0.81      0.00
    2    6   13      0.54      0.00
    3    6   13     -1.37      0.00
    4    6   13     -0.41      0.00
    5    6   13      0.67      0.00
    6    6   13     -0.22      0.00
    1    7   13      0.03      0.00
    2    7   13      1.28      0.00
    3    7   13      0.09      0.00
    4    7   13     -1.24      0.00
    5    7   13     -0.15      0.00
    6    7   13      0.35      0.00
    7    7   13      0.03      0.00
    1    8   13     -0.59      0.00
    2    8   13      0.19      0.00
    3    8   13      1.41      0.00
    4    8   13     -0.46      0.00
    5    8   13     -1.11      0.00
    6    8   13      0.70      0.00
    7    8   13      0.42      0.00
    8    8   13     -0.59      0.00
    1    9   13     -0.13      0.00
    2    9   13     -0.90      0.00
    3    9   13      0.36      0.00
    4    9   13      1.20      0.00
    5    9   13     -0.38      0.00
    6    9   13     -0.69      0.00
    7    9   13      0.32      0.00
    8    9   13      0.23      0.00
    9    9   13     -0.59      0.00
    1   10   13      0.43      0.00
    2   10   13     -0.07      0.00
    3   10   13     -0.95      0.00
    4   10   13      0.40      0.00
    5   10   13      0.99      0.00
    6   10   13     -0.54      0.00
    7   10   13     -0.46      0.00
    8   10   13      0.44      0.00
    9   10   13      0.06      0.00
   10   10   13     -0.12      0.00
    1   11   13     -0.05      0.00
    2   11   13      0.49      0.00
    3   11   13     -0.07      0.00
    4   11   13     -0.71      0.00
    5   11   13      0.40      0.00
    6   11   13      0.74      0.00
    7   11   13     -0.70      0.00
    8   11   13     -0.42      0.00
    9   11   13      0.71      0.00
   10   11   13      0.22      0.00
   11   11   13     -0.65      0.00
    1   12   13     -0.17      0.00
    2   12   13     -0.63      0.00
    3   12   13      0.45      0.00
    4   12   13      0.48      0.00
    5   12   13     -0.48      0.00
    6   12   13      0.07      0.00
    7   12   13      0.36      0.00
    8   12   13     -0.20      0.00
    9   12   13     -0.18      0.00
   10   12   13     -0.03      0.00
   11   12   13      0.16      0.00
   12   12   13      0.50      0.00
    1   13   13      0.41      0.00
    2   13   13      0.08      0.00
    3   13   13     -0.69      0.00
    4   13   13      0.15      0.00
    5   13   13      0.15      0.00
    6   13   13     -0.42      0.00
    7   13   13      0.30      0.00
    8   13   13      0.62      0.00
    9   13   13     -0.51      0.00
   10   13   13     -0.25      0.00
   11   13   13      0.14      0.00
   12   13   13     -0.07      0.00
   13   13   13      0.17      0.00
    1   14   13     -0.14      0.00
    2   14   13      1.26      0.00
    3   14   13      0.23      0.00
    4   14   13     -1.24      0.00
    5   14   13     -0.05      0.00
    6   14   13      0.49      0.00
    7   14   13     -0.30      0.00
    8   14   13      0.04      0.00
    9   14   13      0.41      0.00
   10   14   13      0.13      0.00
   11   14   13     -0.40      0.00
   12   14   13     -0.65      0.00
   13   14   13      0.39      0.00
   14   14   13      0.75      0.00
    1   15   13     -0.56      0.00
    2   15   13     -0.47      0.00
    3   15   13      1.09      0.00
    4   15   13      0.43      0.00
    5   15   13     -0.83      0.00
    6   15   13      0.23      0.00
    7   15   13      0.35      0.00
    8   15   13     -0.42      0.00
    9   15   13     -0.22      0.00
   10   15   13      0.25      0.00
   11   15   13      0.19      0.00
   12   15   13      0.07      0.00
   13   15   13     -0.24      0.00
    1   16   13      0.21      0.00
    2   16   13     -1.07      0.00
    3   16   13     -0.49      0.00
    4   16   13      1.12      0.00
    5   16   13      0.14      0.00
    6   16   13     -0.47      0.00
    7   16   13      0.24      0.00
    8   16   13      0.05      0.00
    9   16   13     -0.36      0.00
   10   16   13     -0.11      0.00
   11   16   13      0.32      0.00
    1   17   13      0.30      0.00
    2   17   13      0.41      0.00
    3   17   13     -0.65      0.00
    4   17   13     -0.31      0.00
    5   17   13      0.67      0.00
    6   17   13      0.00      0.00
    7   17   13     -0.66      0.00
    8   17   13      0.19      0.00
    9   17   13      0.52      0.00
   10   17   13      0.08      0.00
    1   18   13     -0.09      0.00
    2   18   13      0.29      0.00
    3   18   13      0.03      0.00
    4   18   13     -0.22      0.00
    5   18   13      0.02      0.00
    6   18   13      0.04      0.00
    7   18   13     -0.21      0.00
    8   18   13      0.03      0.00
    1   19   13      0.03      0.00
    2   19   13     -0.07      0.00
    3   19   13      0.04      0.00
    4   19   13      0.15      0.00
    5   19   13     -0.18      0.00
    0    0   14      1.78      0.00
    0    1   14      0.09      0.00
    1    1   14      1.31      0.00
    0    2   14     -0.25      0.00
    1    2   14      0.55      0.00
    2    2   14     -0.78      0.00
    0    3   14     -1.39      0.00
    1    3   14      1.73      0.00
    2    3   14      0.76      0.00
    3    3   14     -2.65      0.00
    0    4   14     -2.49      0.00
    1    4   14     -0.99      0.00
    2    4   14      2.25      0.00
    3    4   14     -0.05      0.00
    4    4   14     -1.56      0.00
    0    5   14      1.28      0.00
    1    5   14     -3.98      0.00
    2    5   14     -1.14      0.00
    3    5   14      2.79      0.00
    4    5   14      0.60      0.00
    5    5   14     -0.75      0.00
    0    6   14      3.26      0.00
    1    6   14     -0.16      0.00
    2    6   14     -2.51      0.00
    3    6   14      0.28      0.00
    4    6   14      0.53      0.00
    5    6   14     -0.48      0.00
    6    6   14      1.08      0.00
    0    7   14      0.20      0.00
    1    7   14      3.32      0.00
    2    7   14     -0.17      0.00
    3    7   14     -1.67      0.00
    4    7   14      0.03      0.00
    5    7   14     -0.72      0.00
    6    7   14     -0.09      0.00
    7    7   14      2.07      0.00
    0    8   14     -2.00      0.00
    1    8   14      1.38      0.00
    2    8   14      1.45      0.00
    3    8   14     -1.17      0.00
    4    8   14     -0.11      0.00
    5    8   14      0.88      0.00
    6    8   14     -1.13      0.00
    7    8   14     -0.48      0.00
    8    8   14      1.17      0.00
    0    9   14     -1.39      0.00
    1    9   14     -1.03      0.00
    2    9   14      1.32      0.00
    3    9   14      0.42      0.00
    4    9   14     -1.37      0.00
    5    9   14      0.76      0.00
    6    9   14      1.03      0.00
    7    9   14     -1.61      0.00
    8    9   14     -0.37      0.00
    9    9   14      1.32      0.00
    0   10   14     -0.17      0.00
    1   10   14     -1.48      0.00
    2   10   14     -0.01      0.00
    3   10   14      1.46      0.00
    4   10   14      0.04      0.00
    5   10   14     -1.41      0.00
    6   10   14      0.27      0.00
    7   10   14      0.90      0.00
    8   10   14     -0.26      0.00
    9   10   14     -0.39      0.00
   10   10   14      0.03      0.00
    0   11   14      1.45      0.00
    1   11   14     -1.03      0.00
    2   11   14     -1.64      0.00
    3   11   14      0.44      0.00
    4   11   14      1.71      0.00
    5   11   14     -0.20      0.00
    6   11   14     -1.35      0.00
    7   11   14      0.39      0.00
    8   11   14      0.61      0.00
    9   11   14     -0.62      0.00
   10   11   14     -0.13      0.00
   11   11   14      0.53      0.00
    0   12   14      1.91      0.00
    1   12   14      0.93      0.00
    2   12   14     -1.35      0.00
    3   12   14     -1.06      0.00
    4   12   14      0.36      0.00
    5   12   14      0.87      0.00
    6   12   14      0.21      0.00
    7   12   14     -0.68      0.00
    8   12   14     -0.21      0.00
    9   12   14      0.33      0.00
   10   12   14      0.20      0.00
   11   12   14     -0.13      0.00
   12   12   14     -0.14      0.00
    0   13   14     -1.08      0.00
    1   13   14      1.71      0.00
    2   13   14      1.09      0.00
    3   13   14     -0.78      0.00
    4   13   14     -0.88      0.00
    5   13   14     -0.08      0.00
    6   13   14      0.48      0.00
    7   13   14      0.16      0.00
    8   13   14     -0.24      0.00
    9   13   14      0.13      0.00
   10   13   14      0.19      0.00
   11   13   14     -0.33      0.00
   12   13   14     -0.17      0.00
   13   13   14      0.25      0.00
    0   14   14     -1.93      0.00
    1   14   14     -0.45      0.00
    2   14   14      1.52      0.00
    3   14   14      0.27      0.00
    4   14   14     -0.62      0.00
    5   14   14     -0.07      0.00
    6   14   14      0.05      0.00
    7   14   14     -0.16      0.00
    8   14   14      0.15      0.00
    9   14   14     -0.05      0.00
   10   14   14     -0.09      0.00
   11   14   14      0.01      0.00
   12   14   14      0.15      0.00
   13   14   14      0.04      0.00
    0   15   14      0.49      0.00
    1   15   14     -0.64      0.00
    2   15   14     -0.33      0.00
    3   15   14      0.33      0.00
    4   15   14      0.07      0.00
    5   15   14      0.01      0.00
    6   15   14      0.26      0.00
    7   15   14     -0.08      0.00
    8   15   14     -0.14      0.00
    9   15   14     -0.06      0.00
   10   15   14     -0.09      0.00
   11   15   14      0.13      0.00
   12   15   14      0.11      0.00
    0   16   14      0.24      0.00
    1   16   14      0.16      0.00
    2   16   14     -0.30      0.00
    3   16   14     -0.08      0.00
    4   16   14      0.30      0.00
    5   16   14     -0.29      0.00
    6   16   14     -0.16      0.00
    7   16   14      0.33      0.00
    8   16   14      0.14      0.00
    9   16   14     -0.21      0.00
   10   16   14     -0.03      0.00
    0   17   14      0.04      0.00
    1   17   14     -0.74      0.00
    2   17   14      0.09      0.00
    3   17   14      0.29      0.00
    4   17   14      0.06      0.00
    5   17   14      0.02      0.00
    6   17   14     -0.14      0.00
    7   17   14     -0.09      0.00
    8   17   14      0.16      0.00
    9   17   14      0.07      0.00
    0   18   14      0.89      0.00
    1   18   14     -0.18      0.00
    2   18   14     -0.61      0.00
    3   18   14      0.13      0.00
    4   18   14      0.14      0.00
    5   18   14      0.02      0.00
    6   18   14      0.03      0.00
    7   18   14     -0.26      0.00
    0   19   14      0.02      0.00
    1   19   14      0.73      0.00
    2   19   14      0.00      0.00
    3   19   14     -0.25      0.00
    1    1   15      0.68      0.00
    1    2   15      0.01      0.00
    2    2   15      2.39      0.00
    1    3   15     -1.44      0.00
    2    3   15      0.34      0.00
    3    3   15      2.97      0.00
    1    4   15     -0.17      0.00
    2    4   15     -2.72      0.00
    3    4   15      0.13      0.00
    4    4   15      3.02      0.00
    1    5   15      1.03      0.00
    2    5   15     -0.63      0.00
    3    5   15     -2.08      0.00
    4    5   15      0.36      0.00
    5    5   15      1.39      0.00
    1    6   15      0.24      0.00
    2    6   15      1.20      0.00
    3    6   15     -0.30      0.00
    4    6   15     -1.34      0.00
    5    6   15      0.24      0.00
    6    6   15      0.52      0.00
    1    7   15     -0.15      0.00
    2    7   15      0.34      0.00
    3    7   15      0.25      0.00
    4    7   15     -0.19      0.00
    5    7   15     -0.03      0.00
    6    7   15     -0.05      0.00
    7    7   15     -0.21      0.00
    1    8   15      0.12      0.00
    2    8   15      0.21      0.00
    3    8   15     -0.01      0.00
    4    8   15     -0.37      0.00
    5    8   15     -0.16      0.00
    6    8   15      0.32      0.00
    7    8   15      0.24      0.00
    8    8   15     -0.22      0.00
    1    9   15     -0.25      0.00
    2    9   15      0.14      0.00
    3    9   15      0.68      0.00
    4    9   15      0.06      0.00
    5    9   15     -0.71      0.00
    6    9   15     -0.06      0.00
    7    9   15      0.32      0.00
    8    9   15      0.17      0.00
    9    9   15      0.01      0.00
    1   10   15     -0.23      0.00
    2   10   15     -0.40      0.00
    3   10   15      0.34      0.00
    4   10   15      0.74      0.00
    5   10   15      0.05      0.00
    6   10   15     -0.68      0.00
    7   10   15     -0.02      0.00
    8   10   15      0.34      0.00
    9   10   15     -0.17      0.00
   10   10   15      0.01      0.00
    1   11   15      0.04      0.00
    2   11   15     -0.12      0.00
    3   11   15     -0.25      0.00
    4   11   15     -0.09      0.00
    5   11   15      0.46      0.00
    6   11   15      0.46      0.00
    7   11   15     -0.32      0.00
    8   11   15     -0.41      0.00
    9   11   15     -0.10      0.00
   10   11   15      0.48      0.00
   11   11   15      0.36      0.00
    1   12   15      0.26      0.00
    2   12   15     -0.33      0.00
    3   12   15     -0.39      0.00
    4   12   15     -0.03      0.00
    5   12   15      0.10      0.00
    6   12   15      0.55      0.00
    7   12   15      0.07      0.00
    8   12   15     -0.48      0.00
    9   12   15      0.04      0.00
   10   12   15     -0.08      0.00
   11   12   15     -0.15      0.00
   12   12   15      0.66      0.00
    1   13   15      0.42      0.00
    2   13   15      0.21      0.00
    3   13   15     -0.70      0.00
    4   13   15      0.15      0.00
    5   13   15      0.22      0.00
    6   13   15     -0.48      0.00
    7   13   15      0.10      0.00
    8   13   15      0.74      0.00
    9   13   15     -0.02      0.00
   10   13   15     -0.55      0.00
   11   13   15     -0.30      0.00
   12   13   15      0.34      0.00
   13   13   15      0.37      0.00
    1   14   15     -0.39      0.00
    2   14   15      0.99      0.00
    3   14   15      0.57      0.00
    4   14   15     -0.72      0.00
    5   14   15     -0.13      0.00
    6   14   15     -0.18      0.00
    7   14   15     -0.44      0.00
    8   14   15      0.49      0.00
    9   14   15      0.53      0.00
   10   14   15      0.00      0.00
   11   14   15     -0.20      0.00
   12   14   15     -0.65      0.00
    1   15   15     -0.58      0.00
    2   15   15     -0.37      0.00
    3   15   15      1.07      0.00
    4   15   15      0.20      0.00
    5   15   15     -0.61      0.00
    6   15   15      0.43      0.00
    7   15   15      0.01      0.00
    8   15   15     -0.57      0.00
    9   15   15      0.10      0.00
   10   15   15      0.47      0.00
   11   15   15      0.00      0.00
    1   16   15      0.34      0.00
    2   16   15     -0.94      0.00
    3   16   15     -0.67      0.00
    4   16   15      0.75      0.00
    5   16   15     -0.02      0.00
    6   16   15     -0.01      0.00
    7   16   15      0.64      0.00
    8   16   15     -0.33      0.00
    9   16   15     -0.69      0.00
    1   17   15      0.35      0.00
    2   17   15      0.38      0.00
    3   17   15     -0.58      0.00
    4   17   15     -0.25      0.00
    5   17   15      0.30      0.00
    6   17   15     -0.02      0.00
    7   17   15     -0.06      0.00
    8   17   15      0.19      0.00
    1   18   15     -0.25      0.00
    2   18   15      0.41      0.00
    3   18   15      0.24      0.00
    4   18   15     -0.31      0.00
    5   18   15      0.00      0.00
    0    0   16      3.57      0.00
    0    1   16     -0.38      0.00
    1    1   16      3.48      0.00
    0    2   16     -1.45      0.00
    1    2   16      0.30      0.00
    2    2   16      0.13      0.00
    0    3   16     -0.15      0.00
    1    3   16     -0.33      0.00
    2    3   16      0.15      0.00
    3    3   16     -0.78      0.00
    0    4   16     -2.17      0.00
    1    4   16      0.23      0.00
    2    4   16      2.33      0.00
    3    4   16     -0.34      0.00
    4    4   16     -2.09      0.00
    0    5   16     -0.20      0.00
    1    5   16     -2.42      0.00
    2    5   16     -0.20      0.00
    3    5   16      1.51      0.00
    4    5   16      0.34      0.00
    5    5   16     -0.05      0.00
    0    6   16      3.72      0.00
    1    6   16     -1.22      0.00
    2    6   16     -3.01      0.00
    3    6   16      0.50      0.00
    4    6   16      1.27      0.00
    5    6   16     -0.22      0.00
    6    6   16      0.43      0.00
    0    7   16      0.90      0.00
    1    7   16      2.55      0.00
    2    7   16     -0.53      0.00
    3    7   16     -1.15      0.00
    4    7   16      0.06      0.00
    5    7   16     -0.67      0.00
    6    7   16     -0.32      0.00
    7    7   16      1.64      0.00
    0    8   16     -2.23      0.00
    1    8   16      1.49      0.00
    2    8   16      1.71      0.00
    3    8   16     -0.87      0.00
    4    8   16     -0.40      0.00
    5    8   16      0.38      0.00
    6    8   16     -0.92      0.00
    7    8   16     -0.03      0.00
    8    8   16      1.33      0.00
    0    9   16     -0.98      0.00
    1    9   16     -0.77      0.00
    2    9   16      0.85      0.00
    3    9   16      0.44      0.00
    4    9   16     -1.00      0.00
    5    9   16      0.38      0.00
    6    9   16      1.12      0.00
    7    9   16     -1.17      0.00
    8    9   16     -0.81      0.00
    9    9   16      1.23      0.00
    0   10   16     -0.39      0.00
    1   10   16     -0.93      0.00
    2   10   16      0.23      0.00
    3   10   16      0.89      0.00
    4   10   16     -0.12      0.00
    5   10   16     -0.96      0.00
    6   10   16      0.42      0.00
    7   10   16      0.51      0.00
    8   10   16     -0.75      0.00
    9   10   16      0.04      0.00
   10   10   16      0.63      0.00
    0   11   16      0.25      0.00
    1   11   16     -0.87      0.00
    2   11   16     -0.50      0.00
    3   11   16      0.17      0.00
    4   11   16      0.98      0.00
    5   11   16      0.22      0.00
    6   11   16     -1.21      0.00
    7   11   16      0.15      0.00
    8   11   16      0.92      0.00
    9   11   16     -0.61      0.00
   10   11   16     -0.54      0.00
   11   11   16      0.50      0.00
    0   12   16      1.79      0.00
    1   12   16      0.27      0.00
    2   12   16     -1.27      0.00
    3   12   16     -0.53      0.00
    4   12   16      0.31      0.00
    5   12   16      0.50      0.00
    6   12   16      0.15      0.00
    7   12   16     -0.42      0.00
    8   12   16      0.05      0.00
    9   12   16      0.13      0.00
   10   12   16     -0.29      0.00
   11   12   16      0.05      0.00
   12   12   16      0.21      0.00
    0   13   16      0.36      0.00
    1   13   16      1.05      0.00
    2   13   16     -0.17      0.00
    3   13   16     -0.23      0.00
    4   13   16      0.03      0.00
    5   13   16     -0.43      0.00
    6   13   16      0.09      0.00
    7   13   16      0.39      0.00
    8   13   16     -0.35      0.00
    9   13   16     -0.01      0.00
   10   13   16      0.53      0.00
   11   13   16     -0.11      0.00
   12   13   16     -0.37      0.00
    0   14   16     -1.20      0.00
    1   14   16     -0.08      0.00
    2   14   16      0.84      0.00
    3   14   16     -0.07      0.00
    4   14   16     -0.13      0.00
    5   14   16      0.26      0.00
    6   14   16     -0.24      0.00
    7   14   16     -0.32      0.00
    8   14   16      0.17      0.00
    9   14   16     -0.11      0.00
   10   14   16      0.02      0.00
   11   14   16      0.14      0.00
    0   15   16     -0.32      0.00
    1   15   16     -0.14      0.00
    2   15   16      0.45      0.00
    3   15   16     -0.07      0.00
    4   15   16     -0.56      0.00
    5   15   16      0.31      0.00
    6   15   16      0.64      0.00
    7   15   16     -0.30      0.00
    8   15   16     -0.13      0.00
    9   15   16      0.21      0.00
   10   15   16     -0.34      0.00
    0   16   16     -0.11      0.00
    1   16   16      0.14      0.00
    2   16   16      0.07      0.00
    3   16   16      0.08      0.00
    4   16   16     -0.05      0.00
    5   16   16     -0.51      0.00
    6   16   16      0.06      0.00
    7   16   16      0.42      0.00
    8   16   16     -0.03      0.00
    0   17   16      0.15      0.00
    1   17   16     -0.44      0.00
    2   17   16     -0.03      0.00
    3   17   16      0.21      0.00
    4   17   16      0.23      0.00
    5   17   16     -0.04      0.00
    6   17   16     -0.25      0.00
    0   18   16      0.51      0.00
    1   18   16     -0.16      0.00
    2   18   16     -0.35      0.00
    1    1   17      0.61      0.00
    1    2   17     -0.03      0.00
    2    2   17      1.96      0.00
    1    3   17     -1.46      0.00
    2    3   17      0.35      0.00
    3    3   17      2.84      0.00
    1    4   17      0.01      0.00
    2    4   17     -2.13      0.00
    3    4   17     -0.15      0.00
    4    4   17      2.28      0.00
    1    5   17      0.94      0.00
    2    5   17     -0.38      0.00
    3    5   17     -2.02      0.00
    4    5   17      0.39      0.00
    5    5   17      1.41      0.00
    1    6   17     -0.09      0.00
    2    6   17      0.66      0.00
    3    6   17      0.35      0.00
    4    6   17     -0.90      0.00
    5    6   17     -0.27      0.00
    6    6   17      0.65      0.00
    1    7   17     -0.10      0.00
    2    7   17     -0.17      0.00
    3    7   17      0.16      0.00
    4    7   17      0.15      0.00
    5    7   17     -0.25      0.00
    6    7   17      0.10      0.00
    7    7   17      0.41      0.00
    1    8   17      0.48      0.00
    2    8   17      0.64      0.00
    3    8   17     -0.80      0.00
    4    8   17     -0.60      0.00
    5    8   17      0.51      0.00
    6    8   17     -0.18      0.00
    7    8   17     -0.07      0.00
    8    8   17      0.66      0.00
    1    9   17     -0.32      0.00
    2    9   17      0.74      0.00
    3    9   17      0.70      0.00
    4    9   17     -0.54      0.00
    5    9   17     -0.42      0.00
    6    9   17      0.25      0.00
    7    9   17     -0.40      0.00
    8    9   17     -0.05      0.00
    9    9   17      1.03      0.00
    1   10   17     -0.50      0.00
    2   10   17     -0.73      0.00
    3   10   17      0.84      0.00
    4   10   17      0.89      0.00
    5   10   17     -0.35      0.00
    6   10   17     -0.40      0.00
    7   10   17      0.06      0.00
    8   10   17     -0.34      0.00
    9   10   17      0.10      0.00
   10   10   17      0.62      0.00
    1   11   17      0.02      0.00
    2   11   17     -0.55      0.00
    3   11   17     -0.12      0.00
    4   11   17      0.46      0.00
    5   11   17      0.18      0.00
    6   11   17     -0.12      0.00
    7   11   17      0.22      0.00
    8   11   17      0.18      0.00
    9   11   17     -0.87      0.00
   10   11   17     -0.03      0.00
   11   11   17      1.21      0.00
    1   12   17      0.27      0.00
    2   12   17     -0.08      0.00
    3   12   17     -0.38      0.00
    4   12   17     -0.24      0.00
    5   12   17     -0.06      0.00
    6   12   17      0.54      0.00
    7   12   17      0.28      0.00
    8   12   17     -0.29      0.00
    9   12   17     -0.20      0.00
   10   12   17     -0.34      0.00
   11   12   17      0.08      0.00
   12   12   17      0.60      0.00
    1   13   17      0.42      0.00
    2   13   17      0.29      0.00
    3   13   17     -0.75      0.00
    4   13   17     -0.08      0.00
    5   13   17      0.32      0.00
    6   13   17     -0.03      0.00
    7   13   17      0.06      0.00
    8   13   17      0.12      0.00
    9   13   17      0.28      0.00
   10   13   17     -0.09      0.00
   11   13   17     -0.67      0.00
    1   14   17     -0.24      0.00
    2   14   17      0.55      0.00
    3   14   17      0.16      0.00
    4   14   17     -0.32      0.00
    5   14   17      0.30      0.00
    6   14   17     -0.41      0.00
    7   14   17     -0.64      0.00
    8   14   17      0.51      0.00
    9   14   17      0.53      0.00
   10   14   17     -0.04      0.00
    1   15   17     -0.44      0.00
    2   15   17     -0.22      0.00
    3   15   17      0.81      0.00
    4   15   17      0.10      0.00
    5   15   17     -0.29      0.00
    6   15   17      0.24      0.00
    7   15   17     -0.29      0.00
    8   15   17     -0.27      0.00
    9   15   17      0.28      0.00
    1   16   17      0.18      0.00
    2   16   17     -0.41      0.00
    3   16   17     -0.32      0.00
    4   16   17      0.21      0.00
    5   16   17     -0.26      0.00
    6   16   17      0.17      0.00
    7   16   17      0.65      0.00
    1   17   17      0.22      0.00
    2   17   17      0.17      0.00
    3   17   17     -0.31      0.00
    4   17   17     -0.04      0.00
    0    0   18      3.51      0.00
    0    1   18     -0.90      0.00
    1    1   18      1.90      0.00
    0    2   18     -1.93      0.00
    1    2   18      0.70      0.00
    2    2   18      1.11      0.00
    0    3   18      0.87      0.00
    1    3   18     -0.25      0.00
    2    3   18     -0.73      0.00
    3    3   18     -0.20      0.00
    0    4   18     -0.65      0.00
    1    4   18     -0.12      0.00
    2    4   18      0.87      0.00
    3    4   18      0.37      0.00
    4    4   18     -0.81      0.00
    0    5   18     -1.20      0.00
    1    5   18     -1.25      0.00
    2    5   18      0.70      0.00
    3    5   18      0.59      0.00
    4    5   18     -0.32      0.00
    5    5   18      0.23      0.00
    0    6   18      2.15      0.00
    1    6   18     -0.63      0.00
    2    6   18     -1.61      0.00
    3    6   18     -0.22      0.00
    4    6   18      0.57      0.00
    5    6   18      0.34      0.00
    6    6   18      0.53      0.00
    0    7   18      1.17      0.00
    1    7   18      1.21      0.00
    2    7   18     -0.67      0.00
    3    7   18     -0.44      0.00
    4    7   18      0.02      0.00
    5    7   18     -0.42      0.00
    6    7   18     -0.19      0.00
    7    7   18      0.88      0.00
    0    8   18     -1.23      0.00
    1    8   18      0.65      0.00
    2    8   18      0.93      0.00
    3    8   18     -0.10      0.00
    4    8   18     -0.10      0.00
    5    8   18     -0.18      0.00
    6    8   18     -0.87      0.00
    7    8   18      0.04      0.00
    8    8   18      1.35      0.00
    0    9   18     -0.22      0.00
    1    9   18      0.14      0.00
    2    9   18      0.09      0.00
    3    9   18      0.00      0.00
    4    9   18     -0.08      0.00
    5    9   18      0.11      0.00
    6    9   18      0.29      0.00
    7    9   18     -0.49      0.00
    8    9   18     -0.35      0.00
    9    9   18      0.69      0.00
    0   10   18     -0.39      0.00
    1   10   18      0.07      0.00
    2   10   18      0.25      0.00
    3   10   18      0.07      0.00
    4   10   18     -0.08      0.00
    5   10   18     -0.35      0.00
    6   10   18      0.35      0.00
    7   10   18      0.27      0.00
    8   10   18     -0.97      0.00
    9   10   18     -0.06      0.00
   10   10   18      0.94      0.00
    0   11   18     -1.01      0.00
    1   11   18     -1.14      0.00
    2   11   18      0.76      0.00
    3   11   18      0.35      0.00
    4   11   18     -0.19      0.00
    5   11   18      0.37      0.00
    6   11   18     -0.26      0.00
    7   11   18     -0.21      0.00
    8   11   18      0.39      0.00
    9   11   18     -0.24      0.00
   10   11   18     -0.28      0.00
   11   11   18      0.25      0.00
    0   12   18      0.80      0.00
    1   12   18     -0.61      0.00
    2   12   18     -0.46      0.00
    3   12   18      0.18      0.00
    4   12   18     -0.16      0.00
    5   12   18      0.05      0.00
    6   12   18      0.27      0.00
    7   12   18     -0.21      0.00
    8   12   18      0.10      0.00
    9   12   18      0.21      0.00
   10   12   18     -0.51      0.00
   11   12   18     -0.14      0.00
    0   13   18      1.33      0.00
    1   13   18      0.80      0.00
    2   13   18     -1.05      0.00
    3   13   18     -0.10      0.00
    4   13   18      0.74      0.00
    5   13   18     -0.47      0.00
    6   13   18     -0.40      0.00
    7   13   18      0.56      0.00
    8   13   18     -0.08      0.00
    9   13   18     -0.23      0.00
   10   13   18      0.32      0.00
    0   14   18     -0.03      0.00
    1   14   18      0.41      0.00
    2   14   18     -0.16      0.00
    3   14   18     -0.41      0.00
    4   14   18      0.41      0.00
    5   14   18      0.48      0.00
    6   14   18     -0.43      0.00
    7   14   18     -0.32      0.00
    8   14   18      0.19      0.00
    9   14   18     -0.23      0.00
    0   15   18     -0.64      0.00
    1   15   18      0.00      0.00
    2   15   18      0.73      0.00
    3   15   18     -0.19      0.00
    4   15   18     -0.78      0.00
    5   15   18      0.38      0.00
    6   15   18      0.74      0.00
    7   15   18     -0.38      0.00
    0   16   18     -0.37      0.00
    1   16   18     -0.07      0.00
    2   16   18      0.36      0.00
    3   16   18      0.30      0.00
    4   16   18     -0.28      0.00
    5   16   18     -0.58      0.00
    1    1   19      0.25      0.00
    1    2   19      0.04      0.00
    2    2   19      0.77      0.00
    1    3   19     -0.78      0.00
    2    3   19      0.08      0.00
    3    3   19      1.39      0.00
    1    4   19     -0.10      0.00
    2    4   19     -0.68      0.00
    3    4   19      0.16      0.00
    4    4   19      0.62      0.00
    1    5   19      0.38      0.00
    2    5   19     -0.07      0.00
    3    5   19     -1.05      0.00
    4    5   19      0.06      0.00
    5    5   19      0.92      0.00
    1    6   19      0.06      0.00
    2    6   19     -0.15      0.00
    3    6   19     -0.07      0.00
    4    6   19     -0.01      0.00
    5    6   19      0.03      0.00
    6    6   19      0.26      0.00
    1    7   19      0.04      0.00
    2    7   19     -0.30      0.00
    3    7   19     -0.02      0.00
    4    7   19      0.19      0.00
    5    7   19     -0.50      0.00
    6    7   19      0.09      0.00
    7    7   19      0.91      0.00
    1    8   19      0.22      0.00
    2    8   19      0.73      0.00
    3    8   19     -0.32      0.00
    4    8   19     -0.59      0.00
    5    8   19      0.13      0.00
    6    8   19     -0.39      0.00
    7    8   19     -0.02      0.00
    8    8   19      1.04      0.00
    1    9   19     -0.28      0.00
    2    9   19      0.73      0.00
    3    9   19      0.44      0.00
    4    9   19     -0.50      0.00
    5    9   19      0.04      0.00
    6    9   19      0.10      0.00
    7    9   19     -0.74      0.00
    8    9   19      0.01      0.00
    9    9   19      1.08      0.00
    1   10   19     -0.30      0.00
    2   10   19     -0.53      0.00
    3   10   19      0.39      0.00
    4   10   19      0.42      0.00
    5   10   19     -0.02      0.00
    6   10   19      0.15      0.00
    7   10   19     -0.12      0.00
    8   10   19     -0.88      0.00
    9   10   19      0.16      0.00
   10   10   19      1.03      0.00
    1   11   19      0.03      0.00
    2   11   19     -0.53      0.00
    3   11   19     -0.05      0.00
    4   11   19      0.42      0.00
    5   11   19      0.08      0.00
    6   11   19     -0.09      0.00
    7   11   19      0.18      0.00
    8   11   19      0.16      0.00
    9   11   19     -0.53      0.00
   10   11   19     -0.18      0.00
   11   11   19      0.78      0.00
    1   12   19      0.06      0.00
    2   12   19     -0.16      0.00
    3   12   19      0.02      0.00
    4   12   19      0.09      0.00
    5   12   19     -0.37      0.00
    6   12   19      0.00      0.00
    7   12   19      0.41      0.00
    8   12   19      0.18      0.00
    9   12   19     -0.21      0.00
   10   12   19     -0.60      0.00
    1   13   19      0.23      0.00
    2   13   19      0.17      0.00
    3   13   19     -0.38      0.00
    4   13   19     -0.05      0.00
    5   13   19      0.01      0.00
    6   13   19     -0.03      0.00
    7   13   19      0.39      0.00
    8   13   19     -0.06      0.00
    9   13   19     -0.03      0.00
    1   14   19      0.00      0.00
    2   14   19      0.33      0.00
    3   14   19     -0.25      0.00
    4   14   19     -0.31      0.00
    5   14   19      0.49      0.00
    6   14   19     -0.11      0.00
    7   14   19     -0.48      0.00
    1   15   19     -0.17      0.00
    2   15   19     -0.09      0.00
    3   15   19      0.29      0.00
    4   15   19     -0.01      0.00
    5   15   19      0.09      0.00
    0    0   20      1.49      0.00
    0    1   20      0.40      0.00
    1    1   20     -0.32      0.00
    0    2   20     -1.06      0.00
    1    2   20     -0.31      0.00
    2    2   20      1.07      0.00
    0    3   20     -0.23      0.00
    1    3   20      0.31      0.00
    2    3   20      0.15      0.00
    3    3   20     -0.13      0.00
    0    4   20      0.51      0.00
    1    4   20      0.18      0.00
    2    4   20     -0.42      0.00
    3    4   20      0.07      0.00
    4    4   20      0.51      0.00
    0    5   20     -0.22      0.00
    1    5   20     -0.39      0.00
    2    5   20     -0.01      0.00
    3    5   20      0.08      0.00
    4    5   20      0.04      0.00
    5    5   20      0.23      0.00
    0    6   20      0.25      0.00
    1    6   20     -0.10      0.00
    2    6   20      0.01      0.00
    3    6   20     -0.48      0.00
    4    6   20     -0.26      0.00
    5    6   20      0.37      0.00
    6    6   20      0.55      0.00
    0    7   20      0.36      0.00
    1    7   20      0.20      0.00
    2    7   20      0.05      0.00
    3    7   20      0.03      0.00
    4    7   20     -0.54      0.00
    5    7   20     -0.27      0.00
    6    7   20      0.28      0.00
    7    7   20      0.46      0.00
    0    8   20     -0.16      0.00
    1    8   20     -0.42      0.00
    2    8   20      0.14      0.00
    3    8   20      0.75      0.00
    4    8   20      0.12      0.00
    5    8   20     -0.70      0.00
    6    8   20     -0.48      0.00
    7    8   20      0.07      0.00
    8    8   20      0.66      0.00
    0    9   20      0.39      0.00
    1    9   20      0.39      0.00
    2    9   20     -0.53      0.00
    3    9   20     -0.19      0.00
    4    9   20      0.77      0.00
    5    9   20      0.13      0.00
    6    9   20     -0.63      0.00
    7    9   20     -0.23      0.00
    8    9   20      0.25      0.00
    9    9   20      0.35      0.00
    0   10   20     -0.06      0.00
    1   10   20      1.27      0.00
    2   10   20     -0.05      0.00
    3   10   20     -0.97      0.00
    4   10   20      0.19      0.00
    5   10   20      0.51      0.00
    6   10   20     -0.02      0.00
    7   10   20     -0.11      0.00
    8   10   20     -0.44      0.00
    9   10   20     -0.14      0.00
   10   10   20      0.38      0.00
    0   11   20     -1.11      0.00
    1   11   20     -0.67      0.00
    2   11   20      1.01      0.00
    3   11   20      0.22      0.00
    4   11   20     -0.74      0.00
    5   11   20      0.21      0.00
    6   11   20      0.52      0.00
    7   11   20     -0.14      0.00
    8   11   20     -0.25      0.00
    9   11   20     -0.04      0.00
   10   11   20      0.08      0.00
    0   12   20     -0.12      0.00
    1   12   20     -1.45      0.00
    2   12   20      0.29      0.00
    3   12   20      0.92      0.00
    4   12   20     -0.54      0.00
    5   12   20     -0.42      0.00
    6   12   20      0.39      0.00
    7   12   20      0.09      0.00
    8   12   20     -0.15      0.00
    9   12   20      0.12      0.00
    0   13   20      0.93      0.00
    1   13   20      0.40      0.00
    2   13   20     -0.76      0.00
    3   13   20      0.02      0.00
    4   13   20      0.63      0.00
    5   13   20     -0.27      0.00
    6   13   20     -0.50      0.00
    7   13   20      0.36      0.00
    0   14   20      0.38      0.00
    1   14   20      0.73      0.00
    2   14   20     -0.51      0.00
    3   14   20     -0.57      0.00
    4   14   20      0.53      0.00
    5   14   20      0.46      0.00
    0   15   20     -0.21      0.00
    1    1   21     -0.09      0.00
    1    2   21      0.07      0.00
    2    2   21     -0.05      0.00
    1    3   21     -0.01      0.00
    2    3   21     -0.03      0.00
    3    3   21     -0.20      0.00
    1    4   21     -0.20      0.00
    2    4   21      0.11      0.00
    3    4   21      0.36      0.00
    4    4   21     -0.10      0.00
    1    5   21     -0.23      0.00
    2    5   21     -0.05      0.00
    3    5   21      0.19      0.00
    4    5   21     -0.12      0.00
    5    5   21     -0.09      0.00
    1    6   21      0.23      0.00
    2    6   21     -0.27      0.00
    3    6   21     -0.51      0.00
    4    6   21      0.15      0.00
    5    6   21      0.37      0.00
    6    6   21      0.07      0.00
    1    7   21      0.24      0.00
    2    7   21     -0.10      0.00
    3    7   21     -0.44      0.00
    4    7   21      0.05      0.00
    5    7   21     -0.07      0.00
    6    7   21      0.01      0.00
    7    7   21      0.53      0.00
    1    8   21     -0.07      0.00
    2    8   21      0.31      0.00
    3    8   21      0.22      0.00
    4    8   21     -0.18      0.00
    5    8   21     -0.35      0.00
    6    8   21     -0.27      0.00
    7    8   21      0.11      0.00
    8    8   21      0.49      0.00
    1    9   21     -0.26      0.00
    2    9   21      0.32      0.00
    3    9   21      0.34      0.00
    4    9   21     -0.10      0.00
    5    9   21      0.09      0.00
    6    9   21     -0.23      0.00
    7    9   21     -0.50      0.00
    8    9   21      0.22      0.00
    9    9   21      0.62      0.00
    1   10   21     -0.09      0.00
    2   10   21     -0.09      0.00
    3   10   21     -0.02      0.00
    4   10   21     -0.08      0.00
    5   10   21      0.25      0.00
    6   10   21      0.24      0.00
    7   10   21     -0.20      0.00
    8   10   21     -0.45      0.00
    9   10   21     -0.06      0.00
    1   11   21      0.06      0.00
    2   11   21     -0.17      0.00
    3   11   21     -0.05      0.00
    4   11   21     -0.05      0.00
    5   11   21      0.01      0.00
    6   11   21      0.34      0.00
    7   11   21      0.12      0.00
    8   11   21     -0.27      0.00
    1   12   21     -0.03      0.00
    2   12   21     -0.21      0.00
    3   12   21      0.11      0.00
    4   12   21      0.25      0.00
    5   12   21     -0.30      0.00
    6   12   21     -0.14      0.00
    7   12   21      0.21      0.00
    1   13   21      0.06      0.00
    2   13   21     -0.08      0.00
    3   13   21     -0.06      0.00
    4   13   21      0.21      0.00
    5   13   21     -0.09      0.00
    0    0   22     -1.55      0.00
    0    1   22      0.54      0.00
    1    1   22     -0.38      0.00
    0    2   22      1.07      0.00
    1    2   22     -0.27      0.00
    2    2   22     -0.50      0.00
    0    3   22     -0.67      0.00
    1    3   22     -0.36      0.00
    2    3   22      0.44      0.00
    3    3   22      0.62      0.00
    0    4   22     -0.01      0.00
    1    4   22     -0.14      0.00
    2    4   22     -0.04      0.00
    3    4   22      0.06      0.00
    4    4   22      0.33      0.00
    0    5   22      0.48      0.00
    1    5   22      0.61      0.00
    2    5   22     -0.46      0.00
    3    5   22     -0.56      0.00
    4    5   22      0.26      0.00
    5    5   22      0.45      0.00
    0    6   22     -0.15      0.00
    1    6   22      0.36      0.00
    2    6   22      0.25      0.00
    3    6   22     -0.60      0.00
    4    6   22     -0.21      0.00
    5    6   22      0.37      0.00
    6    6   22      0.29      0.00
    0    7   22     -0.23      0.00
    1    7   22     -0.14      0.00
    2    7   22      0.51      0.00
    3    7   22      0.16      0.00
    4    7   22     -0.71      0.00
    5    7   22     -0.27      0.00
    6    7   22      0.35      0.00
    7    7   22      0.36      0.00
    0    8   22      0.04      0.00
    1    8   22     -0.82      0.00
    2    8   22      0.04      0.00
    3    8   22      1.05      0.00
    4    8   22      0.04      0.00
    5    8   22     -0.87      0.00
    6    8   22     -0.13      0.00
    7    8   22      0.24      0.00
    8    8   22      0.03      0.00
    0    9   22      0.54      0.00
    1    9   22     -0.37      0.00
    2    9   22     -0.65      0.00
    3    9   22      0.23      0.00
    4    9   22      0.87      0.00
    5    9   22      0.05      0.00
    6    9   22     -0.67      0.00
    7    9   22     -0.11      0.00
    8    9   22      0.26      0.00
    9    9   22      0.07      0.00
    0   10   22      0.20      0.00
    1   10   22      1.36      0.00
    2   10   22     -0.23      0.00
    3   10   22     -1.15      0.00
    4   10   22      0.23      0.00
    5   10   22      0.80      0.00
    6   10   22     -0.20      0.00
    7   10   22     -0.33      0.00
    0   11   22     -0.66      0.00
    1   11   22      0.53      0.00
    2   11   22      0.63      0.00
    3   11   22     -0.38      0.00
    4   11   22     -0.50      0.00
    5   11   22      0.19      0.00
    6   11   22      0.43      0.00
    0   12   22     -0.24      0.00
    1   12   22     -1.22      0.00
    2   12   22      0.29      0.00
    3   12   22      0.84      0.00
    4   12   22     -0.36      0.00
    1    1   23     -0.21      0.00
    1    2   23     -0.02      0.00
    2    2   23     -0.42      0.00
    1    3   23      0.30      0.00
    2    3   23      0.16      0.00
    3    3   23     -0.74      0.00
    1    4   23     -0.10      0.00
    2    4   23      0.40      0.00
    3    4   23      0.01      0.00
    4    4   23     -0.34      0.00
    1    5   23     -0.36      0.00
    2    5   23     -0.35      0.00
    3    5   23      0.58      0.00
    4    5   23      0.21      0.00
    5    5   23     -0.54      0.00
    1    6   23      0.10      0.00
    2    6   23     -0.19      0.00
    3    6   23     -0.21      0.00
    4    6   23      0.19      0.00
    5    6   23      0.04      0.00
    6    6   23     -0.19      0.00
    1    7   23      0.21      0.00
    2    7   23      0.25      0.00
    3    7   23     -0.50      0.00
    4    7   23     -0.27      0.00
    5    7   23      0.32      0.00
    6    7   23      0.05      0.00
    7    7   23     -0.07      0.00
    1    8   23     -0.05      0.00
    2    8   23      0.07      0.00
    3    8   23      0.08      0.00
    4    8   23     -0.12      0.00
    5    8   23     -0.22      0.00
    6    8   23      0.16      0.00
    7    8   23      0.14      0.00
    8    8   23     -0.24      0.00
    1    9   23     -0.15      0.00
    2    9   23     -0.10      0.00
    3    9   23      0.24      0.00
    4    9   23      0.18      0.00
    5    9   23     -0.09      0.00
    6    9   23     -0.24      0.00
    1   10   23     -0.04      0.00
    2   10   23      0.03      0.00
    3   10   23     -0.06      0.00
    4   10   23     -0.03      0.00
    5   10   23      0.23      0.00
    1   11   23      0.00      0.00
    2   11   23      0.10      0.00
    0    0   24     -1.52      0.00
    0    1   24     -0.55      0.00
    1    1   24     -0.99      0.00
    0    2   24      0.88      0.00
    1    2   24      0.80      0.00
    2    2   24     -0.40      0.00
    0    3   24      0.12      0.00
    1    3   24      0.02      0.00
    2    3   24     -0.29      0.00
    3    3   24      0.22      0.00
    0    4   24      0.24      0.00
    1    4   24     -0.96      0.00
    2    4   24     -0.18      0.00
    3    4   24      0.60      0.00
    4    4   24      0.25      0.00
    0    5   24      0.15      0.00
    1    5   24      0.43      0.00
    2    5   24     -0.05      0.00
    3    5   24     -0.25      0.00
    4    5   24     -0.06      0.00
    5    5   24      0.15      0.00
    0    6   24     -0.31      0.00
    1    6   24      0.67      0.00
    2    6   24      0.26      0.00
    3    6   24     -0.62      0.00
    4    6   24     -0.14      0.00
    5    6   24      0.38      0.00
    6    6   24      0.24      0.00
    0    7   24     -0.15      0.00
    1    7   24      0.15      0.00
    2    7   24      0.31      0.00
    3    7   24     -0.14      0.00
    4    7   24     -0.29      0.00
    5    7   24     -0.08      0.00
    6    7   24      0.09      0.00
    0    8   24     -0.13      0.00
    1    8   24     -0.35      0.00
    2    8   24      0.16      0.00
    3    8   24      0.57      0.00
    4    8   24     -0.01      0.00
    5    8   24     -0.44      0.00
    0    9   24      0.37      0.00
    1    9   24     -0.84      0.00
    2    9   24     -0.40      0.00
    3    9   24      0.53      0.00
    1    1   25     -0.14      0.00
    1    2   25     -0.02      0.00
    2    2   25     -0.54      0.00
    1    3   25      0.21      0.00
    2    3   25      0.08      0.00
    3    3   25     -0.39      0.00
    1    4   25     -0.05      0.00
    2    4   25      0.57      0.00
    3    4   25     -0.08      0.00
    4    4   25     -0.64      0.00
    1    5   25     -0.11      0.00
    2    5   25     -0.23      0.00
    3    5   25      0.18      0.00
    4    5   25      0.13      0.00
    5    5   25     -0.18      0.00
    1    6   25      0.00      0.00
    2    6   25     -0.30      0.00
    3    6   25     -0.01      0.00
    4    6   25      0.47      0.00
    1    7   25     -0.02      0.00
    2    7   25      0.19      0.00
    3    7   25     -0.08      0.00
    0    0   26     -0.13      0.00
    0    1   26      0.21      0.00
    1    1   26     -1.35      0.00
    0    2   26     -0.29      0.00
    1    2   26      0.02      0.00
    2    2   26      0.45      0.00
    0    3   26     -0.32      0.00
    1    3   26      0.60      0.00
    2    3   26      0.19      0.00
    3    3   26     -0.44      0.00
    0    4   26      0.78      0.00
    1    4   26     -0.27      0.00
    2    4   26     -0.63      0.00
    1    1    0    101.83      0.00
   13   19    0      0.42      0.00
    9   21    0      0.41      0.00
    1    1    1      7.68      0.00
   13   19    1      0.21      0.00
   11   20    1     -0.13      0.00
    9   21    1      0.11      0.00
    7   22    1      0.02      0.00
    0    0    2    105.30      0.00
   14   18    2     -0.09      0.00
   13   19    2      0.37      0.00
   11   20    2      0.03      0.00
    9   21    2      0.32      0.00
    6   22    2      0.78      0.00
    7   22    2     -0.20      0.00
   14   18    3      0.20      0.00
   13   19    3     -0.04      0.00
   11   20    3     -0.16      0.00
    9   21    3      0.28      0.00
    6   22    3     -0.18      0.00
    0    0    4     50.43      0.00
   16   16    4      0.10      0.00
   15   17    4      0.07      0.00
   14   18    4     -0.17      0.00
   11   20    4      0.12      0.00
    9   21    4      0.21      0.00
    6   22    4      0.64      0.00
   16   16    5      0.44      0.00
   15   17    5     -0.33      0.00
   12   19    5     -0.25      0.00
    8   21    5      0.13      0.00
    5   22    5     -0.14      0.00
   12   19    6     -0.30      0.00
   10   20    6      0.13      0.00
    8   21    6      0.40      0.00
    4   22    6     -0.20      0.00
    5   22    6      0.18      0.00
   14   17    7     -0.13      0.00
   13   18    7      0.22      0.00
   10   20    7     -0.51      0.00
    7   21    7     -0.54      0.00
    2   22    7     -0.39      0.00
    3   22    7     -0.25      0.00
    4   22    7      0.23      0.00
   15   16    8      0.00      0.00
   14   17    8      0.33      0.00
   11   19    8     -0.04      0.00
    9   20    8     -0.41      0.00
    6   21    8     -0.25      0.00
    0   22    8      0.07      0.00
    1   22    8      0.13      0.00
    2   22    8     -0.14      0.00
   12   18    9     -0.17      0.00
    8   20    9      0.90      0.00
    5   21    9     -0.27      0.00
   15   15   10      0.45      0.00
   14   16   10     -0.42      0.00
   13   17   10     -0.02      0.00
   10   19   10      0.05      0.00
    7   20   10      0.26      0.00
    3   21   10      0.29      0.00
    4   21   10      0.07      0.00
   12   17   11      0.11      0.00
   11   18   11      0.00      0.00
    9   19   11     -0.64      0.00
    6   20   11      0.11      0.00
    1   21   11     -0.11      0.00
    2   21   11     -0.18      0.00
   14   15   12      0.09      0.00
   13   16   12      0.09      0.00
   10   18   12      0.20      0.00
    8   19   12     -0.15      0.00
    4   20   12     -0.23      0.00
    5   20   12     -0.11      0.00
   12   16   13      0.36      0.00
   11   17   13     -0.31      0.00
    9   18   13      0.06      0.00
    6   19   13      0.01      0.00
    7   19   13      0.36      0.00
    1   20   13     -0.14      0.00
    2   20   13      0.13      0.00
    3   20   13      0.10      0.00
   11   16   14     -0.02      0.00
   10   17   14      0.00      0.00
    8   18   14     -0.06      0.00
    4   19   14      0.19      0.00
    5   19   14     -0.06      0.00
   13   14   15     -0.08      0.00
   12   15   15     -0.16      0.00
   10   16   15      0.09      0.00
    9   17   15     -0.08      0.00
    6   18   15      0.01      0.00
    1   19   15      0.00      0.00
    2   19   15     -0.10      0.00
    3   19   15      0.02      0.00
   13   13   16      0.01      0.00
   12   14   16     -0.15      0.00
   11   15   16     -0.08      0.00
    9   16   16     -0.08      0.00
    7   17   16      0.09      0.00
    3   18   16      0.04      0.00
    4   18   16      0.01      0.00
   12   13   17      0.17      0.00
   11   14   17     -0.11      0.00
    8   16   17     -0.31      0.00
    5   17   17      0.01      0.00
   12   12   18      0.32      0.00
   11   13   18      0.03      0.00
   10   14   18      0.01      0.00
    8   15   18     -0.19      0.00
    6   16   18      0.13      0.00
    0   17   18      0.16      0.00
    1   17   18     -0.10      0.00
    2   17   18     -0.15      0.00
   11   12   19      0.14      0.00
   10   13   19      0.17      0.00
    8   14   19      0.14      0.00
    6   15   19      0.14      0.00
    1   16   19     -0.01      0.00
    2   16   19     -0.07      0.00
    3   16   19      0.06      0.00
    8   13   20      0.24      0.00
    6   14   20     -0.43      0.00
    1   15   20     -0.13      0.00
    2   15   20      0.32      0.00
    3   15   20     -0.09      0.00
   10   10   21      0.39      0.00
    9   11   21     -0.12      0.00
    8   12   21      0.03      0.00
    6   13   21     -0.32      0.00
    1   14   21      0.05      0.00
    2   14   21      0.19      0.00
    3   14   21     -0.18      0.00
    8   10   22      0.10      0.00
    7   11   22     -0.06      0.00
    5   12   22     -0.41      0.00
    0   13   22      0.26      0.00
    1   13   22     -0.25      0.00
    2   13   22     -0.18      0.00
    3   13   22      0.25      0.00
    7    9   23     -0.09      0.00
    8    9   23      0.01      0.00
    6   10   23     -0.10      0.00
    3   11   23      0.03      0.00
    4   11   23     -0.26      0.00
    1   12   23     -0.02      0.00
    7    7   24      0.21      0.00
    6    8   24     -0.13      0.00
    4    9   24      0.41      0.00
    5    9   24     -0.10      0.00
    0   10   24      0.38      0.00
    1   10   24      0.28      0.00
    2   10   24     -0.29      0.00
    3   10   24     -0.31      0.00
    5    6   25     -0.10      0.00
    6    6   25     -0.43      0.00
    4    7   25     -0.15      0.00
    5    7   25      0.16      0.00
    1    8   25     -0.04      0.00
    2    8   25      0.15      0.00
    3    8   25     -0.01      0.00
    3    4   26      0.13      0.00
    4    4   26      0.38      0.00
    0    5   26      0.37      0.00
    1    5   26     -0.09      0.00
    2    5   26     -0.21      0.00
    3    5   26      0.25      0.00
    0    6   26     -0.46      0.00
    0    0    0      0.00      0.00
loop_
  _platon_squeeze_void_nr
  _platon_squeeze_void_average_x
  _platon_squeeze_void_average_y
  _platon_squeeze_void_average_z
  _platon_squeeze_void_volume
  _platon_squeeze_void_count_electrons
  _platon_squeeze_void_content
   1  0.250  0.750  0.000       228        32 ' '
   2  0.250  0.750  0.500       228        32 ' '
   3  0.250  0.250  0.919        35         2 ' '
   4  0.250  0.250  0.419        35         2 ' '
   5  0.750  0.250  0.000       228        32 ' '
   6  0.750  0.250  0.500       228        32 ' '
   7  0.750  0.750  0.081        35         2 ' '
   8  0.750  0.750  0.581        35         2 ' '
_platon_squeeze_details
TITL mn2180s   P 42/n c m   R = 0.10
CELL   16.8655   16.8655   19.6001     90.00     90.00     90.00
SPGR P42/ncm
C101 0.673 0.328-0.001 !       3.17 eA-3
C102 0.297 0.750 0.963 !       1.74 eA-3
C103 0.324 0.768 0.442 !       1.52 eA-3
C104 0.684 0.313 0.503 !       1.14 eA-3
Q105 0.203 0.205 0.750 !       0.70 eA-3
Q106 0.315 0.230 0.763 !       0.57 eA-3
Q107 0.785 0.860 0.239 !       0.56 eA-3
;
_shelx_fab_checksum              396
#END Tags that were not found in dictionaries
loop_
_space_group_symop_operation_xyz
'x, y, z'
'-x+1/2, -y+1/2, z'
'-y+1/2, x, z+1/2'
'y, -x+1/2, z+1/2'
'-x, y+1/2, -z+1/2'
'x+1/2, -y, -z+1/2'
'y+1/2, x+1/2, -z'
'-y, -x, -z'
'-x, -y, -z'
'x-1/2, y-1/2, -z'
'y-1/2, -x, -z-1/2'
'-y, x-1/2, -z-1/2'
'x, -y-1/2, z-1/2'
'-x-1/2, y, z-1/2'
'-y-1/2, -x-1/2, z'
'y, x, z'
loop_
_atom_site_label
_atom_site_type_symbol
_atom_site_fract_x
_atom_site_fract_y
_atom_site_fract_z
_atom_site_U_iso_or_equiv
_atom_site_adp_type
_atom_site_occupancy
_atom_site_site_symmetry_order
_atom_site_calc_flag
_atom_site_refinement_flags_posn
_atom_site_refinement_flags_adp
_atom_site_refinement_flags_occupancy
C1 C 0.60675(8) 0.60675(8) 0.21627(10) 0.0234(4) Uani 1 2 d S T P
C2 C 0.57034(9) 0.57034(9) 0.14765(11) 0.0312(5) Uani 1 2 d S T P
C3 C 0.63259(11) 0.53445(10) 0.09995(8) 0.0342(4) Uani 1 1 d . . .
C4 C 0.70949(11) 0.51990(9) 0.11780(8) 0.0328(3) Uani 1 1 d . . .
C5 C 0.74265(9) 0.55326(8) 0.18094(7) 0.0258(3) Uani 1 1 d . . .
C6 C 0.69643(8) 0.59906(8) 0.22203(7) 0.0214(3) Uani 1 1 d . . .
C7 C 0.72951(8) 0.66967(8) 0.25058(6) 0.0183(3) Uani 1 1 d . . .
C8 C 0.81060(8) 0.68940(8) 0.24393(9) 0.0188(3) Uani 1 2 d S T P
C9 C 0.85997(8) 0.64003(8) 0.20098(11) 0.0244(4) Uani 1 2 d S T P
C10 C 0.82387(9) 0.57505(9) 0.16813(8) 0.0281(3) Uani 1 1 d . . .
C11 C 0.84276(11) 0.55609(10) 0.09880(9) 0.0361(4) Uani 1 1 d . . .
C12 C 0.77247(11) 0.52316(10) 0.06784(9) 0.0393(4) Uani 1 1 d . . .
C13 C 0.75500(13) 0.53998(12) 0.00027(10) 0.0469(5) Uani 1 1 d . . .
C14 C 0.67470(14) 0.55576(13) -0.01913(8) 0.0482(5) Uani 1 1 d . . .
C15 C 0.61472(12) 0.55459(11) 0.03019(8) 0.0419(4) Uani 1 1 d . . .
C16 C 0.89740(11) 0.60260(11) 0.06123(13) 0.0408(6) Uani 1 2 d S T P
C17 C 0.87906(14) 0.62094(14) -0.01008(13) 0.0500(8) Uani 1 2 d S T P
C18 C 0.80725(14) 0.59196(13) -0.03833(9) 0.0527(6) Uani 1 1 d . . .
C19 C 0.75874(15) 0.64023(15) -0.08094(9) 0.0576(6) Uani 1 1 d . . .
C20 C 0.67669(14) 0.61898(14) -0.06924(8) 0.0547(6) Uani 1 1 d . . .
C21 C 0.78074(17) 0.71926(17) -0.09675(11) 0.0579(9) Uani 1 2 d S T P
C22 C 0.50630(10) 0.50630(10) 0.16951(13) 0.0375(5) Uani 1 2 d S T P
H22 H 0.4810 0.4810 0.1288 0.045 Uiso 1 2 calc R U P
C23 C 0.44581(10) 0.54831(10) 0.21331(9) 0.0364(4) Uani 1 1 d . . .
C24 C 0.36606(12) 0.55839(12) 0.19884(12) 0.0480(5) Uani 1 1 d . . .
H24 H 0.3444 0.5391 0.1573 0.058 Uiso 1 1 calc R U .
C25 C 0.31827(11) 0.59711(12) 0.24602(14) 0.0554(6) Uani 1 1 d . . .
H25 H 0.2634 0.6039 0.2365 0.066 Uiso 1 1 calc R U .
C26 C 0.34890(11) 0.62574(11) 0.30615(13) 0.0481(5) Uani 1 1 d . . .
H26 H 0.3151 0.6511 0.3382 0.058 Uiso 1 1 calc R U .
C27 C 0.42992(10) 0.61767(10) 0.32031(10) 0.0365(4) Uani 1 1 d . . .
H27 H 0.4517 0.6381 0.3614 0.044 Uiso 1 1 calc R U .
C28 C 0.47759(9) 0.57951(9) 0.27338(8) 0.0292(3) Uani 1 1 d . . .
C29 C 0.56543(8) 0.56543(8) 0.27992(11) 0.0246(4) Uani 1 2 d S T P
H29 H 0.5865 0.5865 0.3240 0.030 Uiso 1 2 calc R U P
loop_
_atom_site_aniso_label
_atom_site_aniso_U_11
_atom_site_aniso_U_22
_atom_site_aniso_U_33
_atom_site_aniso_U_23
_atom_site_aniso_U_13
_atom_site_aniso_U_12
C1 0.0235(6) 0.0235(6) 0.0232(8) 0.0000(5) 0.0000(5) -0.0049(7)
C2 0.0334(7) 0.0334(7) 0.0268(10) -0.0042(6) -0.0042(6) -0.0101(9)
C3 0.0441(9) 0.0299(8) 0.0286(7) -0.0092(6) 0.0019(6) -0.0164(7)
C4 0.0421(9) 0.0241(7) 0.0321(7) -0.0105(6) 0.0073(7) -0.0084(6)
C5 0.0299(7) 0.0189(6) 0.0285(7) -0.0037(5) 0.0025(6) -0.0026(5)
C6 0.0241(6) 0.0200(6) 0.0199(6) 0.0003(5) 0.0009(5) -0.0035(5)
C7 0.0217(6) 0.0192(6) 0.0138(5) 0.0009(4) 0.0007(4) -0.0005(5)
C8 0.0202(5) 0.0202(5) 0.0160(7) 0.0006(4) -0.0006(4) 0.0011(7)
C9 0.0221(6) 0.0221(6) 0.0290(9) -0.0019(5) 0.0019(5) 0.0025(7)
C10 0.0286(7) 0.0221(7) 0.0335(7) -0.0054(6) 0.0059(6) 0.0025(5)
C11 0.0392(9) 0.0298(8) 0.0394(8) -0.0152(7) 0.0118(7) -0.0010(6)
C12 0.0479(10) 0.0320(8) 0.0380(9) -0.0180(7) 0.0126(7) -0.0075(7)
C13 0.0613(12) 0.0462(10) 0.0333(8) -0.0239(8) 0.0145(8) -0.0187(9)
C14 0.0668(13) 0.0529(11) 0.0248(7) -0.0185(7) 0.0028(8) -0.0264(10)
C15 0.0519(10) 0.0456(10) 0.0281(7) -0.0124(7) -0.0031(7) -0.0239(8)
C16 0.0400(8) 0.0400(8) 0.0423(13) -0.0191(8) 0.0191(8) -0.0030(10)
C17 0.0579(11) 0.0579(11) 0.0342(13) -0.0253(9) 0.0253(9) -0.0156(13)
C18 0.0695(14) 0.0598(12) 0.0289(8) -0.0258(9) 0.0210(9) -0.0213(11)
C19 0.0795(15) 0.0765(15) 0.0168(7) -0.0175(8) 0.0113(9) -0.0324(12)
C20 0.0758(14) 0.0707(13) 0.0177(7) -0.0140(7) -0.0009(8) -0.0346(11)
C21 0.0811(14) 0.0811(14) 0.0115(8) -0.0087(8) 0.0087(8) -0.0347(17)
C22 0.0383(8) 0.0383(8) 0.0360(11) -0.0028(6) -0.0028(6) -0.0187(10)
C23 0.0298(8) 0.0333(8) 0.0460(9) 0.0071(7) -0.0043(7) -0.0118(6)
C24 0.0342(9) 0.0440(10) 0.0658(12) 0.0153(9) -0.0146(9) -0.0172(8)
C25 0.0246(8) 0.0376(10) 0.1039(18) 0.0175(11) -0.0092(10) -0.0062(7)
C26 0.0267(8) 0.0278(8) 0.0897(15) 0.0064(9) 0.0099(9) -0.0007(7)
C27 0.0276(8) 0.0243(7) 0.0575(11) 0.0039(7) 0.0080(7) -0.0028(6)
C28 0.0234(7) 0.0250(7) 0.0393(8) 0.0082(6) 0.0010(6) -0.0041(5)
C29 0.0231(6) 0.0231(6) 0.0276(9) 0.0021(5) 0.0021(5) -0.0033(7)
loop_
_atom_type_symbol
_atom_type_description
_atom_type_scat_dispersion_real
_atom_type_scat_dispersion_imag
_atom_type_scat_source
C C 0.0040 0.0020 'International Tables Vol C Tables 4.2.6.8 and 6.1.1.4'
H H 0.0000 0.0000 'International Tables Vol C Tables 4.2.6.8 and 6.1.1.4'
loop_
_geom_angle_atom_site_label_1
_geom_angle_atom_site_label_2
_geom_angle_atom_site_label_3
_geom_angle
_geom_angle_site_symmetry_1
_geom_angle_site_symmetry_3
C6 C1 C6 99.44(15) . 16
C6 C1 C29 109.88(11) . .
C6 C1 C29 109.88(11) 16 .
C6 C1 C2 114.25(11) . .
C6 C1 C2 114.25(11) 16 .
C29 C1 C2 108.84(16) . .
C3 C2 C3 99.75(19) . 16
C3 C2 C22 111.27(12) . .
C3 C2 C22 111.27(12) 16 .
C3 C2 C1 113.68(12) . .
C3 C2 C1 113.68(12) 16 .
C22 C2 C1 107.18(17) . .
C4 C3 C15 118.96(16) . .
C4 C3 C2 124.48(14) . .
C15 C3 C2 110.06(16) . .
C3 C4 C12 121.16(16) . .
C3 C4 C5 120.54(14) . .
C12 C4 C5 106.03(14) . .
C6 C5 C10 120.20(13) . .
C6 C5 C4 119.83(14) . .
C10 C5 C4 108.22(13) . .
C5 C6 C7 118.74(12) . .
C5 C6 C1 125.00(13) . .
C7 C6 C1 110.23(12) . .
C8 C7 C7 121.18(8) . 16
C8 C7 C6 122.52(12) . .
C7 C7 C6 108.25(8) 16 .
C7 C8 C7 116.54(16) . 15_775
C7 C8 C9 118.35(9) . .
C7 C8 C9 118.35(9) 15_775 .
C10 C9 C10 117.59(18) . 15_775
C10 C9 C8 117.68(10) . .
C10 C9 C8 117.68(10) 15_775 .
C9 C10 C11 120.74(15) . .
C9 C10 C5 121.98(13) . .
C11 C10 C5 108.67(14) . .
C16 C11 C10 120.95(15) . .
C16 C11 C12 121.94(18) . .
C10 C11 C12 107.59(14) . .
C13 C12 C11 119.84(17) . .
C13 C12 C4 119.93(18) . .
C11 C12 C4 109.48(14) . .
C12 C13 C14 119.52(17) . .
C12 C13 C18 119.43(18) . .
C14 C13 C18 108.8(2) . .
C15 C14 C13 119.85(17) . .
C15 C14 C20 119.7(2) . .
C13 C14 C20 107.14(18) . .
C14 C15 C15 120.08(13) . 16
C14 C15 C3 120.51(19) . .
C15 C15 C3 108.34(11) 16 .
C11 C16 C11 116.8(2) 15_775 .
C11 C16 C17 118.40(14) 15_775 .
C11 C16 C17 118.40(14) . .
C18 C17 C18 115.8(3) . 15_775
C18 C17 C16 118.69(13) . .
C18 C17 C16 118.69(13) 15_775 .
C17 C18 C19 121.5(2) . .
C17 C18 C13 121.4(2) . .
C19 C18 C13 107.5(2) . .
C21 C19 C18 121.0(2) . .
C21 C19 C20 121.2(3) . .
C18 C19 C20 108.34(19) . .
C20 C20 C19 120.06(15) 16 .
C20 C20 C14 120.24(14) 16 .
C19 C20 C14 108.1(2) . .
C19 C21 C19 116.4(3) 15_775 .
C19 C21 C21 118.67(18) 15_775 2_665
C19 C21 C21 118.67(18) . 2_665
C23 C22 C23 108.1(2) 16 .
C23 C22 C2 107.11(12) 16 .
C23 C22 C2 107.10(12) . .
C23 C22 H22 111.4 16 .
C23 C22 H22 111.4 . .
C2 C22 H22 111.4 . .
C24 C23 C28 119.94(18) . .
C24 C23 C22 126.68(19) . .
C28 C23 C22 113.38(15) . .
C23 C24 C25 119.0(2) . .
C23 C24 H24 120.5 . .
C25 C24 H24 120.5 . .
C26 C25 C24 121.18(17) . .
C26 C25 H25 119.4 . .
C24 C25 H25 119.4 . .
C25 C26 C27 120.2(2) . .
C25 C26 H26 119.9 . .
C27 C26 H26 119.9 . .
C28 C27 C26 118.75(19) . .
C28 C27 H27 120.6 . .
C26 C27 H27 120.6 . .
C27 C28 C23 120.92(15) . .
C27 C28 C29 126.13(16) . .
C23 C28 C29 112.95(15) . .
C28 C29 C28 107.65(17) . 16
C28 C29 C1 107.18(11) . .
C28 C29 C1 107.18(11) 16 .
C28 C29 H29 111.5 . .
C28 C29 H29 111.5 16 .
C1 C29 H29 111.5 . .
loop_
_geom_bond_atom_site_label_1
_geom_bond_atom_site_label_2
_geom_bond_distance
_geom_bond_site_symmetry_2
C1 C6 1.5221(18) .
C1 C6 1.5222(18) 16
C1 C29 1.590(3) .
C1 C2 1.601(3) .
C2 C3 1.531(2) .
C2 C3 1.531(2) 16
C2 C22 1.586(3) .
C3 C4 1.366(3) .
C3 C15 1.441(2) .
C4 C12 1.446(2) .
C4 C5 1.470(2) .
C5 C6 1.3611(19) .
C5 C10 1.440(2) .
C6 C7 1.4293(18) .
C7 C8 1.4136(16) .
C7 C7 1.427(3) 16
C8 C7 1.4137(16) 15_775
C8 C9 1.447(3) .
C9 C10 1.4093(18) .
C9 C10 1.4093(18) 15_775
C10 C11 1.432(2) .
C11 C16 1.417(2) .
C11 C12 1.443(3) .
C12 C13 1.386(3) .
C13 C14 1.432(3) .
C13 C18 1.455(3) .
C14 C15 1.399(3) .
C14 C20 1.450(3) .
C15 C15 1.434(4) 16
C16 C11 1.417(2) 15_775
C16 C17 1.464(4) .
C17 C18 1.419(3) .
C17 C18 1.419(3) 15_775
C18 C19 1.425(4) .
C19 C21 1.418(3) .
C19 C20 1.448(3) .
C20 C20 1.376(5) 16
C21 C19 1.418(3) 15_775
C21 C21 1.466(8) 2_665
C22 C23 1.510(2) 16
C22 C23 1.510(2) .
C22 H22 1.0000 .
C23 C24 1.385(3) .
C23 C28 1.397(2) .
C24 C25 1.390(3) .
C24 H24 0.9500 .
C25 C26 1.374(3) .
C25 H25 0.9500 .
C26 C27 1.401(2) .
C26 H26 0.9500 .
C27 C28 1.381(2) .
C27 H27 0.9500 .
C28 C29 1.5059(19) .
C29 C28 1.5059(19) 16
C29 H29 1.0000 .
loop_
_geom_torsion_atom_site_label_1
_geom_torsion_atom_site_label_2
_geom_torsion_atom_site_label_3
_geom_torsion_atom_site_label_4
_geom_torsion
_geom_torsion_site_symmetry_1
_geom_torsion_site_symmetry_4
C6 C1 C2 C3 -0.2(2) . .
C6 C1 C2 C3 113.40(13) 16 .
C29 C1 C2 C3 -123.39(13) . .
C6 C1 C2 C3 -113.41(13) . 16
C6 C1 C2 C3 0.2(2) 16 16
C29 C1 C2 C3 123.39(13) . 16
C6 C1 C2 C22 123.21(11) . .
C6 C1 C2 C22 -123.21(11) 16 .
C29 C1 C2 C22 0.000(0) . .
C3 C2 C3 C4 133.52(14) 16 .
C22 C2 C3 C4 -108.96(19) . .
C1 C2 C3 C4 12.2(2) . .
C3 C2 C3 C15 -17.7(2) 16 .
C22 C2 C3 C15 99.86(16) . .
C1 C2 C3 C15 -139.01(14) . .
C15 C3 C4 C12 -1.0(2) . .
C2 C3 C4 C12 -149.81(16) . .
C15 C3 C4 C5 136.03(16) . .
C2 C3 C4 C5 -12.8(2) . .
C3 C4 C5 C6 0.0(2) . .
C12 C4 C5 C6 142.61(15) . .
C3 C4 C5 C10 -143.06(15) . .
C12 C4 C5 C10 -0.44(18) . .
C10 C5 C6 C7 1.5(2) . .
C4 C5 C6 C7 -137.18(14) . .
C10 C5 C6 C1 151.43(15) . .
C4 C5 C6 C1 12.8(2) . .
C6 C1 C6 C5 -134.11(12) 16 .
C29 C1 C6 C5 110.64(16) . .
C2 C1 C6 C5 -12.0(2) . .
C6 C1 C6 C7 17.99(18) 16 .
C29 C1 C6 C7 -97.26(13) . .
C2 C1 C6 C7 140.09(13) . .
C5 C6 C7 C8 -7.0(2) . .
C1 C6 C7 C8 -161.11(14) . .
C5 C6 C7 C7 141.94(11) . 16
C1 C6 C7 C7 -12.14(12) . 16
C7 C7 C8 C7 11.83(19) 16 15_775
C6 C7 C8 C7 156.91(10) . 15_775
C7 C7 C8 C9 -138.92(12) 16 .
C6 C7 C8 C9 6.2(2) . .
C7 C8 C9 C10 0.1(2) . .
C7 C8 C9 C10 -150.09(15) 15_775 .
C7 C8 C9 C10 150.09(15) . 15_775
C7 C8 C9 C10 -0.1(2) 15_775 15_775
C10 C9 C10 C11 -11.4(3) 15_775 .
C8 C9 C10 C11 138.61(17) . .
C10 C9 C10 C5 -155.51(12) 15_775 .
C8 C9 C10 C5 -5.5(3) . .
C6 C5 C10 C9 4.8(2) . .
C4 C5 C10 C9 147.70(16) . .
C6 C5 C10 C11 -143.08(15) . .
C4 C5 C10 C11 -0.19(17) . .
C9 C10 C11 C16 -0.8(3) . .
C5 C10 C11 C16 147.6(2) . .
C9 C10 C11 C12 -147.61(17) . .
C5 C10 C11 C12 0.75(19) . .
C16 C11 C12 C13 -3.1(3) . .
C10 C11 C12 C13 143.36(17) . .
C16 C11 C12 C4 -147.49(18) . .
C10 C11 C12 C4 -1.0(2) . .
C3 C4 C12 C13 -1.1(2) . .
C5 C4 C12 C13 -143.45(16) . .
C3 C4 C12 C11 143.24(16) . .
C5 C4 C12 C11 0.9(2) . .
C11 C12 C13 C14 -139.29(18) . .
C4 C12 C13 C14 1.4(3) . .
C11 C12 C13 C18 -1.1(3) . .
C4 C12 C13 C18 139.60(19) . .
C12 C13 C14 C15 0.4(3) . .
C18 C13 C14 C15 -141.76(17) . .
C12 C13 C14 C20 141.14(17) . .
C18 C13 C14 C20 -1.02(19) . .
C13 C14 C15 C15 137.23(15) . 16
C20 C14 C15 C15 1.34(19) . 16
C13 C14 C15 C3 -2.5(3) . .
C20 C14 C15 C3 -138.42(18) . .
C4 C3 C15 C14 2.8(2) . .
C2 C3 C15 C14 155.80(17) . .
C4 C3 C15 C15 -141.11(12) . 16
C2 C3 C15 C15 11.88(14) . 16
C10 C11 C16 C11 12.7(4) . 15_775
C12 C11 C16 C11 154.82(16) . 15_775
C10 C11 C16 C17 -138.7(2) . .
C12 C11 C16 C17 3.4(3) . .
C11 C16 C17 C18 -150.5(2) 15_775 .
C11 C16 C17 C18 0.5(4) . .
C11 C16 C17 C18 -0.5(4) 15_775 15_775
C11 C16 C17 C18 150.5(2) . 15_775
C18 C17 C18 C19 -13.4(3) 15_775 .
C16 C17 C18 C19 137.4(2) . .
C18 C17 C18 C13 -155.47(15) 15_775 .
C16 C17 C18 C13 -4.7(4) . .
C12 C13 C18 C17 5.0(3) . .
C14 C13 C18 C17 147.2(2) . .
C12 C13 C18 C19 -141.62(19) . .
C14 C13 C18 C19 0.58(19) . .
C17 C18 C19 C21 0.1(3) . .
C13 C18 C19 C21 146.7(2) . .
C17 C18 C19 C20 -146.53(19) . .
C13 C18 C19 C20 0.1(2) . .
C21 C19 C20 C20 -4.0(2) . 16
C18 C19 C20 C20 142.58(12) . 16
C21 C19 C20 C14 -147.29(18) . .
C18 C19 C20 C14 -0.7(2) . .
C15 C14 C20 C20 -1.34(19) . 16
C13 C14 C20 C20 -142.16(11) . 16
C15 C14 C20 C19 141.90(17) . .
C13 C14 C20 C19 1.1(2) . .
C18 C19 C21 C19 13.3(3) . 15_775
C20 C19 C21 C19 155.73(16) . 15_775
C18 C19 C21 C21 -138.47(16) . 2_665
C20 C19 C21 C21 3.9(2) . 2_665
C3 C2 C22 C23 67.0(2) . 16
C3 C2 C22 C23 177.25(15) 16 16
C1 C2 C22 C23 -57.90(13) . 16
C3 C2 C22 C23 -177.25(15) . .
C3 C2 C22 C23 -67.0(2) 16 .
C1 C2 C22 C23 57.90(13) . .
C23 C22 C23 C24 -128.00(17) 16 .
C2 C22 C23 C24 116.9(2) . .
C23 C22 C23 C28 52.7(2) 16 .
C2 C22 C23 C28 -62.37(19) . .
C28 C23 C24 C25 -2.4(3) . .
C22 C23 C24 C25 178.38(18) . .
C23 C24 C25 C26 0.4(3) . .
C24 C25 C26 C27 1.3(3) . .
C25 C26 C27 C28 -1.0(3) . .
C26 C27 C28 C23 -1.0(2) . .
C26 C27 C28 C29 -179.99(15) . .
C24 C23 C28 C27 2.7(2) . .
C22 C23 C28 C27 -177.96(15) . .
C24 C23 C28 C29 -178.14(15) . .
C22 C23 C28 C29 1.2(2) . .
C27 C28 C29 C28 123.82(16) . 16
C23 C28 C29 C28 -55.3(2) . 16
C27 C28 C29 C1 -121.18(17) . .
C23 C28 C29 C1 59.75(17) . .
C6 C1 C29 C28 176.56(13) . .
C6 C1 C29 C28 68.13(17) 16 .
C2 C1 C29 C28 -57.66(11) . .
C6 C1 C29 C28 -68.12(17) . 16
C6 C1 C29 C28 -176.55(13) 16 16
C2 C1 C29 C28 57.66(11) . 16
