#------------------------------------------------------------------------------
#$Date: 2016-04-05 17:34:27 +0300 (Tue, 05 Apr 2016) $
#$Revision: 181543 $
#$URL: svn://www.crystallography.net/cod/cif/7/11/88/7118828.cif $
#------------------------------------------------------------------------------
#
# This file is available in the Crystallography Open Database (COD),
# http://www.crystallography.net/
#
# All data on this site have been placed in the public domain by the
# contributors.
#
data_7118828
loop_
_publ_author_name
'Lungerich, Dominik'
'Nizovtsev, Alexey V.'
'Heinemann, Frank W.'
'Hampel, Frank'
'Meyer, Karsten'
'Majetich, George'
'Schleyer, Paul V. R.'
'Jux, Norbert'
_publ_section_title
;
 [18]Annulene put into a new perspective.
;
_journal_issue                   25
_journal_name_full
'Chemical communications (Cambridge, England)'
_journal_page_first              4710
_journal_page_last               4713
_journal_paper_doi               10.1039/c6cc01309k
_journal_volume                  52
_journal_year                    2016
_chemical_formula_moiety         'C18 H18'
_chemical_formula_sum            'C18 H18'
_chemical_formula_weight         234.32
_space_group_crystal_system      monoclinic
_space_group_IT_number           14
_space_group_name_Hall           '-P 2yn'
_space_group_name_H-M_alt        'P 1 21/n 1'
_symmetry_space_group_name_Hall  '-P 2yn'
_symmetry_space_group_name_H-M   'P 1 21/n 1'
_atom_sites_solution_hydrogens   mixed
_audit_creation_date             2015-11-27
_audit_creation_method
;
Olex2 1.2
(compiled 2015.09.30 svn.r3233 for OlexSys, GUI svn.r5103)
;
_audit_update_record
;
2016-02-10 deposited with the CCDC.
2016-02-22 downloaded from the CCDC.
;
_cell_angle_alpha                90
_cell_angle_beta                 108.855(8)
_cell_angle_gamma                90
_cell_formula_units_Z            2
_cell_length_a                   10.230(4)
_cell_length_b                   4.7903(17)
_cell_length_c                   14.674(5)
_cell_measurement_reflns_used    1825
_cell_measurement_temperature    100(2)
_cell_measurement_theta_max      27.37
_cell_measurement_theta_min      2.93
_cell_volume                     680.5(4)
_computing_cell_refinement       'Bruker SAINT'
_computing_data_collection       'Bruker APEX2'
_computing_data_reduction        'Bruker SAINT'
_computing_molecular_graphics    'SHELXTL 6.12 (Bruker AXS, 2002)'
_computing_publication_material  'Olex2 (Dolomanov et al., 2009)'
_computing_structure_refinement  'SHELXL-2014/6 (Sheldrick, 2008)'
_computing_structure_solution    'SHELXTL 6.12 (Bruker AXS, 2002)'
_diffrn_ambient_temperature      100(2)
_diffrn_detector_area_resol_mean 83.33
_diffrn_measured_fraction_theta_full 0.999
_diffrn_measured_fraction_theta_max 0.999
_diffrn_measurement_device_type  'Bruker Kappa APEX II CCD area detector'
_diffrn_measurement_method       'phi and omega scans'
_diffrn_radiation_monochromator  'Quazar focussing montel optics'
_diffrn_radiation_source         'ImuS micro-focus tube'
_diffrn_radiation_type           MoK\a
_diffrn_radiation_wavelength     0.71073
_diffrn_reflns_av_R_equivalents  0.0626
_diffrn_reflns_av_unetI/netI     0.0412
_diffrn_reflns_Laue_measured_fraction_full 0.999
_diffrn_reflns_Laue_measured_fraction_max 0.999
_diffrn_reflns_limit_h_max       13
_diffrn_reflns_limit_h_min       -13
_diffrn_reflns_limit_k_max       6
_diffrn_reflns_limit_k_min       -6
_diffrn_reflns_limit_l_max       19
_diffrn_reflns_limit_l_min       -19
_diffrn_reflns_number            11902
_diffrn_reflns_point_group_measured_fraction_full 0.999
_diffrn_reflns_point_group_measured_fraction_max 0.999
_diffrn_reflns_theta_full        26.000
_diffrn_reflns_theta_max         28.775
_diffrn_reflns_theta_min         2.928
_diffrn_standards_number         0
_exptl_absorpt_coefficient_mu    0.064
_exptl_absorpt_correction_T_max  0.7458
_exptl_absorpt_correction_T_min  0.4970
_exptl_absorpt_correction_type   multi-scan
_exptl_absorpt_process_details
;
SADABS-2014/4 (Bruker,2014/4) was used for absorption correction.
wR2(int) was 0.1175 before and 0.0627 after correction.
The Ratio of minimum to maximum transmission is 0.6664.
The \l/2 correction factor is 0.00150.
;
_exptl_crystal_colour            brown
_exptl_crystal_density_diffrn    1.144
_exptl_crystal_description       block
_exptl_crystal_F_000             252
_exptl_crystal_size_max          0.2
_exptl_crystal_size_mid          0.09
_exptl_crystal_size_min          0.07
_refine_diff_density_max         0.156
_refine_diff_density_min         -0.154
_refine_diff_density_rms         0.037
_refine_ls_extinction_method     none
_refine_ls_goodness_of_fit_ref   1.072
_refine_ls_hydrogen_treatment    mixed
_refine_ls_matrix_type           full
_refine_ls_number_parameters     200
_refine_ls_number_reflns         1766
_refine_ls_number_restraints     69
_refine_ls_restrained_S_all      1.067
_refine_ls_R_factor_all          0.0610
_refine_ls_R_factor_gt           0.0404
_refine_ls_shift/su_max          0.001
_refine_ls_shift/su_mean         0.000
_refine_ls_structure_factor_coef Fsqd
_refine_ls_weighting_details
'w=1/[\s^2^(Fo^2^)+(0.0299P)^2^+0.1767P] where P=(Fo^2^+2Fc^2^)/3'
_refine_ls_weighting_scheme      calc
_refine_ls_wR_factor_gt          0.0881
_refine_ls_wR_factor_ref         0.0982
_reflns_Friedel_coverage         0.000
_reflns_number_gt                1353
_reflns_number_total             1766
_reflns_threshold_expression     'I > 2\s(I)'
_cod_data_source_file            c6cc01309k2.cif
_cod_data_source_block           nj1501
_cod_depositor_comments
'Adding full bibliography for 7118828--7118829.cif.'
_cod_database_code               7118828
_shelxl_version_number           2014/6
_shelx_space_group_comment
;
The symmetry employed for this shelxl refinement is uniquely defined
by the following loop, which should always be used as a source of
symmetry information in preference to the above space-group names.
They are only intended as comments.
;
_shelx_estimated_absorpt_t_max   0.996
_shelx_estimated_absorpt_t_min   0.987
_olex2_refinement_description
;
1. Fixed Uiso
 At 1.2 times of:
  All C(H) groups
2. Uiso/Uaniso restraints and constraints
Uanis(C11) \\sim Ueq, Uanis(C12) \\sim Ueq, Uanis(C13) \\sim Ueq, Uanis(C14)
\\sim Ueq, Uanis(C15) \\sim Ueq, Uanis(C16) \\sim Ueq, Uanis(C17) \\sim Ueq,
Uanis(C18) \\sim Ueq, Uanis(C19) \\sim Ueq: with sigma of 0.005 and sigma for
terminal atoms of 0.01
3. Same fragment restrains
{C1, C2, C3, C4, C5, C6, C7, C8, C9} sigma for 1-2: 0.02, 1-3: 0.04
as
{C11, C12, C13, C14, C15, C16, C17, C18, C19}
4. Others
 Sof(C11)=Sof(H11)=Sof(C12)=Sof(H12)=Sof(C13)=Sof(H13)=Sof(C14)=Sof(H14)=
 Sof(C15)=Sof(H15)=Sof(C16)=Sof(H16)=Sof(C17)=Sof(H17)=Sof(C18)=Sof(H18)=
 Sof(C19)=Sof(H19)=1-FVAR(1)
 Sof(C1)=Sof(C2)=Sof(C3)=Sof(C4)=Sof(C5)=Sof(C6)=Sof(C7)=Sof(C8)=Sof(C9)=
 Sof(H1)=Sof(H2)=Sof(H3)=Sof(H4)=Sof(H5)=Sof(H6)=Sof(H7)=Sof(H8)=Sof(H9)=FVAR(1)
5.a Aromatic/amide H refined with riding coordinates:
 C11(H11), C12(H12), C13(H13), C14(H14), C15(H15), C16(H16), C17(H17),
 C18(H18), C19(H19)
;
_shelx_res_file
;
TITL NJ1501 in P2(1)/n, LUNGERICH/JUX, [18]-Annulen
CELL 0.71073 10.2305 4.7903 14.6739 90 108.8552 90
ZERR 2 0.0035 0.0017 0.0049 0 0.0075 0
LATT 1
SYMM 0.5-X,0.5+Y,0.5-Z
SFAC C H
UNIT 36 36
ISOR 0.005 0.01 C11 C12 C13 C14 C15 C16 C17 C18 C19

L.S. 8
PLAN  20
SIZE 0.2 0.09 0.07
TEMP -173
BOND .5 $h
HTAB
CONF
WPDB -1
LIST 4
fmap 2
acta 52
MORE -1
REM <olex2.extras>
REM <HklSrc "%.\\nj1501.hkl">
REM </olex2.extras>

WGHT    0.029900    0.176700
FVAR       0.37853   0.95061
PART 1
C1    1    0.973387   -0.009327    1.188503    21.00000    0.02622    0.02218 =
         0.01765    0.00021    0.00392   -0.00618
C2    1    0.894092    0.214510    1.141355    21.00000    0.02475    0.02181 =
         0.01843   -0.00159    0.00577   -0.00541
C3    1    0.764494    0.294066    1.142899    21.00000    0.02641    0.02402 =
         0.01949   -0.00581    0.00972   -0.00888
C4    1    0.684837    0.506293    1.084326    21.00000    0.02089    0.02503 =
         0.02444   -0.00793    0.00879   -0.00378
C5    1    0.725393    0.648813    1.015451    21.00000    0.01836    0.02217 =
         0.02274   -0.00609    0.00543   -0.00126
C6    1    0.657099    0.863480    0.955148    21.00000    0.01904    0.02331 =
         0.02211   -0.00777    0.00325    0.00318
C7    1    0.712515    1.009983    0.893169    21.00000    0.02227    0.01986 =
         0.01979   -0.00436   -0.00008    0.00467
C8    1    0.841931    0.958336    0.885195    21.00000    0.02278    0.01828 =
         0.01809    0.00045    0.00085    0.00171
C9    1    0.900013    1.087671    0.822599    21.00000    0.02813    0.01960 =
         0.01749    0.00269   -0.00037   -0.00218
H1    2    0.938589   -0.126000    1.232305    21.00000    0.03161
H2    2    0.932955    0.329797    1.101703    21.00000    0.02563
H3    2    0.723424    0.187676    1.185171    21.00000    0.02502
H4    2    0.596112    0.554935    1.093025    21.00000    0.03114
H5    2    0.814270    0.592321    1.008965    21.00000    0.02835
H6    2    0.565864    0.920383    0.957338    21.00000    0.03084
H7    2    0.657330    1.156499    0.853474    21.00000    0.02815
H8    2    0.896829    0.807159    0.927403    21.00000    0.03210
H9    2    0.848616    1.245667    0.783864    21.00000    0.02830
SAME 0.02 0.04 C1 C2 C3 C4 C5 C6 C7 C8 C9
PART 0
PART 2
C11   1    1.028660    0.061280    1.149335   -21.00000    0.02369    0.02766 =
         0.02537   -0.00269    0.01044   -0.00172
AFIX  43
H11   2    1.021492    0.208066    1.104443   -21.00000   -1.20000
AFIX   0
C12   1    0.921806    0.070200    1.184582   -21.00000    0.01775    0.01452 =
         0.01667    0.00091    0.00383    0.00177
AFIX  43
H12   2    0.928660   -0.066559    1.232793   -21.00000   -1.20000
AFIX   0
C13   1    0.806729    0.231384    1.166368   -21.00000    0.04999    0.04886 =
         0.04969   -0.00019    0.01396   -0.00048
AFIX  43
H13   2    0.745806    0.203013    1.202540   -21.00000   -1.20000
AFIX   0
C14   1    0.777659    0.430688    1.097866   -21.00000    0.02702    0.02320 =
         0.02412   -0.00289    0.00499    0.00039
AFIX  43
H14   2    0.852247    0.456397    1.073451   -21.00000   -1.20000
AFIX   0
C15   1    0.672372    0.602706    1.054692   -21.00000    0.02339    0.02397 =
         0.02069    0.00337    0.00744   -0.00314
AFIX  43
H15   2    0.593343    0.580797    1.074589   -21.00000   -1.20000
AFIX   0
C16   1    0.660745    0.802898    0.987172   -21.00000    0.02669    0.02294 =
         0.02203   -0.00268    0.00812   -0.00081
AFIX  43
H16   2    0.578698    0.911675    0.968816   -21.00000   -1.20000
AFIX   0
C17   1    0.755403    0.861212    0.943770   -21.00000    0.02246    0.02131 =
         0.02213   -0.00375    0.00942    0.00540
AFIX  43
H17   2    0.830847    0.734411    0.961223   -21.00000   -1.20000
AFIX   0
C18   1    0.767581    1.058288    0.881247   -21.00000    0.00935    0.01967 =
         0.01683   -0.00485    0.00831    0.00324
AFIX  43
H18   2    0.697990    1.197805    0.862599   -21.00000   -1.20000
AFIX   0
C19   1    0.873504    1.072249    0.842411   -21.00000    0.02499    0.02422 =
         0.02387    0.00241    0.00534   -0.00262
AFIX  43
H19   2    0.864367    1.224808    0.799430   -21.00000   -1.20000
AFIX   0
HKLF 4

REM  NJ1501 in P2(1)/n, LUNGERICH/JUX, [18]-Annulen
REM R1 =  0.0404 for    1353 Fo > 4sig(Fo)  and  0.0610 for all    1766 data
REM    200 parameters refined using     69 restraints

END

WGHT      0.0298      0.1763

REM No hydrogen bonds found for HTAB generation

REM Highest difference peak  0.156,  deepest hole -0.154,  1-sigma level  0.037
Q1    1   0.6993  0.9823  0.9446  11.00000  0.05    0.16
Q2    1   1.0144 -0.1051  1.1613  11.00000  0.05    0.15
Q3    1   0.7601  0.9214  0.8709  11.00000  0.05    0.15
Q4    1   0.8387  0.3338  1.1516  11.00000  0.05    0.14
Q5    1   0.6989  0.5002  1.0397  11.00000  0.05    0.14
Q6    1   0.7323  0.3859  1.1059  11.00000  0.05    0.14
Q7    1   0.8055  0.1943  1.1227  11.00000  0.05    0.13
Q8    1   0.7375  0.9244  1.0605  11.00000  0.05    0.12
Q9    1   0.6207  1.3156  0.8754  11.00000  0.05    0.12
Q10   1   0.9635 -0.1684  1.0847  11.00000  0.05    0.12
Q11   1   0.8953  1.4265  0.8450  11.00000  0.05    0.12
Q12   1   0.7959  1.0253  0.9212  11.00000  0.05    0.12
Q13   1   0.6637  0.8575  0.8975  11.00000  0.05    0.12
Q14   1   0.5827  1.0976  0.8406  11.00000  0.05    0.12
Q15   1   0.8595  0.7058  0.8849  11.00000  0.05    0.12
Q16   1   0.7825  0.5401  1.1574  11.00000  0.05    0.11
Q17   1   0.5882  1.2184  0.9810  11.00000  0.05    0.11
Q18   1   0.5773  0.2755  1.1235  11.00000  0.05    0.11
Q19   1   0.6320  0.3256  1.2025  11.00000  0.05    0.11
Q20   1   0.7085  0.8101  1.0015  11.00000  0.05    0.11
;
_shelx_res_checksum              57579
_shelx_hkl_file
;
   1   0   0   -0.63    0.05
  -1   0   0   -0.57    0.12
  -1   0   0   -0.73    0.09
  -1   0   0   -0.62    0.04
  -1   0   0   -0.76    0.13
   1   0   0   -0.92    0.16
   1   0   0   -0.60    0.06
   1   0   0   -0.59    0.05
   1   0   0   -0.66    0.09
   2   0   0  442.46   21.40
  -2   0   0  438.59   21.28
   2   0   0  418.32   21.22
   2   0   0  416.18   21.21
   2   0   0  440.02   21.18
   2   0   0  432.50   21.31
  -2   0   0  427.89   21.17
  -2   0   0  384.43   21.39
  -3   0   0    0.04    0.36
   3   0   0    0.08    0.17
   3   0   0    0.16    0.28
  -3   0   0    0.17    0.13
   3   0   0   -0.02    0.19
  -4   0   0    2.03    0.26
   4   0   0    1.76    0.36
   4   0   0    2.56    0.36
  -4   0   0    1.30    0.56
   4   0   0    3.09    0.56
   5   0   0    0.41    0.26
   5   0   0    0.28    0.26
   5   0   0    0.25    0.39
  -5   0   0    0.58    0.20
  -5   0   0    0.70    0.58
   6   0   0    2.51    0.58
  -6   0   0    1.94    0.77
   7   0   0    1.63    0.58
  -7   0   0    2.03    0.84
   8   0   0    2.02    0.70
   8   0   0    0.52    0.38
  -8   0   0    1.07    0.79
  -8   0   0    0.94    0.29
   8   0   0    1.71    0.44
   9   0   0    0.20    0.59
   9   0   0    0.18    0.32
  -9   0   0    0.17    0.26
  -9   0   0   -0.54    0.65
   9   0   0    0.19    0.36
 -10   0   0    0.77    0.81
  10   0   0    0.59    0.74
  10   0   0    0.46    0.43
  10   0   0   -0.07    0.38
 -10   0   0    0.62    0.30
 -11   0   0    0.12    0.91
  11   0   0    0.00    0.37
  11   0   0    0.36    0.67
  11   0   0   -0.41    0.45
 -11   0   0    0.46    0.35
  12   0   0    1.43    0.56
 -12   0   0    1.61    0.47
  12   0   0    0.72    0.87
  12   0   0    1.63    0.63
  13   0   0    0.32    0.55
 -13   0   0    0.26    0.38
  13   0   0    0.77    0.90
   0  -1   0   -0.20    0.25
   0  -1   0   -0.25    0.13
   0  -1   0   -0.15    0.10
   0   1   0   -0.11    0.10
   0   1   0    0.12    0.20
   1  -1   0  239.18   12.47
  -1  -1   0  250.43   12.42
   1  -1   0  250.56   12.33
  -1  -1   0  253.03   12.26
  -1  -1   0  252.87   12.31
   1  -1   0  233.29   12.34
   1   1   0  246.97   12.39
   1   1   0  246.69   12.26
   1   1   0  245.93   12.31
  -1   1   0  242.77   12.35
  -1   1   0  245.54   12.32
   2  -1   0  200.50   10.15
  -2  -1   0  201.07   10.10
   2  -1   0  200.19   10.30
  -2  -1   0  212.84   10.24
  -2   1   0  202.65   10.16
   2   1   0  196.13   10.37
  -2   1   0  207.86   10.11
  -2   1   0  196.58   10.08
   2   1   0  193.97   10.19
  -3  -1   0    0.47    0.28
   3  -1   0    0.08    0.33
  -3  -1   0    0.01    0.14
  -3  -1   0    0.45    0.08
   3  -1   0    0.49    0.17
   3  -1   0    0.43    0.20
   3   1   0    0.19    0.29
   3   1   0    0.12    0.24
  -3   1   0    0.18    0.17
  -3   1   0    0.18    0.24
   3   1   0    0.29    0.39
   4  -1   0    2.03    0.30
  -4  -1   0    2.82    0.53
  -4  -1   0    2.14    0.29
   4  -1   0    2.44    0.38
   4  -1   0    1.84    0.54
   4   1   0    3.28    0.66
   4   1   0    2.11    0.47
  -4   1   0    0.85    0.69
  -4   1   0    2.48    0.48
   4   1   0    1.93    0.29
  -4   1   0    2.14    0.32
  -5  -1   0    1.26    0.24
   5  -1   0    1.23    0.36
   5  -1   0    1.60    0.53
   5  -1   0    0.68    0.24
  -5  -1   0    1.25    0.51
   5   1   0    1.09    0.39
  -5   1   0    0.77    0.72
   5   1   0    1.07    0.26
   5   1   0    1.91    0.61
  -5   1   0    0.35    0.21
   6  -1   0    0.21    0.23
  -6  -1   0    0.67    0.46
   6  -1   0    0.03    0.22
   6  -1   0    0.89    0.49
  -6  -1   0    0.32    0.19
  -6   1   0    0.56    0.23
   6   1   0    0.70    0.46
   6   1   0    0.50    0.35
   6   1   0    0.30    0.23
  -6   1   0    0.24    0.67
   7  -1   0    1.97    0.41
  -7  -1   0    1.72    0.33
  -7  -1   0    2.46    0.78
   7  -1   0    2.39    0.73
   7  -1   0    2.34    0.48
   7   1   0    2.47    0.57
  -7   1   0    0.52    0.76
  -7   1   0    1.85    0.36
   7   1   0    1.70    0.62
   7   1   0    2.08    0.42
  -8  -1   0   11.86    1.74
  -8  -1   0   12.25    0.92
   8  -1   0   16.92    1.77
   8  -1   0   15.26    1.09
   8  -1   0   12.02    1.21
   8   1   0   17.94    1.55
   8   1   0   13.47    1.04
  -8   1   0    8.99    1.93
  -8   1   0   13.34    0.96
   8   1   0   14.39    1.23
   9  -1   0    0.06    0.27
   9  -1   0    0.11    0.57
   9  -1   0    0.28    0.43
  -9  -1   0    0.12    0.25
  -9  -1   0   -0.42    0.62
   9   1   0    0.47    0.62
  -9   1   0    0.47    0.30
  -9   1   0   -0.74    0.71
   9   1   0    0.01    0.29
   9   1   0    0.14    0.42
 -10  -1   0    2.92    1.16
  10  -1   0    4.55    1.10
 -10  -1   0    4.06    0.59
  10  -1   0    4.48    0.72
  10  -1   0    5.02    0.84
 -10   1   0    2.84    1.48
 -10   1   0    2.95    0.55
  10   1   0    4.67    1.10
  10   1   0    4.88    0.72
  10   1   0    4.63    0.84
  11  -1   0    5.43    1.36
 -11  -1   0    2.65    0.52
  11  -1   0    3.68    0.82
  11   1   0    2.41    1.03
  11   1   0    3.70    0.70
  11   1   0    4.49    0.86
 -11   1   0    3.85    0.61
 -11   1   0    4.59    0.95
  12  -1   0    0.49    0.82
  12  -1   0    1.39    0.67
 -12  -1   0    0.40    0.36
  12   1   0    0.52    0.92
 -12   1   0    0.79    0.41
  12   1   0    0.42    0.54
   0  -2   0   81.40    4.09
   0  -2   0   81.30    4.15
   0  -2   0   79.50    4.44
   0   2   0   77.19    4.24
  -1  -2   0    2.77    0.25
  -1  -2   0    2.65    0.61
  -1  -2   0    2.99    0.53
  -1  -2   0    3.22    0.39
   1  -2   0    3.01    0.40
   1  -2   0    2.60    0.56
   1  -2   0    2.39    0.34
  -1   2   0    3.13    0.47
   1   2   0    2.85    0.50
   1   2   0    2.67    0.25
  -2  -2   0    1.25    0.28
   2  -2   0    1.46    0.30
   2  -2   0    1.32    0.53
  -2  -2   0    1.33    0.40
   2   2   0    1.82    0.17
   2   2   0    1.84    0.71
  -2   2   0    1.62    0.31
  -2   2   0    1.77    0.39
   3  -2   0   -0.14    0.39
   3  -2   0    0.27    0.26
  -3  -2   0    0.30    0.20
  -3  -2   0    0.28    0.29
   3   2   0    0.34    0.11
  -3   2   0    0.29    0.23
   3   2   0    0.06    0.52
   3   2   0   -0.26    0.30
  -3   2   0    0.19    0.28
   4  -2   0    0.99    0.52
  -4  -2   0    1.43    0.45
   4  -2   0    1.51    0.38
  -4  -2   0    1.78    0.31
  -4   2   0    1.45    0.31
   4   2   0    1.40    0.20
  -4   2   0    1.87    0.38
   4   2   0    2.02    0.46
   4   2   0    2.02    0.73
   4   2   0    1.25    0.46
  -5  -2   0    8.44    0.66
   5  -2   0   10.38    1.24
  -5  -2   0    8.09    0.92
   5  -2   0    9.07    0.88
   5   2   0    8.83    1.25
   5   2   0    8.99    0.60
   5   2   0    7.64    0.98
  -5   2   0    7.95    0.85
  -5   2   0    8.68    0.69
  -6  -2   0   37.32    2.10
   6  -2   0   37.75    2.10
   6  -2   0   35.26    2.26
  -6  -2   0   42.38    2.57
   6  -2   0   38.76    2.65
  -6   2   0   36.62    2.25
   6   2   0   33.25    2.59
   6   2   0   35.92    2.39
   6   2   0   37.75    2.06
  -6   2   0   35.71    2.14
   7  -2   0   18.95    1.77
  -7  -2   0   16.98    1.65
  -7  -2   0   18.46    1.20
   7  -2   0   19.55    1.24
   7  -2   0   17.43    1.39
   7   2   0   18.26    1.92
   7   2   0   15.78    1.45
   7   2   0   19.00    1.18
  -7   2   0   18.20    1.25
  -7   2   0   20.44    1.43
  -8  -2   0   16.25    1.10
  -8  -2   0   14.99    1.59
   8  -2   0   16.05    1.14
   8  -2   0   15.59    1.33
   8  -2   0   15.73    1.90
   8   2   0   15.18    1.41
  -8   2   0   15.68    1.15
  -8   2   0   15.14    1.30
   8   2   0   15.66    1.10
   8   2   0   17.86    1.96
  -9  -2   0    8.81    0.81
   9  -2   0    7.55    0.99
   9  -2   0    7.14    1.36
  -9  -2   0    7.74    1.39
  -9   2   0    6.46    0.80
   9   2   0    7.08    1.32
  -9   2   0    6.88    0.96
   9   2   0    7.67    1.11
  10  -2   0    1.66    0.63
 -10  -2   0    0.53    0.33
  10  -2   0    0.12    0.75
 -10   2   0    1.15    0.54
 -10   2   0    0.25    0.35
  10   2   0    0.55    0.58
  10   2   0    1.19    0.89
  11  -2   0   13.10    1.99
 -11  -2   0    9.27    0.96
  11  -2   0   10.99    1.38
  11   2   0    8.70    1.30
 -11   2   0   10.48    1.09
  11   2   0    9.67    1.63
 -12  -2   0    0.43    0.35
  12  -2   0    0.70    0.65
  12  -2   0    1.67    1.16
 -12   2   0    0.30    0.42
  12   2   0    1.10    0.64
  12   2   0   -1.02    0.89
   0  -3   0    0.07    0.15
   0  -3   0   -0.36    0.20
   0  -3   0   -0.04    0.46
   0   3   0    0.15    0.44
  -1  -3   0   18.01    1.56
   1  -3   0   17.73    1.16
  -1  -3   0   16.57    0.99
  -1  -3   0   16.74    1.39
   1  -3   0   16.73    1.53
   1  -3   0   18.28    1.11
  -1  -3   0   18.34    1.15
  -1   3   0   18.02    1.31
   1   3   0   17.19    1.32
   2  -3   0    0.21    0.23
  -2  -3   0    0.04    0.21
   2  -3   0    0.24    0.23
  -2  -3   0   -0.02    0.09
  -2  -3   0   -0.02    0.32
   2  -3   0   -0.35    0.32
   2   3   0   -0.08    0.09
  -2   3   0    1.43    0.45
   2   3   0   -0.49    0.30
  -3  -3   0    3.40    0.67
   3  -3   0    5.01    0.91
   3  -3   0    4.49    0.56
  -3  -3   0    3.74    0.48
  -3   3   0    3.76    0.60
   3   3   0    3.85    1.07
  -3   3   0    3.84    0.51
   3   3   0    4.23    0.70
  -4  -3   0    2.51    0.43
   4  -3   0    3.16    0.53
  -4  -3   0    2.50    0.64
   4  -3   0    1.42    0.69
  -4   3   0    2.99    0.54
   4   3   0    3.12    0.63
   4   3   0    1.35    0.56
  -4   3   0    3.62    0.51
   4   3   0    3.05    0.99
  -5  -3   0    6.01    0.68
  -5  -3   0    7.18    1.01
   5  -3   0    6.61    1.20
   5  -3   0    6.77    0.84
   5   3   0    7.27    1.35
   5   3   0    7.11    0.96
   5   3   0    6.56    1.00
  -5   3   0    7.29    0.79
  -5   3   0    6.47    0.82
  -6  -3   0    1.58    0.55
   6  -3   0    1.31    0.74
  -6  -3   0    1.58    0.39
   6  -3   0    1.88    0.52
   6   3   0    2.91    0.72
  -6   3   0    1.30    0.48
   6   3   0    2.13    0.89
  -6   3   0    2.29    0.50
   7  -3   0   23.70    1.76
  -7  -3   0   22.79    1.52
  -7  -3   0   24.64    1.99
   7  -3   0   24.88    2.26
  -7   3   0   21.47    1.64
   7   3   0   23.73    1.89
   7   3   0   22.75    2.48
  -7   3   0   25.00    1.62
   8  -3   0   -0.10    0.67
  -8  -3   0    0.53    0.34
  -8  -3   0    0.46    0.54
   8  -3   0   -0.03    0.42
   8   3   0    1.25    0.59
  -8   3   0   -0.08    0.35
  -8   3   0    0.45    0.44
   8   3   0   -0.98    0.56
  -9  -3   0   26.62    1.75
   9  -3   0   27.86    2.09
   9  -3   0   29.38    2.67
   9   3   0   29.07    2.59
  -9   3   0   28.32    1.86
   9   3   0   23.68    2.11
  10  -3   0    1.92    0.61
 -10  -3   0    1.25    0.44
  10  -3   0    1.37    1.03
  10   3   0   -0.25    0.81
  10   3   0    0.67    0.60
 -10   3   0    1.56    0.51
  11  -3   0    1.16    0.66
 -11  -3   0    1.40    0.46
  11  -3   0    0.09    0.99
  11   3   0    0.99    0.74
 -11   3   0    0.26    0.42
  11   3   0    2.25    1.03
   0  -4   0   13.75    0.91
   0  -4   0   12.00    1.64
   0  -4   0   14.06    1.07
   0   4   0   14.08    1.29
   1  -4   0    0.59    0.68
  -1  -4   0    0.39    0.63
   1  -4   0    0.12    0.22
  -1  -4   0    0.01    0.43
   1  -4   0   -0.20    0.30
  -1  -4   0    0.52    0.33
  -1   4   0    0.20    0.50
   1   4   0    0.59    0.53
   2  -4   0    0.14    0.62
  -2  -4   0    0.15    0.28
   2  -4   0    0.39    0.35
  -2  -4   0    0.05    0.49
   2  -4   0    0.19    0.29
  -2   4   0   -0.32    0.51
   2   4   0    0.11    0.46
  -3  -4   0    0.87    0.38
   3  -4   0    0.47    0.30
  -3  -4   0    0.12    0.46
   3  -4   0    0.12    0.67
   3  -4   0    0.48    0.41
   3   4   0    1.01    0.93
  -3   4   0    0.24    0.46
   3   4   0    0.94    0.53
   4  -4   0    2.72    0.57
  -4  -4   0    3.10    0.82
   4  -4   0    3.03    1.01
  -4  -4   0    4.56    0.65
   4  -4   0    3.85    0.64
   4   4   0    6.08    1.59
   4   4   0    6.18    0.94
  -4   4   0    4.52    0.67
  -4   4   0    3.87    0.72
   4   4   0    3.69    0.85
   5  -4   0    3.35    1.02
   5  -4   0    2.51    0.64
  -5  -4   0    1.23    0.63
  -5  -4   0    3.12    0.53
   5  -4   0    2.89    0.63
   5   4   0    1.97    0.74
  -5   4   0    2.84    0.58
   5   4   0    2.75    0.72
   5   4   0    2.90    1.24
  -5   4   0    1.68    0.57
   6  -4   0    3.69    1.12
  -6  -4   0    2.51    0.53
   6  -4   0    3.81    0.74
  -6  -4   0    1.91    0.77
  -6   4   0    2.22    0.56
  -6   4   0    1.89    0.62
   6   4   0    2.13    1.13
   6   4   0    2.97    0.83
   6   4   0    2.30    0.70
   7  -4   0    1.78    1.05
  -7  -4   0    3.74    0.94
  -7  -4   0    2.52    0.53
   7  -4   0    3.09    0.73
   7   4   0    1.91    0.77
  -7   4   0    2.66    0.62
   7   4   0    1.30    1.03
  -8  -4   0    1.26    0.44
   8  -4   0    2.29    0.66
   8  -4   0    1.60    0.99
  -8   4   0    2.33    0.66
   8   4   0   -0.29    0.87
   8   4   0    2.04    0.82
  -9  -4   0   -0.01    0.36
   9  -4   0   -1.47    0.85
   9  -4   0   -0.20    0.51
   9   4   0   -0.02    0.56
   9   4   0    0.41    0.83
  -9   4   0   -0.28    0.40
 -10  -4   0    3.06    0.60
  10  -4   0    5.64    1.59
  10  -4   0    4.58    1.02
  10   4   0    1.89    0.86
 -10   4   0    1.24    0.60
  10   4   0    3.48    1.38
   0  -5   0    0.07    0.34
   0  -5   0   -0.07    0.53
   0  -5   0   -0.06    0.76
   0   5   0    0.17    0.56
   1  -5   0    3.05    0.68
   1  -5   0    2.70    1.08
  -1  -5   0    3.64    0.65
  -1  -5   0    3.39    0.94
   1   5   0    3.23    0.82
  -1   5   0    3.46    0.86
   2  -5   0    1.02    0.95
   2  -5   0    2.93    0.66
  -2  -5   0    2.74    0.88
  -2  -5   0    2.01    0.53
  -2   5   0    0.88    0.66
   2   5   0    1.62    0.66
   2   5   0    4.98    1.66
   3  -5   0    0.36    0.85
  -3  -5   0   -0.22    0.32
   3  -5   0    0.52    0.44
   3  -5   0    0.08    0.35
  -3  -5   0    0.13    0.55
  -3   5   0   -1.14    0.55
   3   5   0   -0.28    1.25
   3   5   0   -0.31    0.48
   3   5   0    0.81    0.62
   4  -5   0    8.73    0.99
   4  -5   0    7.94    1.66
   4  -5   0    6.81    0.95
  -4  -5   0    7.41    0.92
  -4  -5   0    6.97    1.27
   4   5   0    8.22    1.94
   4   5   0    9.43    1.37
   4   5   0    9.09    1.30
  -4   5   0    5.03    1.01
  -5  -5   0    0.10    0.36
   5  -5   0    0.42    0.47
   5  -5   0   -0.15    0.39
   5  -5   0   -0.04    0.72
  -5  -5   0    0.67    0.63
   5   5   0    0.16    0.56
   5   5   0   -0.34    0.57
   5   5   0   -1.84    1.03
   6  -5   0    1.75    0.60
  -6  -5   0    0.75    0.64
   6  -5   0    2.43    1.09
   6  -5   0    0.93    0.59
  -6  -5   0    0.58    0.42
   6   5   0    0.76    1.11
   6   5   0    3.01    0.83
   6   5   0    0.88    0.73
  -7  -5   0    5.68    0.83
   7  -5   0    8.27    1.17
   7  -5   0    6.42    1.68
   7  -5   0    5.07    0.92
   7   5   0    6.71    1.71
   7   5   0    5.10    1.16
  -7   5   0    5.66    0.94
   8  -5   0    2.91    0.81
  -8  -5   0    3.13    0.65
   8  -5   0    6.95    1.11
   8  -5   0    4.65    1.60
   8   5   0    0.54    1.27
   8   5   0    2.19    0.94
  -8   5   0    3.45    0.80
   0  -6   0    9.66    1.67
   0  -6   0    5.89    0.92
   0   6   0    8.74    1.29
   1  -6   0    0.61    0.73
  -1  -6   0    1.13    0.50
  -1  -6   0    0.80    0.78
   1  -6   0    1.56    0.56
   1  -6   0   -0.06    0.96
   1   6   0    1.01    0.63
  -1   6   0    1.68    0.76
  -2  -6   0    3.74    0.75
   2  -6   0    3.32    0.77
   2  -6   0    6.05    1.60
   2  -6   0    3.00    1.07
  -2  -6   0    2.57    1.00
   2   6   0    4.22    1.08
   2   6   0    4.63    0.98
   2   6   0    4.69    1.88
  -3  -6   0    3.24    1.06
   3  -6   0    2.53    0.69
   3  -6   0    1.87    1.23
  -3  -6   0    2.19    0.65
   3   6   0    2.46    0.92
   3   6   0    1.78    0.74
   3   6   0    1.08    1.47
  -4  -6   0    6.78    1.42
  -4  -6   0    7.11    0.93
   4  -6   0    7.13    1.84
   4  -6   0    6.74    1.03
   4   6   0    5.37    1.16
   4   6   0    7.09    1.19
   4   6   0    3.78    1.67
 -13   0   1    4.59    0.69
  13   0  -1    5.12    0.98
  13   0  -1    3.15    1.22
  12   0  -1    0.79    0.53
 -12   0   1   -0.09    0.29
  12   0  -1    0.12    0.38
 -12   0   1    0.83    1.17
  12   0  -1    0.87    0.89
  11   0  -1    1.09    0.83
  11   0  -1   -0.41    0.37
 -11   0   1    0.31    0.98
 -11   0   1   -0.09    0.28
  11   0  -1    0.29    0.42
 -10   0   1    0.48    0.28
  10   0  -1   -0.64    0.31
 -10   0   1    0.19    0.94
  10   0  -1    0.13    0.59
  10   0  -1   -0.17    0.34
   9   0  -1    0.63    0.41
  -9   0   1    0.21    0.26
   9   0  -1    0.26    0.32
   9   0  -1   -0.59    0.49
  -9   0   1    0.30    0.78
   8   0  -1   -0.16    0.51
  -8   0   1    0.67    0.78
  -8   0   1    0.36    0.23
   8   0  -1   -0.39    0.27
   8   0  -1    0.30    0.33
   7   0  -1    9.64    0.87
  -7   0   1   11.39    0.75
   7   0  -1   12.86    1.37
   7   0  -1   11.61    0.90
  -7   0   1    5.87    1.27
   6   0  -1   -0.43    0.36
   6   0  -1    0.69    0.29
  -6   0   1   -0.48    0.45
  -6   0   1   -0.15    0.14
   6   0  -1   -0.18    0.21
  -5   0   1  316.75   18.50
   5   0  -1  372.01   18.03
  -5   0   1  372.96   17.94
   5   0  -1  361.09   18.05
   5   0  -1  364.21   18.27
   4   0  -1    0.15    0.21
  -4   0   1   -0.10    0.42
   4   0  -1   -0.01    0.32
   4   0  -1    0.02    0.19
  -4   0   1    0.02    0.13
  -3   0   1  137.77    8.03
  -3   0   1  161.59    7.70
   3   0  -1  155.43    7.91
   3   0  -1  155.98    7.76
   2   0  -1   -0.06    0.11
  -2   0   1   -0.15    0.12
   2   0  -1   -0.21    0.22
  -2   0   1   -0.14    0.09
  -2   0   1    0.18    0.31
   0   0   1   -0.08    0.04
   0   0  -1   -0.09    0.01
   0   0  -1   -0.10    0.02
   0   0  -1   -0.05    0.04
   0   0  -1   -0.13    0.03
  -1   0  -1   21.15    1.15
  -1   0  -1   22.56    1.12
   1   0   1   22.07    1.12
  -1   0  -1   21.06    1.17
   1   0   1   21.90    1.18
   1   0   1   21.26    1.15
   1   0   1   20.12    1.17
  -1   0  -1   21.22    1.18
   2   0   1    0.02    0.10
   2   0   1    0.27    0.32
   2   0   1   -0.12    0.14
  -2   0  -1   -0.20    0.24
   2   0   1    0.28    0.18
  -2   0  -1   -0.14    0.31
   2   0   1    0.03    0.21
  -2   0  -1   -0.06    0.10
  -3   0  -1   54.70    2.79
   3   0   1   58.91    2.91
  -3   0  -1   44.67    3.10
   3   0   1   54.93    2.86
   3   0   1   57.59    3.00
  -4   0  -1    0.18    0.15
  -4   0  -1   -0.61    0.39
   4   0   1   -0.04    0.31
   4   0   1   -0.11    0.21
   4   0   1   -0.40    0.20
   5   0   1    2.49    0.55
  -5   0  -1    0.82    0.56
   5   0   1    3.60    0.46
   5   0   1    2.22    0.42
  -5   0  -1    2.23    0.30
   6   0   1    0.07    0.13
   6   0   1    0.20    0.24
   6   0   1    0.14    0.26
   6   0   1    0.10    0.37
  -6   0  -1   -0.04    0.50
  -6   0  -1   -0.25    0.17
   7   0   1   10.88    0.91
  -7   0  -1    5.27    1.30
   7   0   1   11.15    1.31
   7   0   1   10.09    0.87
  -7   0  -1    9.27    0.72
   7   0   1   10.51    0.64
   8   0   1   -0.13    0.30
   8   0   1    0.27    0.58
  -8   0  -1   -0.50    0.57
   8   0   1   -0.20    0.31
  -8   0  -1   -0.04    0.24
   9   0   1    3.84    0.96
   9   0   1    5.05    0.75
  -9   0  -1    5.51    0.63
  -9   0  -1    4.61    1.34
   9   0   1    5.92    0.82
  10   0   1    0.00    0.66
 -10   0  -1    0.14    0.29
  10   0   1   -0.63    0.36
 -10   0  -1   -0.26    0.83
  10   0   1   -0.16    0.40
 -11   0  -1    5.23    0.69
  11   0   1    4.44    1.20
  11   0   1    6.56    0.94
  11   0   1    5.52    0.90
 -12   0  -1   -0.05    0.31
  12   0   1    0.22    0.87
  12   0   1    0.52    0.55
  12   0   1   -0.50    0.51
  13  -1  -1    1.16    0.66
  13  -1  -1    0.78    0.98
 -13  -1   1    0.76    0.44
  13   1  -1    0.57    1.01
 -13   1   1    0.55    0.41
  13   1  -1    1.45    0.68
  12  -1  -1    0.76    0.59
  12  -1  -1    1.66    0.98
 -12  -1   1    0.23    0.33
 -12   1   1    0.73    0.37
  12   1  -1    1.40    0.58
  12   1  -1    0.01    0.84
  12   1  -1    0.06    0.42
 -12   1   1    0.95    1.22
  11  -1  -1    0.42    0.46
 -11  -1   1    2.12    0.46
  11  -1  -1    0.90    0.83
 -11  -1   1    0.35    0.77
 -11   1   1    0.35    0.33
  11   1  -1    1.51    0.88
 -11   1   1   -0.63    0.94
  11   1  -1    0.89    0.56
  11   1  -1    0.98    0.48
 -10  -1   1    4.59    1.31
  10  -1  -1    5.97    0.78
 -10  -1   1    3.86    0.56
  10  -1  -1    4.92    0.80
  10  -1  -1    5.81    1.23
 -10   1   1    2.91    1.34
  10   1  -1    3.41    0.66
  10   1  -1    7.50    1.34
 -10   1   1    4.44    0.61
  10   1  -1    5.50    0.88
   9  -1  -1   -0.01    0.29
   9  -1  -1    0.82    0.68
  -9  -1   1    0.47    0.79
  -9  -1   1   -0.12    0.23
   9  -1  -1    0.14    0.40
   9   1  -1    0.35    0.64
   9   1  -1    0.26    0.38
  -9   1   1   -0.25    0.78
   9   1  -1    0.19    0.40
  -9   1   1    0.28    0.29
   8  -1  -1    0.20    0.25
  -8  -1   1   -0.53    0.53
   8  -1  -1    0.08    0.52
   8  -1  -1    0.09    0.34
  -8  -1   1    0.11    0.22
  -8   1   1    0.27    0.25
  -8   1   1   -0.47    0.67
   8   1  -1    0.37    0.57
   8   1  -1    0.12    0.31
   8   1  -1   -0.09    0.33
   7  -1  -1   24.92    1.44
  -7  -1   1   22.59    1.95
   7  -1  -1   24.06    1.57
   7  -1  -1   25.41    1.90
  -7  -1   1   22.61    1.36
   7   1  -1   23.15    1.61
  -7   1   1   18.12    2.45
   7   1  -1   19.61    1.77
   7   1  -1   23.28    1.46
  -7   1   1   22.36    1.38
   6  -1  -1   15.16    1.00
   6  -1  -1   15.89    1.38
   6  -1  -1   15.51    1.13
  -6  -1   1   15.68    1.43
  -6  -1   1   15.62    0.97
  -6   1   1   12.48    1.91
   6   1  -1   17.27    1.43
   6   1  -1   15.17    1.02
   6   1  -1   15.07    1.18
  -6   1   1   15.67    1.00
   5  -1  -1    8.10    0.59
   5  -1  -1    7.22    0.75
  -5  -1   1    7.94    0.58
   5  -1  -1    7.29    0.96
  -5  -1   1    8.80    0.93
  -5   1   1    6.45    1.34
  -5   1   1    8.19    0.60
   5   1  -1    8.05    1.02
   5   1  -1    8.15    0.87
   4  -1  -1   13.94    0.81
   4  -1  -1   13.75    1.10
  -4  -1   1   13.27    0.82
   4  -1  -1   13.77    0.93
  -4  -1   1   14.82    1.12
   4   1  -1   13.74    1.03
  -4   1   1    9.86    1.51
   4   1  -1   12.11    1.16
  -4   1   1   11.75    0.92
  -4   1   1   13.52    0.83
   4   1  -1   12.61    0.92
   3  -1  -1    0.58    0.33
   3  -1  -1    0.74    0.15
   3  -1  -1    0.69    0.24
  -3  -1   1    0.88    0.20
  -3  -1   1    0.10    0.26
   3   1  -1    0.79    0.25
  -3   1   1   -0.38    0.37
  -3   1   1    0.48    0.18
  -3   1   1    0.70    0.22
   3   1  -1    0.89    0.47
  -3   1   1    0.67    0.16
   2  -1  -1   10.82    0.90
   2  -1  -1   11.29    0.72
   2  -1  -1   12.24    0.76
  -2  -1   1   11.92    0.71
  -2  -1   1   11.81    0.86
  -2   1   1   11.48    0.71
   2   1  -1   12.26    0.83
   2   1  -1   12.13    1.07
  -2   1   1   11.64    0.64
  -2   1   1   12.38    0.71
   2   1  -1   13.19    0.69
   1  -1  -1    2.61    0.42
  -1  -1   1    2.50    0.38
   1  -1  -1    2.70    0.28
  -1  -1   1    2.79    0.28
  -1  -1   1    2.96    0.23
   1  -1  -1    2.58    0.26
  -1   1   1    2.63    0.28
   1   1  -1    2.76    0.24
   1   1  -1    3.31    0.40
  -1   1   1    3.02    0.28
   0  -1  -1   94.29    4.91
   0  -1   1   97.07    4.80
   0  -1   1   95.41    4.80
   0  -1  -1   94.07    4.83
   0  -1   1   95.59    4.97
   0  -1  -1   95.50    4.75
   0   1   1   94.96    4.83
   0   1  -1   92.52    4.79
   0   1  -1   93.55    4.86
   1  -1   1   23.34    1.32
   1  -1   1   23.94    1.48
  -1  -1  -1   23.27    1.36
  -1  -1  -1   23.04    1.27
  -1   1  -1   24.53    1.37
   1   1   1   24.35    1.36
  -1   1  -1   22.90    1.30
   1   1   1   24.06    1.39
   1   1   1   23.96    1.27
  -2  -1  -1   20.79    1.10
  -2  -1  -1   19.47    1.19
   2  -1   1   19.59    1.17
   2  -1   1   20.57    1.14
   2  -1   1   20.70    1.34
  -2  -1  -1   20.04    1.07
  -2   1  -1   20.23    1.22
   2   1   1   19.51    1.24
   2   1   1   18.20    1.33
   2   1   1   20.52    1.06
  -2   1  -1   20.35    1.12
   2   1   1   20.38    1.09
  -3  -1  -1   24.42    1.45
   3  -1   1   20.22    1.36
   3  -1   1   22.68    1.33
   3  -1   1   23.28    1.55
  -3  -1  -1   23.36    1.28
  -3  -1  -1   24.11    1.22
   3   1   1   23.99    1.57
  -3   1  -1   23.73    1.47
  -3   1  -1   23.97    1.31
   3   1   1   23.62    1.46
   3   1   1   23.00    1.27
  -4  -1  -1   30.23    1.60
  -4  -1  -1   25.65    1.49
   4  -1   1   30.68    1.68
   4  -1   1   27.82    1.71
   4  -1   1   30.06    1.93
  -4  -1  -1   30.86    1.87
   4   1   1   31.04    1.62
   4   1   1   30.21    1.81
  -4   1  -1   28.60    1.84
   4   1   1   29.28    1.92
  -4   1  -1   29.48    1.62
  -5  -1  -1    7.08    0.94
  -5  -1  -1    6.64    0.52
   5  -1   1    7.58    0.74
   5  -1   1    6.17    0.91
   5  -1   1    7.63    0.61
  -5   1  -1    6.98    0.87
   5   1   1    6.60    0.93
   5   1   1    6.86    0.55
   5   1   1    5.94    0.77
  -5   1  -1    6.64    0.55
   6  -1   1   54.68    3.32
  -6  -1  -1   48.48    3.34
  -6  -1  -1   52.46    2.86
   6  -1   1   55.36    2.99
   6  -1   1   53.08    3.04
  -6   1  -1   55.86    2.91
   6   1   1   57.69    2.95
   6   1   1   52.21    3.26
   6   1   1   52.77    3.12
  -7  -1  -1    3.65    0.93
  -7  -1  -1    4.59    0.49
   7  -1   1    4.18    0.60
   7  -1   1    4.38    0.63
   7  -1   1    2.66    0.79
   7   1   1    3.84    0.54
  -7   1  -1    2.41    1.04
  -7   1  -1    5.14    0.56
   7   1   1    6.06    0.82
   7   1   1    3.20    0.82
   8  -1   1    2.21    0.79
  -8  -1  -1    2.27    0.89
   8  -1   1    3.02    0.63
  -8  -1  -1    3.13    0.44
   8  -1   1    3.34    0.56
   8   1   1    3.59    0.56
  -8   1  -1    3.32    0.50
   8   1   1    3.26    0.69
   8   1   1    2.82    0.77
  -9  -1  -1    6.06    0.66
   9  -1   1    6.13    0.88
   9  -1   1    6.11    0.80
  -9  -1  -1    3.98    1.18
   9  -1   1    9.31    1.42
   9   1   1    6.68    0.97
  -9   1  -1    5.03    0.67
   9   1   1    7.70    1.27
   9   1   1    5.89    0.75
  10  -1   1    0.49    0.47
  10  -1   1    0.12    0.37
 -10  -1  -1    0.15    0.26
  10  -1   1   -0.59    0.64
  10   1   1    0.28    0.42
  10   1   1   -0.22    0.35
 -10   1  -1    0.16    0.33
  10   1   1   -0.18    0.58
 -10   1  -1    0.66    0.58
 -11  -1  -1    4.56    0.65
  11  -1   1    6.22    1.02
  11  -1   1    3.33    1.13
  11  -1   1    5.37    0.94
 -11   1  -1    4.92    0.70
  11   1   1    4.09    0.87
  11   1   1    4.36    0.75
 -11   1  -1    4.43    0.97
  11   1   1    5.00    1.22
  12  -1   1    2.27    1.06
 -12  -1  -1    1.81    0.49
  12  -1   1    0.87    0.62
  12   1   1    1.21    0.71
 -12   1  -1    2.16    0.77
 -12   1  -1    1.58    0.53
  12   1   1    2.60    1.03
  12  -2  -1    2.62    0.80
 -12  -2   1    1.41    0.46
  12  -2  -1    2.21    1.16
  12   2  -1    2.53    0.85
  12   2  -1    2.83    1.20
 -12   2   1    2.80    0.64
  11  -2  -1    0.80    0.87
 -11  -2   1    2.13    0.46
  11  -2  -1    0.42    0.55
 -11   2   1    2.12    0.54
  11   2  -1    2.95    1.07
  11   2  -1    2.77    0.82
 -10  -2   1    8.06    1.55
 -10  -2   1    7.02    0.80
  10  -2  -1    7.57    1.55
  10  -2  -1    9.14    1.15
  10   2  -1   11.67    1.74
  10   2  -1    8.83    1.23
 -10   2   1    8.49    0.93
   9  -2  -1   10.11    1.53
  -9  -2   1    8.31    0.79
   9  -2  -1    8.79    1.03
  -9  -2   1    5.24    1.26
  -9   2   1    8.18    0.84
   9   2  -1    7.05    1.33
   9   2  -1    6.92    0.77
   9   2  -1    5.90    1.00
  -9   2   1    5.43    0.84
  -8  -2   1    1.89    0.37
  -8  -2   1    1.57    0.68
   8  -2  -1    1.42    0.75
   8  -2  -1    0.12    0.37
   8  -2  -1    2.04    0.45
   8   2  -1    1.11    0.56
  -8   2   1    1.77    0.44
   8   2  -1    1.25    0.79
   8   2  -1    1.28    0.37
  -8   2   1    1.49    0.49
  -7  -2   1    1.77    0.37
  -7  -2   1    1.95    0.68
   7  -2  -1    1.09    0.30
   7  -2  -1    1.13    0.45
   7  -2  -1    2.23    0.80
  -7   2   1    1.12    0.42
   7   2  -1    2.27    0.79
   7   2  -1    0.60    0.48
  -7   2   1    0.99    0.32
   7   2  -1    1.99    0.36
  -6  -2   1    0.70    0.46
   6  -2  -1    0.91    0.24
   6  -2  -1    1.71    0.45
   6  -2  -1    0.38    0.52
  -6  -2   1    1.33    0.31
  -6   2   1    0.74    0.35
   6   2  -1    0.14    0.58
   6   2  -1    0.99    0.48
  -6   2   1    1.10    0.30
   6   2  -1    1.44    0.29
   5  -2  -1    1.90    0.42
   5  -2  -1    1.84    0.57
  -5  -2   1    2.01    0.33
  -5  -2   1    1.49    0.49
   5   2  -1    1.20    0.42
  -5   2   1    1.08    0.29
   5   2  -1    1.56    0.69
  -5   2   1    1.30    0.36
   5   2  -1    1.14    0.44
  -4  -2   1    0.23    0.19
  -4  -2   1    0.23    0.32
   4  -2  -1    0.06    0.42
   4  -2  -1    0.26    0.26
  -4   2   1    0.14    0.19
   4   2  -1   -0.32    0.50
  -4   2   1    0.37    0.25
   4   2  -1    0.37    0.27
  -3  -2   1    2.69    0.55
  -3  -2   1    3.10    0.40
   3  -2  -1    3.72    0.47
   3  -2  -1    3.75    0.67
  -3   2   1    2.97    0.44
  -3   2   1    3.66    0.43
   3   2  -1    2.34    0.79
   3   2  -1    3.00    0.56
  -2  -2   1    2.08    0.23
  -2  -2   1    2.57    0.53
  -2  -2   1    2.20    0.34
   2  -2  -1    2.49    0.36
   2  -2  -1    1.18    0.52
   2   2  -1    1.94    0.50
  -2   2   1    2.69    0.37
   2   2  -1    2.25    0.81
  -2   2   1    2.69    0.41
  -1  -2   1   46.21    2.46
   1  -2  -1   44.53    2.42
  -1  -2   1   46.09    2.79
   1  -2  -1   49.34    2.76
  -1  -2   1   45.78    2.39
  -1  -2   1   44.07    2.67
  -1   2   1   44.92    2.51
   1   2  -1   47.05    2.60
   0  -2  -1    3.91    0.31
   0  -2   1    4.43    0.46
   0  -2   1    3.22    0.67
   0  -2  -1    4.35    0.44
   0  -2  -1    4.35    0.68
   0  -2   1    3.61    0.38
   0   2   1    3.43    0.50
   0   2  -1    3.33    0.53
   1  -2   1   74.60    4.12
   1  -2   1   73.22    3.80
   1  -2   1   70.68    3.79
  -1  -2  -1   74.07    3.64
  -1  -2  -1   73.27    4.07
  -1  -2  -1   73.54    3.77
   1   2   1   73.38    3.89
  -1   2  -1   70.71    3.89
  -1   2  -1   69.32    3.78
  -2  -2  -1   11.32    0.74
   2  -2   1   12.66    1.24
  -2  -2  -1   10.63    0.88
   2  -2   1   11.43    0.81
  -2   2  -1   11.23    0.78
  -2   2  -1    9.55    0.85
   2   2   1   11.34    0.92
   2   2   1   10.78    0.89
   2   2   1   13.25    1.41
  -3  -2  -1   26.49    1.45
   3  -2   1   23.90    1.81
  -3  -2  -1   26.51    1.63
   3  -2   1   24.09    1.54
  -3   2  -1   25.22    1.58
  -3   2  -1   24.09    1.47
   3   2   1   25.43    1.28
   3   2   1   25.29    1.62
   3   2   1   26.73    1.67
   3   2   1   25.53    1.28
   3   2   1   21.28    1.86
   4  -2   1   11.95    1.31
  -4  -2  -1   10.38    0.75
   4  -2   1   10.16    0.83
  -4  -2  -1   11.06    0.95
   4   2   1   12.02    1.01
   4   2   1    9.60    1.24
  -4   2  -1   11.53    0.79
   4   2   1   10.02    0.62
  -4   2  -1   10.39    0.91
   5  -2   1    1.63    0.38
  -5  -2  -1    0.98    0.25
  -5  -2  -1    1.23    0.42
   5  -2   1    1.40    0.62
  -5   2  -1    1.21    0.32
   5   2   1    0.57    0.41
   5   2   1    1.14    0.21
   5   2   1    0.66    0.52
  -5   2  -1    0.36    0.36
   6  -2   1   35.51    2.28
   6  -2   1   40.66    2.68
  -6  -2  -1   35.61    2.07
   6  -2   1   36.76    2.12
  -6  -2  -1   40.43    2.49
   6   2   1   37.26    2.38
  -6   2  -1   35.34    2.30
  -6   2  -1   34.62    2.12
   6   2   1   37.17    2.60
   6   2   1   37.14    2.03
  -7  -2  -1   64.70    4.12
   7  -2   1   68.10    4.28
  -7  -2  -1   67.00    3.63
   7  -2   1   67.62    3.70
   7  -2   1   68.77    3.90
  -7   2  -1   65.33    3.88
   7   2   1   69.04    3.61
   7   2   1   64.95    3.97
   7   2   1   70.40    4.22
  -7   2  -1   70.82    3.72
   8  -2   1   10.86    1.51
  -8  -2  -1    7.76    1.28
   8  -2   1    7.91    0.99
  -8  -2  -1    7.36    0.75
   8  -2   1    8.95    0.91
   8   2   1   10.71    1.51
   8   2   1    7.86    1.09
  -8   2  -1    8.27    1.08
   8   2   1    8.08    0.71
  -8   2  -1    8.34    0.85
   9  -2   1    1.02    0.85
  -9  -2  -1    1.80    0.41
   9  -2   1    1.67    0.60
   9   2   1    1.06    0.60
  -9   2  -1    1.47    0.59
   9   2   1    0.86    0.72
  -9   2  -1    1.33    0.48
 -10  -2  -1    1.90    0.44
  10  -2   1    0.78    0.57
  10  -2   1   -0.04    0.71
  10   2   1    1.44    0.65
 -10   2  -1   -0.20    0.45
  10   2   1    2.02    0.84
 -10   2  -1    1.27    0.51
 -11  -2  -1    0.58    0.32
  11  -2   1   -0.06    0.80
  11  -2   1    0.41    0.58
 -11   2  -1   -0.22    0.33
  11   2   1    1.25    0.63
  11   2   1    0.90    0.91
 -12  -2  -1    1.00    0.42
  12  -2   1    1.63    0.71
  12  -2   1    0.65    0.94
  12   2   1    2.51    0.84
 -12   2  -1    1.42    0.55
  11  -3  -1    0.27    0.56
 -11  -3   1    0.40    0.35
  11  -3  -1   -1.32    0.79
  11   3  -1    0.21    0.90
  11   3  -1    0.20    0.58
 -11   3   1    0.37    0.46
  10  -3  -1    2.80    1.23
  10  -3  -1    4.33    0.88
 -10  -3   1    4.24    0.65
  10   3  -1    3.73    1.31
 -10   3   1    3.76    0.72
  10   3  -1    4.70    1.04
   9  -3  -1   13.07    2.02
  -9  -3   1   18.52    1.86
  -9  -3   1   12.98    1.08
   9  -3  -1   15.73    1.57
   9   3  -1   16.87    2.19
   9   3  -1   13.88    1.64
  -9   3   1   11.80    1.22
   8  -3  -1    3.36    1.05
  -8  -3   1    4.49    1.04
  -8  -3   1    5.34    0.66
   8  -3  -1    4.65    0.83
  -8   3   1    3.08    0.62
   8   3  -1    5.86    1.30
   8   3  -1    5.43    0.99
   7  -3  -1   -0.21    0.62
  -7  -3   1   -0.56    0.27
   7  -3  -1    0.01    0.39
  -7  -3   1    0.00    0.46
   7   3  -1   -0.56    0.29
  -7   3   1    0.86    0.36
  -7   3   1    0.05    0.35
   7   3  -1   -0.50    0.64
  -6  -3   1   55.19    3.37
   6  -3  -1   50.66    3.54
   6  -3  -1   56.07    3.11
  -6  -3   1   50.43    2.90
   6   3  -1   49.68    3.27
  -6   3   1   50.69    2.98
   6   3  -1   49.73    3.17
   6   3  -1   53.36    3.75
  -6   3   1   52.30    2.96
  -5  -3   1   15.80    1.12
   5  -3  -1   17.07    1.88
  -5  -3   1   16.43    1.45
   5  -3  -1   17.19    1.23
  -5   3   1   17.22    1.21
   5   3  -1   15.47    1.34
  -5   3   1   16.74    1.17
   5   3  -1   15.02    1.98
   4  -3  -1   45.47    2.57
  -4  -3   1   47.85    2.86
   4  -3  -1   43.48    3.00
  -4  -3   1   42.23    2.47
   4   3  -1   44.15    2.72
  -4   3   1   44.72    2.55
   4   3  -1   40.88    3.23
  -4   3   1   41.74    2.49
  -3  -3   1    0.58    0.27
   3  -3  -1    0.31    0.26
   3  -3  -1   -0.14    0.45
  -3  -3   1    0.26    0.37
   3   3  -1    0.42    0.71
   3   3  -1    0.30    0.33
  -3   3   1    0.29    0.33
  -3   3   1    0.64    0.28
  -2  -3   1    8.09    1.01
   2  -3  -1    6.90    0.61
   2  -3  -1    7.41    1.08
  -2  -3   1    7.44    0.49
  -2  -3   1    6.85    0.68
  -2   3   1    6.72    0.76
   2   3  -1    6.09    0.85
  -1  -3   1   78.67    4.27
  -1  -3   1   67.23    4.31
   1  -3  -1   73.03    3.82
   1  -3  -1   66.69    4.27
   1  -3  -1   75.08    3.91
  -1  -3   1   70.51    3.77
  -1  -3   1   73.75    3.90
   1   3  -1   75.74    4.11
   0  -3   1    5.96    0.50
   0  -3  -1    7.14    1.04
   0  -3   1    5.55    0.62
   0  -3   1    6.27    1.03
   0  -3  -1    6.41    0.65
   0  -3  -1    5.70    0.44
   0   3  -1    5.62    0.77
   0   3   1    4.90    0.70
   1  -3   1    3.34    0.43
   1  -3   1    3.78    0.83
  -1  -3  -1    3.67    0.27
   1  -3   1    3.04    0.46
  -1  -3  -1    3.89    0.84
  -1  -3  -1    2.94    0.45
  -1  -3  -1    4.10    0.72
   1   3   1    3.39    0.59
  -1   3  -1    2.34    0.54
   2  -3   1    8.59    0.73
  -2  -3  -1    9.16    0.71
  -2  -3  -1    8.69    0.91
   2  -3   1    7.65    1.15
   2  -3   1    9.12    0.85
   2   3   1    8.11    0.93
  -2   3  -1    9.10    0.86
   3  -3   1   -0.10    0.27
  -3  -3  -1    0.58    0.27
   3  -3   1    0.18    0.29
   3  -3   1    1.03    0.58
  -3  -3  -1    0.43    0.37
   3   3   1    0.19    0.41
  -3   3  -1    0.57    0.37
  -3   3  -1    0.16    0.26
   3   3   1    0.53    0.39
   3   3   1    1.30    0.75
   4  -3   1   30.94    1.92
   4  -3   1   29.20    2.32
  -4  -3  -1   31.82    2.09
  -4  -3  -1   30.92    1.79
   4   3   1   31.36    2.51
  -4   3  -1   28.55    1.83
  -4   3  -1   29.29    1.95
   4   3   1   28.70    2.00
   4   3   1   30.31    2.08
   5  -3   1    2.41    0.81
  -5  -3  -1    1.60    0.37
  -5  -3  -1    1.41    0.57
   5  -3   1    1.87    0.49
  -5   3  -1    2.44    0.56
   5   3   1    2.06    0.86
  -5   3  -1    1.40    0.41
   5   3   1    2.18    0.62
  -6  -3  -1    1.24    0.53
   6  -3   1    2.78    0.61
   6  -3   1    3.09    0.94
  -6  -3  -1    2.26    0.43
   6   3   1    2.79    0.75
  -6   3  -1    2.10    0.58
  -6   3  -1    2.04    0.48
   6   3   1    2.15    0.91
   7  -3   1    2.98    0.68
  -7  -3  -1    3.53    0.55
   7  -3   1    2.92    0.99
  -7  -3  -1    4.38    0.87
   7   3   1    3.50    1.11
  -7   3  -1    2.95    0.57
   7   3   1    3.45    0.78
  -7   3  -1    2.81    0.63
   8  -3   1    2.63    0.67
  -8  -3  -1    0.51    0.31
   8  -3   1    1.32    0.92
  -8   3  -1    0.60    0.49
   8   3   1    0.09    0.41
  -8   3  -1    1.13    0.47
   8   3   1    1.18    0.96
  -9  -3  -1    1.46    0.42
   9  -3   1    3.44    1.14
   9  -3   1    0.72    0.59
   9   3   1    1.66    0.70
   9   3   1    2.33    1.03
  -9   3  -1    2.27    0.55
  10  -3   1    0.84    0.58
 -10  -3  -1    0.84    0.39
  10  -3   1    1.68    1.09
  10   3   1    0.06    0.86
 -10   3  -1    1.55    0.52
  10   3   1    0.59    0.60
  11  -3   1    2.41    0.86
  11  -3   1    2.85    1.26
 -11  -3  -1    2.58    0.55
 -11   3  -1    2.85    0.68
  11   3   1    3.08    0.93
  10  -4  -1    2.94    1.31
  10  -4  -1    1.89    0.78
 -10  -4   1    1.35    0.47
  10   4  -1    2.28    0.90
  10   4  -1    0.32    1.17
 -10   4   1    1.21    0.59
   9  -4  -1   -0.02    0.52
   9  -4  -1    1.09    1.02
  -9  -4   1    0.40    0.39
   9   4  -1    0.38    0.69
   9   4  -1   -0.80    0.81
  -9   4   1    0.88    0.50
  -8  -4   1    6.64    1.29
  -8  -4   1    7.98    0.91
   8  -4  -1    7.63    1.66
   8  -4  -1    9.15    1.22
  -8   4   1    7.14    0.96
   8   4  -1    7.94    1.31
   8   4  -1    8.04    1.80
  -7  -4   1    3.06    0.59
   7  -4  -1    3.55    1.14
   7  -4  -1    4.29    0.85
  -7  -4   1    3.49    0.91
   7   4  -1    3.49    0.91
   7   4  -1    4.78    1.49
   7   4  -1    3.79    0.88
  -7   4   1    3.21    0.67
   6  -4  -1    7.36    0.98
   6  -4  -1   10.00    1.63
  -6  -4   1    8.42    0.89
  -6  -4   1    8.27    1.33
   6   4  -1    9.02    1.34
  -6   4   1    8.58    0.96
   6   4  -1    8.58    1.24
   6   4  -1    3.86    1.40
   5  -4  -1    0.12    0.68
  -5  -4   1    0.97    0.37
  -5  -4   1    0.34    0.49
   5  -4  -1    2.01    0.52
   5   4  -1    1.39    0.65
  -5   4   1    0.37    0.38
  -5   4   1    0.91    0.47
   5   4  -1    0.77    0.98
   5   4  -1    1.87    0.67
   4  -4  -1    5.11    0.73
   4  -4  -1    4.96    0.79
  -4  -4   1    5.56    1.03
  -4  -4   1    6.18    0.74
   4  -4  -1    6.58    1.30
   4   4  -1    4.47    1.42
   4   4  -1    6.34    1.01
  -4   4   1    5.48    0.83
   3  -4  -1    8.93    0.98
  -3  -4   1    9.09    0.94
   3  -4  -1    9.22    1.48
   3  -4  -1   10.70    0.88
  -3  -4   1    9.56    1.30
   3   4  -1    7.41    1.65
  -3   4   1    9.22    1.08
   3   4  -1   11.12    1.26
  -2  -4   1   13.08    1.42
   2  -4  -1   15.94    1.07
   2  -4  -1   12.60    1.70
   2  -4  -1   14.46    1.13
  -2  -4   1   15.88    1.11
  -2   4   1   13.72    1.30
   2   4  -1   15.28    1.38
  -1  -4   1    0.44    0.67
  -1  -4   1   -0.81    0.20
  -1  -4   1    0.07    0.17
  -1  -4   1   -0.22    0.38
   1  -4  -1   -0.13    0.20
   1  -4  -1   -0.25    0.53
   1  -4  -1   -0.29    0.26
  -1   4   1   -0.45    0.43
   1   4  -1    0.16    0.54
   0  -4   1    0.19    0.64
   0  -4   1    0.47    0.36
   0  -4  -1    0.87    0.67
   0  -4   1    0.76    0.27
   0  -4  -1    0.67    0.22
   0  -4  -1    0.74    0.37
   0   4   1    0.77    0.54
   0   4  -1    1.53    0.71
   1  -4   1   10.88    1.04
  -1  -4  -1   11.81    1.04
  -1  -4  -1    9.18    1.29
   1  -4   1   11.37    0.85
  -1  -4  -1   10.76    1.54
   1  -4   1   11.63    1.65
  -1   4  -1    9.81    1.20
   1   4   1   10.58    1.22
  -2  -4  -1    0.79    0.49
  -2  -4  -1    0.56    0.36
   2  -4   1   -0.02    0.61
   2  -4   1    0.34    0.31
   2  -4   1    0.60    0.34
  -2   4  -1    0.82    0.53
   2   4   1   -0.19    0.44
   2   4   1   -0.21    0.45
  -3  -4  -1    3.83    0.59
   3  -4   1    3.61    0.62
   3  -4   1    3.46    0.60
   3  -4   1    3.49    1.04
  -3  -4  -1    2.82    0.75
   3   4   1    3.87    1.30
  -3   4  -1    3.79    0.74
   3   4   1    3.93    0.89
   3   4   1    4.22    0.78
  -4  -4  -1    0.52    0.32
   4  -4   1   -0.28    0.31
   4  -4   1    0.10    0.38
  -4  -4  -1    0.83    0.50
   4  -4   1   -0.07    0.61
   4   4   1    0.37    0.83
  -4   4  -1    0.56    0.45
   4   4   1    1.09    0.52
  -4   4  -1    0.42    0.38
   4   4   1   -0.35    0.44
   5  -4   1   -0.79    0.61
   5  -4   1   -0.05    0.37
   5  -4   1   -0.22    0.39
  -5  -4  -1   -0.09    0.27
  -5  -4  -1   -0.28    0.42
   5   4   1    1.05    0.53
   5   4   1    0.12    0.55
   5   4   1   -0.01    1.00
  -5   4  -1    0.08    0.50
  -5   4  -1   -0.18    0.29
  -6  -4  -1   -0.32    0.28
  -6  -4  -1   -0.34    0.41
   6  -4   1    0.24    0.43
   6  -4   1   -0.12    0.40
   6  -4   1    0.16    0.77
   6   4   1    0.58    0.89
   6   4   1   -0.26    0.53
  -6   4  -1    0.84    0.41
  -6   4  -1   -0.36    0.41
   7  -4   1    1.85    1.07
  -7  -4  -1    3.92    0.61
   7  -4   1    3.01    0.80
   7  -4   1    3.03    0.68
  -7   4  -1    4.03    0.70
   7   4   1    2.02    1.07
   7   4   1    4.03    0.89
   8  -4   1    1.59    0.71
  -8  -4  -1    2.74    0.56
   8  -4   1    2.42    1.14
   8   4   1    2.88    0.89
   8   4   1    1.93    1.11
  -8   4  -1    2.73    0.63
  -9  -4  -1    0.09    0.35
   9  -4   1    1.78    1.11
   9  -4   1    0.96    0.68
  -9   4  -1    0.04    0.43
   9   4   1    0.62    1.12
   9   4   1   -0.82    0.50
 -10  -4  -1   12.25    1.16
  10  -4   1    9.21    1.44
  10  -4   1   13.27    2.32
  10   4   1    9.66    1.48
 -10   4  -1    9.90    1.25
   8  -5  -1    1.12    0.74
   8  -5  -1    2.10    0.70
  -8  -5   1    1.12    0.48
   8  -5  -1    1.27    1.09
  -8   5   1    0.51    0.55
   8   5  -1    1.27    1.24
   8   5  -1    1.45    0.82
   7  -5  -1    2.74    1.23
  -7  -5   1    1.77    0.84
  -7  -5   1    2.24    0.56
   7  -5  -1    2.34    0.66
   7  -5  -1    1.06    0.63
   7   5  -1    0.76    0.63
   7   5  -1    0.22    1.11
  -7   5   1    1.93    0.66
   7   5  -1    1.60    0.82
   6  -5  -1    1.69    1.09
   6  -5  -1    0.85    0.53
  -6  -5   1    0.25    0.61
   6  -5  -1    0.44    0.50
  -6  -5   1    0.22    0.42
   6   5  -1    0.44    0.56
   6   5  -1    1.20    0.80
   6   5  -1    2.57    1.43
  -5  -5   1    2.69    0.59
   5  -5  -1    2.95    0.62
   5  -5  -1    0.30    0.87
   5  -5  -1    2.75    0.70
  -5  -5   1    3.34    0.99
   5   5  -1    1.77    0.78
   5   5  -1    1.17    1.37
   5   5  -1    2.32    0.79
   4  -5  -1    0.88    0.46
   4  -5  -1   -0.52    0.65
  -4  -5   1    0.90    0.66
   4  -5  -1    0.97    0.49
  -4  -5   1    0.09    0.38
   4   5  -1   -0.35    0.95
   4   5  -1    0.19    0.60
   4   5  -1    1.09    0.65
  -3  -5   1   10.20    1.53
  -3  -5   1   11.59    1.12
   3  -5  -1    9.22    1.08
   3  -5  -1    9.07    1.75
   3   5  -1   11.29    1.42
   3   5  -1    7.65    2.09
  -3   5   1    9.04    1.22
  -2  -5   1    4.04    1.00
   2  -5  -1    5.21    1.33
   2  -5  -1    2.99    0.68
  -2  -5   1    2.99    0.65
   2   5  -1    5.37    1.83
  -2   5   1    3.49    0.84
   2   5  -1    4.32    0.96
  -1  -5   1   10.68    1.54
   1  -5  -1    7.36    0.96
   1  -5  -1   10.20    1.71
  -1  -5   1    8.30    0.97
  -1   5   1    8.19    1.13
   1   5  -1    8.84    1.28
   0  -5  -1    0.64    0.61
   0  -5   1    0.15    0.59
   0  -5   1   -1.13    0.67
   0  -5  -1   -0.48    0.36
   0  -5   1   -0.10    0.35
   0  -5  -1    1.33    0.97
   0   5   1    0.73    0.51
   0   5  -1   -1.03    0.51
   1  -5   1    4.72    1.28
  -1  -5  -1    3.22    0.94
   1  -5   1    3.34    0.67
  -1  -5  -1    2.79    0.62
   1   5   1    4.00    0.84
  -1   5  -1    3.76    0.99
   1   5   1    3.28    0.83
   2  -5   1   13.47    2.06
  -2  -5  -1   13.70    1.72
   2  -5   1   12.60    1.32
  -2  -5  -1   14.04    1.17
   2   5   1   17.35    2.73
  -2   5  -1   16.39    1.71
   2   5   1   15.01    1.59
   2   5   1   14.48    1.56
   3  -5   1    1.75    0.97
   3  -5   1    1.47    0.52
  -3  -5  -1    0.96    0.44
  -3  -5  -1    1.53    0.72
   3  -5   1    0.78    0.41
   3   5   1    0.29    0.46
   3   5   1    0.20    0.56
   3   5   1   -0.44    1.03
  -3   5  -1   -0.10    0.67
   4  -5   1    1.22    0.48
   4  -5   1    0.66    0.91
  -4  -5  -1    2.11    0.83
   4  -5   1    1.59    0.50
  -4  -5  -1    0.97    0.43
  -4   5  -1    1.76    0.80
   4   5   1    1.15    0.61
   4   5   1    2.07    1.22
   4   5   1    2.06    0.78
   5  -5   1    1.26    0.97
  -5  -5  -1    0.86    0.58
   5  -5   1    0.21    0.42
   5  -5   1    0.43    0.44
  -5  -5  -1    0.22    0.38
   5   5   1    0.35    1.13
   5   5   1    0.78    0.58
   5   5   1   -0.12    0.55
   6  -5   1   -0.35    0.37
   6  -5   1   -0.31    0.79
  -6  -5  -1    0.40    0.38
   6  -5   1    0.02    0.50
   6   5   1    0.24    1.11
   6   5   1    0.12    0.63
   7  -5   1    2.42    0.75
  -7  -5  -1    3.64    0.69
   7  -5   1    5.41    1.06
   7  -5   1    0.44    1.13
   7   5   1    6.73    1.67
   7   5   1    6.00    1.17
  -7   5  -1    2.73    0.77
  -8  -5  -1    0.29    0.46
   8  -5   1    0.76    1.13
   8  -5   1   -0.42    0.49
   8  -5   1    0.57    0.65
   8   5   1    0.80    0.79
  -8   5  -1   -0.19    0.46
   5  -6  -1    2.04    1.28
   5  -6  -1    3.56    0.84
  -5  -6   1    1.22    0.81
  -5  -6   1    3.47    0.72
   5   6  -1    5.63    1.27
   5   6  -1    3.56    0.92
   5   6  -1    2.44    1.61
   4  -6  -1    0.14    1.11
  -4  -6   1   -0.09    0.68
   4  -6  -1    0.62    0.58
  -4  -6   1    1.40    0.56
   4   6  -1    1.17    1.42
   4   6  -1    0.10    0.81
   4   6  -1    1.67    0.76
  -3  -6   1    2.70    1.07
  -3  -6   1    1.24    0.55
   3  -6  -1    2.22    1.23
   3  -6  -1    2.12    0.67
   3   6  -1    2.79    0.85
   3   6  -1    2.15    0.84
   3   6  -1   -0.69    1.20
  -2  -6   1    0.84    0.53
   2  -6  -1    1.53    1.12
   2  -6  -1    0.54    0.52
  -2  -6   1    0.34    0.74
   2   6  -1    2.76    1.61
   2   6  -1    1.93    0.71
  -1  -6   1    3.30    1.08
  -1  -6   1    2.42    0.66
   1  -6  -1    2.39    1.18
   1  -6  -1    2.59    1.01
   1  -6  -1    4.18    0.81
  -1   6   1    3.37    0.75
   1   6  -1    3.85    0.95
   0  -6  -1    0.61    0.46
   0  -6   1    0.67    0.74
   0  -6   1    0.43    0.47
   0  -6  -1   -0.09    0.67
   0   6  -1    0.40    0.63
   0   6   1   -0.16    0.40
  -1  -6  -1    0.58    0.68
  -1  -6  -1    0.61    0.45
   1  -6   1    0.27    0.71
   1  -6   1    0.17    0.43
   1  -6   1    2.60    1.22
  -1   6  -1    0.59    0.81
   1   6   1    1.23    0.54
  -2  -6  -1    5.55    0.83
   2  -6   1    4.49    0.85
  -2  -6  -1    3.90    1.12
   2  -6   1    4.74    1.54
   2  -6   1    3.60    1.18
  -2   6  -1    3.76    1.15
   2   6   1    4.39    1.79
   2   6   1    5.17    1.00
   3  -6   1   16.06    2.57
   3  -6   1   16.74    1.65
  -3  -6  -1   17.01    2.15
  -3  -6  -1   16.68    1.41
   3   6   1   15.41    1.82
   3   6   1   17.84    3.00
   3   6   1   21.09    1.81
  -4  -6  -1   16.73    1.39
   4  -6   1   15.14    2.51
  -4  -6  -1   14.67    2.00
   4  -6   1   17.27    1.67
   4   6   1   21.93    3.17
   4   6   1   16.32    1.90
   4   6   1   17.14    1.96
  13   0  -2   -0.52    0.77
 -13   0   2   -0.15    0.32
 -13   0   2   -0.29    0.87
  13   0  -2    0.18    0.51
  12   0  -2    2.63    1.01
 -12   0   2    1.45    1.27
  12   0  -2    1.95    0.62
 -12   0   2    2.12    0.48
  12   0  -2    1.26    0.54
  11   0  -2   -0.50    0.58
 -11   0   2    0.27    0.27
 -11   0   2    1.23    1.05
  11   0  -2    0.04    0.40
  11   0  -2   -0.09    0.33
  10   0  -2   31.34    2.08
  10   0  -2   33.24    2.06
 -10   0   2   28.97    1.84
  10   0  -2   32.86    2.52
 -10   0   2   25.38    2.84
  -9   0   2    1.08    0.81
   9   0  -2   -0.33    0.32
   9   0  -2   -0.30    0.27
  -9   0   2   -0.43    0.21
   9   0  -2   -0.01    0.50
  -8   0   2    0.10    0.67
   8   0  -2    0.26    0.51
  -8   0   2    0.03    0.21
   8   0  -2    0.18    0.30
   8   0  -2    0.70    0.34
   7   0  -2   -0.20    0.24
   7   0  -2   -0.15    0.25
  -7   0   2    0.20    0.20
  -7   0   2    0.57    0.64
   7   0  -2   -0.04    0.43
   6   0  -2    0.34    0.27
   6   0  -2    1.42    0.53
   6   0  -2    1.25    0.33
  -6   0   2    1.14    0.63
  -6   0   2    1.01    0.24
   5   0  -2   -0.19    0.36
  -5   0   2   -0.09    0.16
   5   0  -2   -0.18    0.11
   5   0  -2   -0.22    0.22
  -5   0   2    0.01    0.53
   4   0  -2    9.59    1.00
   4   0  -2   11.50    0.58
  -4   0   2    9.40    1.02
   4   0  -2    8.45    0.71
  -4   0   2    8.37    0.61
  -3   0   2   -0.31    0.36
   3   0  -2   -0.05    0.28
  -3   0   2   -0.09    0.12
   3   0  -2    0.04    0.10
   3   0  -2   -0.10    0.13
  -2   0   2  290.85   14.86
  -2   0   2  290.53   14.60
   2   0  -2  282.51   14.62
  -2   0   2  297.96   14.61
  -2   0   2  288.39   14.62
   2   0  -2  323.26   14.61
   2   0  -2  274.85   14.76
   1   0  -2    0.05    0.17
  -1   0   2   -0.04    0.17
   1   0  -2    0.02    0.07
  -1   0   2   -0.01    0.08
   1   0  -2    0.11    0.10
   1   0  -2   -0.06    0.09
  -1   0   2   -0.08    0.06
  -1   0   2   -0.03    0.09
   1   0  -2   -0.23    0.17
  -1   0   2   -0.21    0.18
   0   0  -2   61.75    3.11
   0   0  -2   60.05    3.10
   0   0  -2   61.53    3.11
   0   0   2   59.96    3.12
   0   0  -2   60.10    3.15
   0   0   2   60.17    3.10
   0   0   2   61.99    3.10
   0   0  -2   56.34    3.11
   0   0  -2   60.13    3.16
   0   0   2   64.01    3.11
  -1   0  -2   -0.07    0.14
   1   0   2    0.07    0.14
  -1   0  -2    0.16    0.13
   1   0   2   -0.03    0.06
  -1   0  -2   -0.07    0.14
   1   0   2   -0.04    0.14
   1   0   2   -0.11    0.10
   1   0   2   -0.01    0.16
  -1   0  -2   -0.01    0.06
   1   0   2   -0.09    0.05
  -2   0  -2  260.99   12.77
   2   0   2  257.06   12.72
   2   0   2  216.28   12.80
   2   0   2  253.79   12.75
   2   0   2  263.03   12.64
   2   0   2  249.69   12.75
  -2   0  -2  261.16   12.65
   2   0   2  264.44   12.68
   3   0   2   -0.23    0.20
   3   0   2    0.17    0.19
  -3   0  -2   -0.14    0.11
   3   0   2   -0.09    0.12
   3   0   2    0.35    0.28
  -3   0  -2   -0.36    0.35
  -4   0  -2    6.15    0.98
   4   0   2    9.07    0.74
   4   0   2    8.85    0.69
   4   0   2    8.26    0.88
   4   0   2    9.61    0.58
  -4   0  -2    8.86    0.58
  -5   0  -2   -0.25    0.46
   5   0   2    0.12    0.24
   5   0   2   -0.06    0.13
  -5   0  -2   -0.17    0.14
   5   0   2    0.16    0.39
   5   0   2   -0.27    0.23
   6   0   2   45.47    2.31
   6   0   2   42.15    2.48
   6   0   2   42.93    2.54
   6   0   2   41.14    2.67
  -6   0  -2   43.16    2.35
  -7   0  -2    0.22    0.60
  -7   0  -2   -0.01    0.19
   7   0   2   -0.06    0.15
   7   0   2    0.71    0.55
   7   0   2    0.26    0.31
   7   0   2    0.33    0.32
   8   0   2   18.75    1.68
   8   0   2   18.06    1.40
  -8   0  -2   11.22    1.95
   8   0   2   21.72    1.44
  -8   0  -2   18.51    1.20
   9   0   2   -0.09    0.39
  -9   0  -2   -0.23    0.24
   9   0   2   -0.08    0.33
   9   0   2    0.73    0.70
  -9   0  -2   -0.20    0.70
  10   0   2    6.65    1.24
  10   0   2    8.59    1.08
  10   0   2    5.41    0.88
 -10   0  -2    5.97    0.72
  11   0   2   -0.04    0.48
  11   0   2   -0.17    0.70
 -11   0  -2    0.32    0.31
  11   0   2   -0.79    0.38
 -12   0  -2   -0.29    0.29
  12   0   2   -0.69    0.70
  12   0   2   -0.05    0.51
  12   0   2   -0.44    0.46
 -13  -1   2   -0.57    0.28
  13  -1  -2    0.29    0.88
  13  -1  -2   -0.25    0.50
  13   1  -2   -0.11    0.46
 -13   1   2    0.13    0.35
 -13   1   2   -0.07    1.24
  13   1  -2   -0.48    0.99
 -12  -1   2    0.41    0.40
  12  -1  -2    0.54    0.80
 -12  -1   2   -0.32    0.82
  12  -1  -2    0.59    0.56
  12   1  -2    0.67    0.52
  12   1  -2    1.24    0.51
  12   1  -2    0.83    0.93
 -12   1   2    1.02    0.41
 -12   1   2    1.10    1.18
  11  -1  -2    3.47    0.75
 -11  -1   2    2.19    1.17
 -11  -1   2    1.30    0.39
  11  -1  -2    3.81    1.10
  11   1  -2    1.99    0.67
 -11   1   2    0.93    1.18
  11   1  -2    1.89    0.96
  11   1  -2    1.32    0.53
 -11   1   2    1.34    0.42
  10  -1  -2   -0.39    0.39
 -10  -1   2    0.44    0.29
  10  -1  -2    0.39    0.32
  10  -1  -2    0.80    0.76
 -10  -1   2   -0.15    0.64
 -10   1   2    0.00    0.25
  10   1  -2   -0.59    0.61
 -10   1   2    1.20    1.06
  10   1  -2   -0.02    0.38
  10   1  -2    0.29    0.43
  -9  -1   2    2.70    0.44
   9  -1  -2    1.97    0.44
  -9  -1   2    2.00    0.99
   9  -1  -2    2.49    0.84
   9  -1  -2    3.73    0.68
  -9   1   2    2.19    0.43
   9   1  -2    3.18    0.68
   9   1  -2    2.69    0.56
   9   1  -2    4.37    1.02
  -9   1   2    2.97    1.26
  -8  -1   2    6.28    0.64
   8  -1  -2    8.45    0.95
   8  -1  -2    7.03    0.65
  -8  -1   2    5.56    1.26
   8  -1  -2    7.33    1.17
  -8   1   2    6.52    1.58
   8   1  -2    7.86    0.78
  -8   1   2    6.19    0.66
   8   1  -2    7.86    1.18
   8   1  -2    6.97    0.93
  -7  -1   2    0.75    0.25
   7  -1  -2    0.79    0.27
   7  -1  -2    0.91    0.57
   7  -1  -2    0.88    0.37
  -7  -1   2    0.69    0.57
   7   1  -2    0.49    0.38
  -7   1   2   -0.14    0.67
  -7   1   2    0.74    0.25
   7   1  -2    1.32    0.35
   7   1  -2    0.38    0.51
  -6  -1   2    0.36    0.21
  -6  -1   2    0.00    0.41
   6  -1  -2    0.16    0.43
   6  -1  -2    0.46    0.20
   6  -1  -2    0.24    0.27
   6   1  -2    0.95    0.53
   6   1  -2    0.26    0.34
  -6   1   2   -0.69    0.50
  -6   1   2    0.66    0.23
   5  -1  -2    7.57    0.53
   5  -1  -2    7.30    0.97
  -5  -1   2    7.66    0.98
  -5  -1   2    7.37    0.56
   5  -1  -2    7.23    0.72
  -5   1   2    5.33    1.22
   5   1  -2    6.25    0.98
   5   1  -2    8.37    0.86
  -5   1   2    7.34    0.56
   5   1  -2    6.68    0.73
   4  -1  -2   18.29    1.36
  -4  -1   2   18.15    0.93
  -4  -1   2   18.29    1.32
   4  -1  -2   17.13    1.13
   4  -1  -2   17.65    0.99
  -4  -1   2   16.77    1.04
   4   1  -2   18.10    1.46
  -4   1   2   13.27    1.79
  -4   1   2   19.94    1.06
   4   1  -2   16.91    1.16
  -4   1   2   17.79    1.09
  -3  -1   2   61.49    3.14
   3  -1  -2   61.04    3.38
   3  -1  -2   59.99    3.05
  -3  -1   2   62.12    3.38
  -3   1   2   60.30    3.14
   3   1  -2   59.66    3.25
  -3   1   2   61.08    3.11
   3   1  -2   58.95    3.52
  -2  -1   2   10.15    0.65
  -2  -1   2   11.45    0.82
  -2  -1   2   11.16    0.65
   2  -1  -2   10.95    0.84
   2  -1  -2   11.02    0.60
  -2   1   2    9.88    0.63
   2   1  -2   10.48    0.78
  -2   1   2   10.62    0.59
   2   1  -2   10.92    1.12
  -2   1   2    6.62    1.10
  -1  -1   2  219.51   11.20
   1  -1  -2  220.53   11.16
  -1  -1   2  224.97   11.04
  -1  -1   2  219.84   11.04
   1  -1  -2  212.22   11.02
  -1   1   2  220.23   11.02
  -1   1   2  225.17   11.01
  -1   1   2  224.17   11.02
   1   1  -2  216.24   11.13
   0  -1   2  175.02    8.73
   0  -1   2  173.11    8.92
   0  -1  -2  169.42    8.81
   0  -1   2  176.34    8.76
   0   1   2  172.05    8.75
   0   1   2  177.46    8.81
   0   1   2  171.12    8.75
   0   1  -2  176.06    8.83
   1  -1   2  948.83   48.01
   1  -1   2  932.59   47.84
  -1  -1  -2  954.56   48.27
  -1  -1  -2  965.71   47.87
   1  -1   2  976.52   47.89
  -1  -1  -2  950.20   47.99
  -1   1  -2  939.17   47.94
   1   1   2  957.48   47.91
   1   1   2  952.95   47.91
  -1   1  -2  993.10   47.96
   1   1   2 1000.00   47.86
   2  -1   2   36.71    2.07
  -2  -1  -2   32.55    1.78
   2  -1   2   33.57    1.91
  -2  -1  -2   34.50    1.80
  -2  -1  -2   35.28    1.88
   2  -1   2   35.57    1.90
   2   1   2   32.31    1.86
   2   1   2   34.15    1.96
  -2   1  -2   36.60    2.00
   2   1   2   32.62    2.01
   2   1   2   35.93    1.79
   2   1   2   34.09    1.79
  -2   1  -2   35.92    1.85
   3  -1   2    0.65    0.26
   3  -1   2    1.07    0.31
  -3  -1  -2    0.84    0.30
   3  -1   2    1.74    0.51
  -3  -1  -2    0.85    0.19
  -3   1  -2    0.75    0.23
   3   1   2    0.99    0.39
   3   1   2    0.81    0.34
  -3   1  -2    1.25    0.42
   3   1   2    0.97    0.20
  -4  -1  -2    9.72    0.89
   4  -1   2    8.86    0.74
   4  -1   2   10.06    0.80
   4  -1   2    9.25    1.03
  -4  -1  -2   10.26    0.64
   4   1   2    9.41    0.66
  -4   1  -2    9.31    0.91
   4   1   2   10.26    0.90
  -4   1  -2    9.72    0.68
   4   1   2    9.53    0.84
   5  -1   2   34.93    2.07
  -5  -1  -2   35.25    1.94
   5  -1   2   36.35    2.13
  -5  -1  -2   36.45    2.35
   5  -1   2   36.88    2.34
  -5   1  -2   35.29    2.29
   5   1   2   38.90    2.30
   5   1   2   34.20    1.99
  -5   1  -2   34.74    1.98
   5   1   2   36.86    2.20
  -6  -1  -2   12.85    1.38
  -6  -1  -2   14.81    0.94
   6  -1   2   13.14    1.07
   6  -1   2   13.44    1.07
   6  -1   2   15.39    1.41
  -6   1  -2   15.86    0.99
   6   1   2   14.72    1.27
   6   1   2   15.60    1.03
   6   1   2   16.54    1.23
  -6   1  -2   14.48    1.29
  -7  -1  -2    5.26    0.54
  -7  -1  -2    4.08    0.98
   7  -1   2    6.18    0.78
   7  -1   2    4.84    0.68
   7  -1   2    5.13    0.97
  -7   1  -2    4.88    0.57
   7   1   2    4.83    0.77
   7   1   2    4.93    0.88
   7   1   2    6.66    0.69
  -7   1  -2    4.49    0.86
  -8  -1  -2    0.11    0.23
   8  -1   2    0.62    0.63
  -8  -1  -2    1.23    0.73
   8  -1   2    0.18    0.33
   8  -1   2   -0.24    0.36
  -8   1  -2    1.04    0.57
  -8   1  -2    0.34    0.31
   8   1   2    0.30    0.35
   8   1   2    0.28    0.42
   8   1   2    1.74    0.64
  -9  -1  -2    4.55    0.57
   9  -1   2    6.07    0.84
   9  -1   2    5.15    1.19
   9  -1   2    3.82    0.78
  -9   1  -2    4.66    0.64
   9   1   2    4.58    0.68
   9   1   2    5.59    1.07
   9   1   2    4.72    0.84
  -9   1  -2    3.50    0.86
  10  -1   2    1.80    0.56
 -10  -1  -2    2.14    0.46
  10  -1   2    3.03    0.99
  10  -1   2    2.24    0.60
 -10   1  -2    0.96    0.68
  10   1   2    0.20    0.76
 -10   1  -2    1.42    0.46
  10   1   2    1.91    0.66
  10   1   2    1.11    0.47
  11  -1   2    0.61    0.56
  11  -1   2    0.51    0.77
  11  -1   2    0.40    0.51
 -11  -1  -2   -0.08    0.30
 -11   1  -2    1.29    0.44
  11   1   2    0.45    0.75
  11   1   2    1.13    0.61
 -11   1  -2    1.60    0.79
 -12  -1  -2    6.64    0.83
  12  -1   2    6.97    1.15
  12  -1   2    4.70    1.34
  12   1   2    5.98    1.12
 -12   1  -2    5.27    1.12
 -12   1  -2    4.83    0.79
  12  -2  -2    1.57    1.04
 -12  -2   2    0.83    0.40
  12  -2  -2    0.64    0.61
  12   2  -2    0.78    0.64
  12   2  -2    0.79    1.07
 -12   2   2    1.59    0.49
 -11  -2   2    0.83    0.83
  11  -2  -2    3.62    1.13
 -11  -2   2    1.78    0.46
  11  -2  -2    2.31    0.71
 -11   2   2    0.48    0.39
  11   2  -2    1.34    0.99
  11   2  -2    3.09    0.81
  10  -2  -2    2.48    0.63
  10  -2  -2    3.12    1.06
 -10  -2   2    2.92    1.07
 -10  -2   2    1.96    0.44
  10   2  -2    2.12    1.01
 -10   2   2    2.13    0.51
  10   2  -2    2.99    0.78
  -9  -2   2    0.70    0.75
  -9  -2   2    0.27    0.27
   9  -2  -2    0.70    0.75
   9  -2  -2   -0.22    0.35
  -9   2   2    0.61    0.32
   9   2  -2    0.03    0.47
  -9   2   2    0.39    0.36
   9   2  -2    0.93    0.76
   9   2  -2    0.45    0.33
  -8  -2   2    1.77    0.78
   8  -2  -2    2.62    0.61
   8  -2  -2    4.21    1.02
  -8  -2   2    1.68    0.38
   8   2  -2    1.50    0.79
  -8   2   2    2.55    0.53
  -8   2   2    2.05    0.43
   8   2  -2    1.45    0.38
   8   2  -2    2.52    0.70
   7  -2  -2    0.17    0.29
   7  -2  -2    0.18    0.20
   7  -2  -2    1.56    0.68
  -7  -2   2    0.27    0.24
  -7  -2   2   -0.49    0.37
   7   2  -2    0.10    0.60
  -7   2   2    0.16    0.29
  -7   2   2    0.09    0.27
   7   2  -2   -0.52    0.40
  -6  -2   2   13.69    1.31
  -6  -2   2   14.10    0.73
  -6  -2   2   13.46    0.95
   6  -2  -2   14.63    1.11
   6  -2  -2   15.54    1.62
  -6   2   2   13.06    0.97
   6   2  -2   16.78    1.82
   6   2  -2   13.72    1.24
  -6   2   2   13.18    0.96
   6   2  -2   13.61    1.13
   5  -2  -2   20.01    1.29
   5  -2  -2   19.58    1.57
  -5  -2   2   19.94    1.49
  -5  -2   2   14.59    1.10
  -5   2   2   18.45    1.16
   5   2  -2   18.50    1.31
   5   2  -2   17.80    1.91
  -5   2   2   18.40    1.14
  -4  -2   2   15.89    1.01
   4  -2  -2   18.61    1.43
  -4  -2   2   16.11    1.29
   4  -2  -2   16.26    1.11
  -4   2   2   17.39    1.02
  -4   2   2   15.38    0.86
   4   2  -2   14.50    1.18
  -4   2   2   15.01    1.00
   4   2  -2   14.88    1.73
   3  -2  -2   32.39    1.93
  -3  -2   2   34.90    2.15
   3  -2  -2   33.70    2.22
  -3  -2   2   34.34    1.90
  -3   2   2   35.30    1.89
   3   2  -2   33.84    2.09
  -3   2   2   34.84    1.76
  -3   2   2   32.98    1.89
   3   2  -2   32.07    2.47
   2  -2  -2   12.78    1.12
  -2  -2   2   12.56    0.76
   2  -2  -2   12.59    0.83
  -2  -2   2   11.65    1.04
  -2  -2   2   12.58    0.83
   2   2  -2   13.04    1.06
  -2   2   2   12.45    0.86
  -2   2   2   13.09    0.83
   2   2  -2   12.81    1.53
  -1  -2   2    8.07    0.56
  -1  -2   2    7.99    0.79
  -1  -2   2    7.89    0.99
  -1  -2   2    6.52    0.58
   1  -2  -2    7.72    0.55
   1  -2  -2    8.23    0.92
  -1   2   2    8.51    0.68
   1   2  -2    8.60    0.81
   0  -2   2    0.07    0.20
   0  -2  -2    0.07    0.35
   0  -2   2    0.11    0.18
   0  -2  -2    0.26    0.20
   0  -2  -2   -0.11    0.10
   0  -2   2   -0.22    0.43
   0   2  -2    0.02    0.34
   0   2   2   -0.10    0.26
   0   2   2   -0.19    0.24
   1  -2   2    3.97    0.72
  -1  -2  -2    4.06    0.41
   1  -2   2    3.28    0.43
  -1  -2  -2    3.74    0.63
   1  -2   2    4.85    0.50
  -1   2  -2    4.02    0.60
   1   2   2    3.16    0.50
  -1   2  -2    4.21    0.46
   1   2   2    3.75    0.52
   2  -2   2  178.41    9.13
  -2  -2  -2  177.96    9.23
   2  -2   2  178.00    9.17
  -2  -2  -2  179.78    9.07
   2  -2   2  177.77    9.46
  -2   2  -2  180.59    9.12
   2   2   2  176.26    9.51
   2   2   2  176.03    9.22
   2   2   2  182.65    9.26
  -2   2  -2  184.97    9.26
   3  -2   2   37.80    2.52
   3  -2   2   36.44    2.23
  -3  -2  -2   41.68    2.29
  -3  -2  -2   41.15    2.12
  -3   2  -2   38.36    2.16
   3   2   2   36.47    2.52
  -3   2  -2   39.25    2.32
   3   2   2   37.35    2.32
  -4  -2  -2    1.35    0.39
  -4  -2  -2    2.29    0.33
   4  -2   2    2.15    0.44
   4  -2   2    0.65    0.52
   4   2   2    1.48    0.46
  -4   2  -2    1.62    0.45
  -4   2  -2    1.21    0.30
   4   2   2    1.41    0.62
   4   2   2    1.61    0.20
   5  -2   2   16.28    1.21
   5  -2   2   17.14    1.53
  -5  -2  -2   16.15    1.27
   5  -2   2   16.35    1.09
  -5  -2  -2   16.54    1.03
   5   2   2   15.60    1.28
   5   2   2   15.97    1.66
   5   2   2   16.51    0.95
  -5   2  -2   14.00    1.05
  -5   2  -2   14.87    1.23
  -6  -2  -2   15.72    1.37
   6  -2   2   15.65    1.11
   6  -2   2   11.84    1.27
  -6  -2  -2   15.23    1.03
   6  -2   2   14.79    1.69
   6   2   2   17.73    1.37
   6   2   2   18.12    1.58
  -6   2  -2   13.59    1.26
  -6   2  -2   17.06    1.12
   6   2   2   16.92    1.00
  -7  -2  -2    0.90    0.31
   7  -2   2    1.76    0.57
   7  -2   2    0.87    0.72
  -7  -2  -2    1.48    0.67
   7  -2   2    1.53    0.44
   7   2   2    1.38    0.54
  -7   2  -2    1.39    0.55
   7   2   2    1.50    0.66
   7   2   2    1.47    0.32
  -7   2  -2    1.17    0.38
  -8  -2  -2    0.87    0.32
   8  -2   2    1.08    0.53
   8  -2   2    0.59    0.68
   8  -2   2    0.80    0.41
   8   2   2    0.13    0.46
   8   2   2    1.30    0.72
  -8   2  -2    1.01    0.59
  -8   2  -2    1.13    0.43
  -9  -2  -2    1.18    0.37
   9  -2   2   -0.39    0.47
   9  -2   2    0.16    0.38
   9  -2   2    1.54    0.88
   9   2   2    0.69    0.53
  -9   2  -2    0.54    0.39
  -9   2  -2    0.74    0.53
   9   2   2    0.32    0.69
  10  -2   2    5.90    1.01
  10  -2   2    6.11    1.42
 -10  -2  -2    5.66    0.71
 -10   2  -2    4.13    0.94
  10   2   2    7.26    1.14
 -10   2  -2    5.93    0.82
  10   2   2    8.46    1.43
  11  -2   2    0.89    1.04
 -11  -2  -2    0.37    0.35
  11  -2   2    0.66    0.60
 -11   2  -2    0.08    0.42
  11   2   2   -0.35    0.51
 -12  -3   2   -0.29    0.34
 -12   3   2    0.54    0.47
  11  -3  -2   12.58    1.48
 -11  -3   2   11.52    1.13
  11  -3  -2   12.82    2.03
  11   3  -2   10.06    1.49
  11   3  -2   10.31    1.98
 -11   3   2   12.45    1.27
  10  -3  -2    5.82    1.01
 -10  -3   2    5.18    0.72
 -10  -3   2    4.37    1.24
  10  -3  -2    4.50    1.33
 -10   3   2    5.27    0.80
  10   3  -2    6.98    1.66
  10   3  -2    5.61    1.06
   9  -3  -2   49.77    2.94
  -9  -3   2   43.91    3.31
   9  -3  -2   38.94    3.30
  -9  -3   2   41.83    2.54
  -9   3   2   42.37    2.62
   9   3  -2   41.98    3.41
   9   3  -2   44.92    3.03
  -8  -3   2    1.07    0.72
  -8  -3   2    1.42    0.43
   8  -3  -2    2.34    0.66
   8  -3  -2    1.16    0.83
   8   3  -2    0.82    0.88
   8   3  -2    1.26    0.64
  -8   3   2    0.78    0.38
   7  -3  -2   11.98    1.70
   7  -3  -2   11.38    1.22
  -7  -3   2   12.89    1.62
  -7  -3   2   13.16    1.00
   7   3  -2   13.45    1.53
   7   3  -2   15.75    2.06
   7   3  -2   14.01    1.28
  -7   3   2   12.25    1.04
  -7   3   2   13.00    1.04
   6  -3  -2   34.95    2.60
  -6  -3   2   31.96    1.96
   6  -3  -2   31.76    2.10
  -6  -3   2   32.23    2.38
   6   3  -2   30.45    2.18
  -6   3   2   34.58    2.01
  -6   3   2   32.57    1.98
   6   3  -2   36.46    2.88
   5  -3  -2   30.19    1.84
  -5  -3   2   27.17    2.08
   5  -3  -2   28.04    2.24
  -5  -3   2   30.53    1.73
  -5   3   2   27.89    1.74
   5   3  -2   26.28    2.48
   5   3  -2   26.44    1.94
  -5   3   2   27.88    1.72
  -4  -3   2    3.64    0.76
   4  -3  -2    3.03    0.50
   4  -3  -2    2.98    0.78
  -4  -3   2    2.81    0.47
  -4   3   2    3.33    0.51
   4   3  -2    3.16    0.68
   4   3  -2    2.52    1.01
  -4   3   2    2.64    0.48
  -3  -3   2   13.82    1.27
  -3  -3   2   12.50    0.95
   3  -3  -2   15.01    1.58
   3  -3  -2   14.02    1.00
   3   3  -2   14.35    1.23
  -3   3   2   14.53    1.03
   3   3  -2   16.36    2.03
  -3   3   2   12.87    0.96
  -2  -3   2    0.92    0.47
   2  -3  -2    1.13    0.29
  -2  -3   2    0.77    0.21
  -2  -3   2    0.79    0.30
   2  -3  -2    2.14    0.66
   2   3  -2    0.24    0.47
  -2   3   2    0.66    0.36
   1  -3  -2   10.33    1.24
   1  -3  -2   10.73    0.71
   1  -3  -2   10.75    0.81
  -1  -3   2   10.04    0.71
  -1  -3   2   11.95    0.83
  -1  -3   2   10.25    1.07
  -1  -3   2    9.94    1.30
  -1   3   2   10.20    0.87
   1   3  -2    9.40    1.08
   0  -3   2   25.00    1.56
   0  -3   2   25.25    2.00
   0  -3  -2   26.14    1.41
   0  -3  -2   27.71    1.55
   0  -3   2   25.43    1.50
   0  -3  -2   27.01    1.94
   0   3   2   23.90    1.63
   0   3  -2   25.19    1.74
   1  -3   2   12.50    1.49
  -1  -3  -2   12.97    0.68
   1  -3   2   13.04    0.92
  -1  -3  -2   11.79    1.34
   1  -3   2   11.99    0.92
  -1  -3  -2   12.90    0.89
   1   3   2   12.33    1.06
  -1   3  -2   13.69    1.11
   1   3   2   11.69    1.01
   2  -3   2    0.38    0.26
  -2  -3  -2    0.50    0.35
   2  -3   2   -0.02    0.23
  -2  -3  -2    0.41    0.23
   2  -3   2    0.50    0.55
  -2   3  -2   -0.07    0.36
   2   3   2    0.45    0.34
   2   3   2   -0.66    0.56
  -2   3  -2   -0.23    0.24
   2   3   2   -0.74    0.27
  -3  -3  -2    8.41    0.74
   3  -3   2    7.55    0.79
   3  -3   2    7.31    1.20
   3  -3   2    7.80    0.83
  -3  -3  -2    7.70    0.85
   3   3   2    6.60    0.86
  -3   3  -2    8.87    0.82
   3   3   2    6.36    0.90
  -3   3  -2    7.27    0.94
   3   3   2    8.02    1.37
  -4  -3  -2    2.15    0.39
   4  -3   2    2.11    0.50
  -4  -3  -2    2.57    0.61
   4  -3   2    2.08    0.48
   4  -3   2    1.96    0.79
   4   3   2    2.05    0.87
  -4   3  -2    1.88    0.46
   4   3   2    2.01    0.58
  -4   3  -2    1.81    0.54
  -5  -3  -2    1.52    0.35
   5  -3   2    0.99    0.47
  -5  -3  -2    1.02    0.46
   5  -3   2    0.49    0.64
  -5   3  -2    0.78    0.39
  -5   3  -2    0.92    0.45
   5   3   2    0.56    0.46
   5   3   2    0.90    0.82
  -6  -3  -2   12.16    0.92
   6  -3   2   11.39    1.23
  -6  -3  -2   12.31    1.24
   6  -3   2   14.26    1.80
   6   3   2   12.53    1.69
  -6   3  -2   12.40    1.03
   6   3   2   13.62    1.45
  -6   3  -2   10.75    1.22
   7  -3   2    2.40    1.00
   7  -3   2    1.73    0.60
  -7  -3  -2    2.02    0.43
  -7   3  -2    0.92    0.57
  -7   3  -2    2.32    0.52
   7   3   2    2.06    0.91
   7   3   2    2.46    0.65
   8  -3   2    6.74    1.45
  -8  -3  -2    8.59    0.85
   8  -3   2    9.77    1.18
   8   3   2    8.69    1.49
   8   3   2    6.22    1.08
  -8   3  -2    6.82    0.88
  -8   3  -2    5.98    1.01
  -9  -3  -2    0.49    0.33
   9  -3   2    0.12    0.51
   9  -3   2   -0.34    0.96
  -9   3  -2    0.22    0.51
   9   3   2    1.13    0.57
   9   3   2    1.15    0.87
  -9   3  -2   -0.35    0.39
  10  -3   2   10.44    1.36
 -10  -3  -2    7.24    0.84
  10  -3   2    9.05    1.81
  10   3   2    7.05    1.22
 -10   3  -2    7.82    1.02
 -11  -3  -2   -0.43    0.31
  11  -3   2    0.11    0.64
  11  -3   2    0.37    1.03
 -11   3  -2   -0.02    0.43
  11   3   2    0.65    0.60
 -10  -4   2    3.43    0.65
  10  -4  -2    4.53    1.48
  10  -4  -2    4.82    0.98
  10   4  -2    2.42    0.91
 -10   4   2    3.73    0.75
  10   4  -2    3.34    1.33
   9  -4  -2    0.85    0.58
  -9  -4   2    0.95    0.46
  -9  -4   2    0.91    0.73
   9  -4  -2    1.64    1.03
   9   4  -2    1.54    1.11
   9   4  -2   -0.27    0.53
  -9   4   2    0.96    0.44
   8  -4  -2    4.27    1.23
   8  -4  -2    5.02    0.94
  -8  -4   2    5.91    1.26
  -8  -4   2    5.45    0.75
   8   4  -2    5.00    1.09
  -8   4   2    5.16    0.80
   8   4  -2    3.39    1.47
   7  -4  -2    3.54    1.16
  -7  -4   2    3.54    0.96
   7  -4  -2    2.47    0.68
  -7  -4   2    2.59    0.56
   7   4  -2    2.13    0.73
   7   4  -2    3.50    1.36
  -7   4   2    2.94    0.61
   7   4  -2    3.59    0.97
  -6  -4   2    3.62    0.61
   6  -4  -2    2.95    1.06
   6  -4  -2    4.46    0.77
  -6  -4   2    5.61    1.11
   6   4  -2    4.40    0.96
  -6   4   2    4.02    0.68
   6   4  -2    5.76    0.98
   6   4  -2    6.81    1.60
   5  -4  -2    4.83    0.71
  -5  -4   2    5.16    1.02
  -5  -4   2    3.64    0.60
   5  -4  -2    5.20    1.18
   5   4  -2    3.12    1.21
  -5   4   2    3.75    0.62
   5   4  -2    3.58    0.82
  -5   4   2    3.32    0.67
  -4  -4   2   16.25    1.59
  -4  -4   2   15.65    1.20
   4  -4  -2   16.34    1.22
   4  -4  -2   15.50    1.95
  -4   4   2   14.78    1.26
   4   4  -2   15.15    2.31
   4   4  -2   16.91    1.51
   3  -4  -2    1.56    0.78
  -3  -4   2    0.70    0.55
   3  -4  -2    0.62    0.41
   3  -4  -2    0.41    0.33
  -3  -4   2    0.72    0.36
   3   4  -2    1.45    1.12
  -3   4   2    0.37    0.47
   3   4  -2    1.08    0.61
   2  -4  -2    0.11    0.24
  -2  -4   2   -0.25    0.29
   2  -4  -2    0.00    0.56
   2  -4  -2   -0.08    0.29
  -2  -4   2    0.28    0.51
  -2  -4   2    0.06    0.20
  -2   4   2   -0.11    0.43
   2   4  -2    0.23    0.58
   1  -4  -2    6.28    0.60
   1  -4  -2    4.71    0.67
  -1  -4   2    6.80    0.75
  -1  -4   2    5.34    0.56
   1  -4  -2    7.32    1.25
  -1  -4   2    5.37    1.02
  -1  -4   2    7.00    1.28
   1   4  -2    6.00    1.00
  -1   4   2    6.65    0.87
   0  -4  -2    7.79    1.32
   0  -4   2   11.36    1.01
   0  -4   2    7.92    1.25
   0  -4   2    9.08    1.46
   0  -4   2    8.89    0.74
   0  -4  -2   10.32    0.97
   0   4  -2    9.99    1.23
   0   4   2    8.84    1.06
   0   4   2    8.51    1.00
  -1  -4  -2    0.02    0.56
  -1  -4  -2   -0.15    0.26
  -1  -4  -2    0.48    0.48
   1  -4   2    0.69    0.30
   1  -4   2   -0.01    0.31
   1  -4   2    0.34    0.65
  -1   4  -2    0.04    0.49
   1   4   2   -0.01    0.42
   1   4   2    0.59    0.45
   2  -4   2    1.56    0.45
   2  -4   2   -0.11    0.69
  -2  -4  -2    0.79    0.35
  -2  -4  -2    1.13    0.56
   2  -4   2    1.30    0.37
  -2   4  -2    1.59    0.62
   2   4   2    1.16    0.53
   2   4   2    0.62    0.45
  -3  -4  -2    4.07    0.84
   3  -4   2    4.05    0.66
  -3  -4  -2    3.41    0.55
   3  -4   2    6.54    1.27
   3  -4   2    3.40    0.63
   3   4   2    3.16    0.71
   3   4   2    2.45    1.15
   3   4   2    3.07    0.74
  -3   4  -2    3.38    0.75
   4  -4   2   -0.05    0.36
   4  -4   2   -0.12    0.33
   4  -4   2   -0.93    0.36
  -4  -4  -2    0.70    0.36
  -4  -4  -2    1.26    0.53
   4   4   2    0.16    0.44
  -4   4  -2    0.58    0.52
  -4   4  -2    0.10    0.36
   4   4   2    0.14    0.48
   4   4   2    1.87    1.01
   5  -4   2   15.12    1.33
  -5  -4  -2   17.86    1.56
  -5  -4  -2   16.72    1.26
   5  -4   2   17.93    1.48
   5  -4   2   20.81    2.35
   5   4   2   21.42    2.55
  -5   4  -2   19.89    1.42
   5   4   2   16.29    1.74
  -5   4  -2   18.11    1.55
  -6  -4  -2    1.13    0.40
   6  -4   2    0.93    0.91
   6  -4   2    0.89    0.56
   6  -4   2    1.45    0.56
  -6   4  -2    1.38    0.64
   6   4   2    1.42    0.65
  -6   4  -2    0.44    0.44
   6   4   2    1.73    1.03
  -7  -4  -2    1.39    0.43
   7  -4   2    0.93    0.57
   7  -4   2    1.58    1.06
   7  -4   2    2.44    0.60
  -7   4  -2    1.20    0.51
   7   4   2    0.67    0.65
  -7   4  -2    1.61    0.60
   7   4   2   -0.27    0.96
  -8  -4  -2   20.10    1.50
   8  -4   2   24.11    1.96
   8  -4   2   21.60    1.76
   8  -4   2   23.41    2.81
  -8   4  -2   22.88    1.73
   8   4   2   22.20    2.00
   9  -4   2    2.60    0.83
  -9  -4  -2    3.40    0.62
   9  -4   2    1.65    0.66
   9  -4   2    0.92    1.10
  -9   4  -2    2.45    0.70
   9   4   2    2.66    0.91
   8  -5  -2    0.69    0.54
  -8  -5   2    1.62    0.84
   8  -5  -2    0.18    0.56
   8  -5  -2    1.51    1.05
  -8  -5   2    1.48    0.52
  -8   5   2    0.62    0.57
   8   5  -2   -0.62    0.59
   8   5  -2   -0.06    1.23
   7  -5  -2    0.39    0.52
   7  -5  -2    1.04    0.59
   7  -5  -2    2.11    1.14
  -7  -5   2    0.61    0.42
  -7  -5   2    1.66    0.82
   7   5  -2    0.51    1.20
   7   5  -2    0.85    0.65
   7   5  -2    0.76    0.79
  -6  -5   2   -0.46    0.63
   6  -5  -2    0.43    0.51
  -6  -5   2   -0.05    0.36
   6  -5  -2   -0.03    0.39
   6  -5  -2   -0.23    0.84
   6   5  -2    0.64    0.62
   6   5  -2   -0.05    1.13
   6   5  -2    1.41    0.83
   5  -5  -2    0.06    0.41
  -5  -5   2   -0.29    0.65
   5  -5  -2   -0.74    0.69
  -5  -5   2   -0.05    0.35
   5  -5  -2    0.37    0.38
   5   5  -2    0.29    0.53
   5   5  -2    0.39    1.07
   4  -5  -2   -0.04    0.36
   4  -5  -2   -0.70    0.67
   4  -5  -2    0.02    0.41
  -4  -5   2    1.13    0.45
  -4  -5   2    0.10    0.57
   4   5  -2    1.68    0.70
   4   5  -2   -0.22    1.15
  -3  -5   2   45.05    2.78
   3  -5  -2   48.59    3.65
   3  -5  -2   45.97    2.85
  -3  -5   2   46.89    3.37
   3   5  -2   47.86    3.19
  -3   5   2   47.16    3.08
   3   5  -2   42.94    4.15
  -2  -5   2    7.18    0.89
  -2  -5   2    7.46    1.34
   2  -5  -2    5.49    0.84
   2  -5  -2    7.62    1.51
   2   5  -2    9.15    2.17
   2   5  -2    7.71    1.28
  -2   5   2    5.11    0.89
  -1  -5   2    4.69    1.10
   1  -5  -2    3.63    1.10
   1  -5  -2    3.69    0.68
  -1  -5   2    4.40    0.70
  -1   5   2    3.52    0.74
   1   5  -2    4.53    1.05
   0  -5   2    0.44    0.81
   0  -5  -2    1.19    0.45
   0  -5   2   -0.45    0.34
   0  -5   2    0.38    0.62
   0  -5  -2    1.15    0.96
   0  -5  -2    0.52    0.60
   0   5   2   -0.14    0.45
   0   5   2    0.99    0.50
   0   5  -2    0.55    0.71
  -1  -5  -2    4.48    1.01
   1  -5   2    4.11    0.69
   1  -5   2    2.47    0.91
   1  -5   2    3.74    1.15
  -1  -5  -2    3.08    0.64
  -1   5  -2    1.52    0.90
   1   5   2    4.11    0.84
   1   5   2    4.19    0.84
  -2  -5  -2    2.41    0.77
   2  -5   2    1.60    1.08
   2  -5   2    2.07    0.61
   2  -5   2    2.18    0.53
  -2  -5  -2    2.01    0.53
   2   5   2    1.75    0.62
   2   5   2    3.55    1.62
   2   5   2    1.18    0.67
  -2   5  -2    0.41    0.80
  -3  -5  -2    9.92    1.42
   3  -5   2    8.33    1.01
   3  -5   2   10.93    1.90
   3  -5   2    9.18    1.09
  -3  -5  -2    9.95    1.05
   3   5   2    9.02    1.24
   3   5   2    8.61    1.92
   3   5   2    9.64    1.26
  -3   5  -2    8.54    1.34
   4  -5   2    7.44    1.61
   4  -5   2    5.05    0.85
  -4  -5  -2    5.60    1.09
   4  -5   2    4.78    0.86
  -4  -5  -2    4.85    0.74
   4   5   2    5.37    1.62
   4   5   2    6.25    1.07
  -4   5  -2    3.80    0.93
   4   5   2    4.76    1.00
  -5  -5  -2    0.94    0.43
   5  -5   2    0.56    0.51
   5  -5   2    1.72    0.58
   5  -5   2    0.94    0.96
   5   5   2   -0.08    1.22
   5   5   2    0.65    0.73
  -5   5  -2    0.62    0.67
   6  -5   2    0.14    0.58
   6  -5   2   -0.98    0.37
   6  -5   2   -0.56    0.77
  -6  -5  -2    0.07    0.35
   6   5   2   -0.04    0.59
   6   5   2   -1.54    0.85
   7  -5   2    0.95    0.64
  -7  -5  -2    2.12    0.55
   7  -5   2    2.10    0.69
   7  -5   2    1.11    1.17
   7   5   2    0.21    0.64
  -7   5  -2    1.06    0.61
  -5  -6   2    4.23    1.17
   5  -6  -2    0.29    1.11
   5  -6  -2    2.87    0.76
  -5  -6   2    2.37    0.66
   5   6  -2    4.12    1.00
   5   6  -2    3.27    1.90
   5   6  -2    3.47    1.19
   4  -6  -2    2.19    1.23
  -4  -6   2    2.17    1.04
  -4  -6   2    1.81    0.57
   4  -6  -2    2.70    0.71
   4   6  -2    0.24    0.77
   4   6  -2    3.03    0.89
   4   6  -2    1.72    1.44
   3  -6  -2    3.69    0.80
   3  -6  -2    3.52    1.35
  -3  -6   2    4.36    1.21
  -3  -6   2    2.49    0.66
   3   6  -2    1.20    1.55
   3   6  -2    3.78    0.95
   2  -6  -2    6.73    1.01
  -2  -6   2    6.89    0.97
   2  -6  -2    4.51    1.39
  -2  -6   2    5.57    1.37
   2   6  -2    8.78    1.40
   2   6  -2    9.63    2.35
  -1  -6   2    4.82    1.28
   1  -6  -2    1.64    0.93
   1  -6  -2    1.56    1.11
   1  -6  -2    4.23    0.79
  -1  -6   2    2.90    0.70
   1   6  -2    2.81    0.86
   0  -6  -2    1.82    0.97
   0  -6   2    3.96    1.20
   0  -6  -2    3.72    0.77
   0  -6   2    3.91    0.77
   0   6   2    3.94    0.82
   0   6  -2    4.46    1.17
  -1  -6  -2    1.38    0.83
  -1  -6  -2    1.34    0.53
   1  -6   2    2.12    0.61
   1  -6   2    2.20    1.00
   1  -6   2    1.69    1.13
  -1   6  -2    1.15    0.89
   1   6   2    3.32    0.75
   2  -6   2    1.36    0.93
  -2  -6  -2    1.36    0.77
   2  -6   2    1.85    1.17
  -2  -6  -2    0.64    0.44
   2  -6   2    1.65    0.59
   2   6   2    1.49    0.63
   2   6   2    2.63    1.83
  -2   6  -2   -2.03    0.59
   3  -6   2    4.54    1.51
  -3  -6  -2    6.31    1.34
   3  -6   2    6.35    1.00
  -3  -6  -2    5.01    0.88
   3  -6   2    6.35    1.48
   3   6   2    6.51    2.05
   3   6   2    5.19    1.09
   3   6   2    9.28    1.31
   4  -6   2   -1.25    0.92
  -4  -6  -2    0.13    0.45
   4  -6   2    0.15    0.47
   4   6   2    0.73    1.42
   4   6   2   -0.41    0.62
  13   0  -3   11.55    1.84
 -13   0   3    7.54    0.92
  13   0  -3   12.64    1.40
 -12   0   3    0.43    1.03
 -12   0   3   -0.03    0.30
  12   0  -3    0.21    0.79
  12   0  -3    0.52    0.49
  11   0  -3   -0.56    0.64
  11   0  -3    0.04    0.44
  11   0  -3    0.04    0.36
 -11   0   3   -0.42    1.00
 -11   0   3   -0.25    0.23
  10   0  -3   -0.14    0.33
  10   0  -3    0.06    0.40
 -10   0   3    0.10    0.82
  10   0  -3    0.48    0.68
 -10   0   3    0.06    0.24
   9   0  -3    1.08    0.64
   9   0  -3    0.53    0.39
  -9   0   3   -0.28    0.72
   9   0  -3    1.12    0.41
  -9   0   3    0.75    0.29
   8   0  -3   -0.13    0.31
   8   0  -3   -0.27    0.26
  -8   0   3   -0.23    0.58
   8   0  -3   -0.10    0.48
  -8   0   3   -0.10    0.21
  -7   0   3   11.60    1.71
   7   0  -3   14.61    1.35
  -7   0   3   13.50    0.89
   7   0  -3   13.67    1.02
  -6   0   3    0.08    0.18
   6   0  -3    0.11    0.34
  -6   0   3   -0.10    0.48
   6   0  -3    0.37    0.23
   5   0  -3    0.84    0.49
  -5   0   3    0.57    0.60
  -5   0   3    0.85    0.22
   5   0  -3    0.76    0.29
   4   0  -3    0.25    0.28
  -4   0   3   -0.09    0.13
   4   0  -3   -0.04    0.16
  -4   0   3    0.08    0.46
  -3   0   3   70.94    3.45
   3   0  -3   62.82    3.39
  -3   0   3   66.52    3.36
  -3   0   3   63.89    3.37
   3   0  -3   65.32    3.62
  -3   0   3   66.04    3.76
  -2   0   3    0.19    0.34
  -2   0   3    0.06    0.10
   2   0  -3    0.25    0.14
  -2   0   3   -0.05    0.13
   2   0  -3   -0.17    0.27
  -2   0   3   -0.15    0.10
   1   0  -3  481.19   24.97
   1   0  -3  475.11   25.03
  -1   0   3  487.54   24.96
  -1   0   3  482.48   24.97
   1   0  -3  541.39   24.93
  -1   0   3  522.89   25.08
  -1   0   3  468.53   25.05
   1   0  -3  544.94   25.07
  -1   0   3  491.40   24.97
  -1   0   3  510.55   24.96
   0   0  -3   -0.12    0.22
   0   0  -3    0.05    0.15
   0   0   3   -0.05    0.14
   0   0   3   -0.03    0.16
   0   0   3    0.12    0.13
   0   0  -3   -0.07    0.18
   0   0   3   -0.03    0.14
   0   0  -3   -0.19    0.12
   1   0   3  555.85   27.67
  -1   0  -3  576.09   27.64
   1   0   3  543.41   27.64
   1   0   3  534.95   27.70
  -1   0  -3  553.48   27.63
   1   0   3  564.08   27.66
   2   0   3   -0.08    0.07
   2   0   3   -0.18    0.24
   2   0   3    0.15    0.21
   2   0   3    0.38    0.23
  -2   0  -3    0.04    0.19
   2   0   3    0.20    0.18
   2   0   3   -0.24    0.11
  -2   0  -3   -0.10    0.08
   3   0   3   24.82    1.45
   3   0   3   22.37    1.29
   3   0   3   24.18    1.24
   3   0   3   21.84    1.41
   3   0   3   22.52    1.37
  -3   0  -3   23.28    1.26
   4   0   3   -0.19    0.31
   4   0   3   -0.16    0.16
  -4   0  -3   -0.11    0.15
  -4   0  -3   -0.30    0.40
   4   0   3   -0.71    0.20
   4   0   3   -0.05    0.21
   5   0   3   13.59    0.94
   5   0   3   14.01    0.81
  -5   0  -3   13.44    0.82
   5   0   3   11.18    0.96
  -5   0  -3    8.49    1.30
   5   0   3   12.97    1.09
   6   0   3    0.10    0.27
   6   0   3   -0.22    0.36
  -6   0  -3    0.03    0.17
   6   0   3   -0.19    0.24
   6   0   3    0.10    0.17
  -6   0  -3   -0.62    0.47
  -7   0  -3    8.67    0.75
  -7   0  -3    7.03    1.37
   7   0   3   11.63    1.26
   7   0   3   11.53    1.00
   7   0   3    9.93    0.99
   7   0   3   11.34    0.72
   8   0   3   -0.25    0.55
  -8   0  -3   -0.38    0.19
   8   0   3    0.50    0.44
  -8   0  -3   -0.45    0.64
   8   0   3   -0.57    0.31
   9   0   3   27.29    1.94
   9   0   3   27.99    1.88
   9   0   3   26.23    2.20
  -9   0  -3   25.35    1.66
 -10   0  -3   -0.05    0.24
  10   0   3    0.98    0.56
  10   0   3   -0.48    0.38
  10   0   3   -0.15    0.66
  11   0   3    3.84    0.88
  11   0   3    4.69    1.19
 -11   0  -3    4.28    0.68
  11   0   3    4.09    0.83
  12   0   3    0.43    0.56
 -12   0  -3    0.55    0.35
  12   0   3   -0.67    0.47
  13  -1  -3   -0.80    0.80
 -13  -1   3    1.26    0.47
 -13  -1   3    1.62    1.15
  13  -1  -3    1.50    0.70
  13   1  -3    1.37    0.69
  13   1  -3    0.31    0.55
 -13   1   3    1.42    0.48
 -13   1   3   -0.08    1.13
  13   1  -3    0.48    0.97
  12  -1  -3   -0.89    0.67
  12  -1  -3    0.76    0.55
 -12  -1   3    0.27    0.88
 -12  -1   3    0.40    0.33
  12   1  -3    0.23    0.49
  12   1  -3   -0.93    0.39
 -12   1   3    0.10    0.29
 -12   1   3   -0.29    1.17
  12   1  -3    1.72    0.99
  11  -1  -3    1.38    0.54
 -11  -1   3    0.05    0.25
  11  -1  -3    0.15    0.72
 -11  -1   3   -0.20    0.77
 -11   1   3    0.37    0.32
  11   1  -3    0.11    0.74
  11   1  -3    0.53    0.49
  11   1  -3   -0.28    0.42
 -11   1   3    0.49    1.07
 -10  -1   3    0.48    0.30
  10  -1  -3    0.96    0.52
 -10  -1   3    1.26    0.96
  10  -1  -3    0.14    0.61
  10   1  -3    1.59    0.54
  10   1  -3    2.01    0.82
 -10   1   3    0.05    0.95
 -10   1   3    1.02    0.33
  10   1  -3    0.69    0.42
   9  -1  -3    3.75    0.53
   9  -1  -3    3.51    0.94
  -9  -1   3    3.39    0.48
  -9  -1   3    3.40    1.08
   9  -1  -3    2.65    0.63
   9   1  -3    3.88    0.71
   9   1  -3    3.59    0.97
  -9   1   3    3.88    0.54
  -9   1   3    1.03    0.97
   9   1  -3    4.34    0.66
  -8  -1   3    5.86    0.62
   8  -1  -3    6.37    1.11
  -8  -1   3    6.09    1.24
   8  -1  -3    7.17    0.86
   8  -1  -3    8.20    0.66
   8   1  -3   10.03    1.39
  -8   1   3    5.23    1.47
   8   1  -3    5.74    0.84
  -8   1   3    6.28    0.66
  -7  -1   3    7.41    1.19
   7  -1  -3    8.32    1.11
   7  -1  -3    7.66    0.61
  -7  -1   3    6.97    0.60
   7  -1  -3    7.68    0.85
  -7   1   3    5.53    1.38
   7   1  -3    6.28    1.08
  -7   1   3    7.58    0.68
   7   1  -3    9.21    0.99
   6  -1  -3    6.63    0.72
  -6  -1   3    7.02    1.07
   6  -1  -3    5.75    0.91
   6  -1  -3    6.63    0.51
  -6  -1   3    6.45    0.53
  -6   1   3    4.68    1.20
   6   1  -3    6.53    1.04
  -6   1   3    6.98    0.61
   6   1  -3    7.10    0.67
  -5  -1   3   12.68    1.17
  -5  -1   3   11.32    0.75
  -5  -1   3   11.17    0.62
   5  -1  -3   12.12    0.71
   5  -1  -3   11.64    1.22
   5   1  -3    9.85    1.24
  -5   1   3    7.42    1.41
  -5   1   3   12.27    0.77
   5   1  -3   11.27    0.88
  -4  -1   3   36.70    2.00
   4  -1  -3   37.14    1.93
  -4  -1   3   38.46    1.93
  -4  -1   3   36.86    2.34
   4  -1  -3   36.44    2.30
   4   1  -3   38.30    2.48
   4   1  -3   36.16    2.14
  -4   1   3   38.09    2.01
  -4   1   3   37.05    1.97
   3  -1  -3    0.07    0.24
  -3  -1   3    0.19    0.11
  -3  -1   3   -0.01    0.28
  -3  -1   3   -0.08    0.15
   3   1  -3    0.03    0.43
  -3   1   3    0.07    0.07
  -3   1   3   -0.10    0.54
   3   1  -3    0.33    0.29
  -3   1   3    0.11    0.15
  -2  -1   3   54.29    2.83
   2  -1  -3   55.91    2.75
  -2  -1   3   56.08    2.85
   2  -1  -3   54.19    3.00
  -2  -1   3   55.59    3.05
   2  -1  -3   54.10    2.75
   2   1  -3   54.69    3.24
  -2   1   3   53.85    2.81
   2   1  -3   54.14    2.95
  -1  -1   3  246.43   12.09
   1  -1  -3  245.31   12.05
  -1  -1   3  241.46   12.06
   1  -1  -3  242.28   12.04
  -1  -1   3  238.84   12.24
   1  -1  -3  234.93   12.16
   1  -1  -3  235.02   12.04
  -1   1   3  240.64   12.04
   1   1  -3  241.86   12.18
   0  -1   3  338.57   16.75
   0  -1  -3  341.81   16.67
   0  -1   3  332.44   16.87
   0  -1   3  344.52   16.92
   0  -1   3  341.68   16.70
   0  -1  -3  339.72   16.76
   0   1  -3  330.19   16.83
   0   1  -3  318.36   16.70
   0   1   3  328.26   16.74
   0   1   3  326.58   16.73
   1  -1   3  546.60   26.57
  -1  -1  -3  525.64   26.53
   1  -1   3  532.63   26.64
  -1  -1  -3  529.17   26.51
   1  -1   3  517.44   26.76
  -1   1  -3  545.13   26.57
   1   1   3  531.24   26.60
   1   1   3  523.55   26.65
   1   1   3  569.90   26.59
  -1   1  -3  518.54   26.72
   1   1   3  535.95   26.52
   1   1   3  512.34   26.66
  -2  -1  -3   15.31    0.88
   2  -1   3   14.92    0.97
   2  -1   3   14.42    0.89
   2  -1   3   13.79    0.97
   2  -1   3   14.62    1.11
  -2  -1  -3   14.57    0.83
  -2   1  -3   15.66    1.09
  -2   1  -3   15.43    0.89
   2   1   3   14.14    1.01
   2   1   3   14.13    1.01
   2   1   3   15.14    0.87
   2   1   3   15.10    0.85
  -3  -1  -3    6.00    0.56
   3  -1   3    6.05    0.62
   3  -1   3    6.14    0.76
  -3  -1  -3    5.25    0.41
   3  -1   3    6.28    0.65
   3   1   3    7.45    0.72
   3   1   3    6.33    0.68
   3   1   3    6.25    0.45
  -3   1  -3    6.78    0.80
   3   1   3    5.94    0.45
   3   1   3    5.28    0.46
  -3   1  -3    6.00    0.51
   3   1   3    5.50    0.39
   4  -1   3   43.45    2.68
  -4  -1  -3   43.21    2.34
   4  -1   3   44.18    2.50
   4  -1   3   45.33    2.52
  -4  -1  -3   41.51    2.58
   4   1   3   44.96    2.59
  -4   1  -3   42.91    2.68
   4   1   3   45.20    2.40
   4   1   3   48.82    2.34
   4   1   3   43.69    2.58
  -4   1  -3   43.91    2.39
   5  -1   3    1.71    0.57
   5  -1   3    0.83    0.33
  -5  -1  -3    0.76    0.21
   5  -1   3    0.87    0.36
  -5  -1  -3    0.61    0.43
   5   1   3    0.26    0.39
  -5   1  -3    0.73    0.23
   5   1   3    0.80    0.18
   5   1   3    1.03    0.41
  -5   1  -3    0.96    0.46
   5   1   3    0.98    0.28
   6  -1   3    9.93    1.03
  -6  -1  -3   10.37    0.76
   6  -1   3   11.76    1.35
   6  -1   3   11.39    0.95
  -6  -1  -3    9.70    1.28
  -6   1  -3   10.02    1.27
  -6   1  -3   12.17    0.85
   6   1   3   13.43    1.15
   6   1   3   12.49    1.06
   6   1   3   13.12    0.71
   6   1   3   11.42    0.86
   7  -1   3   35.89    2.18
  -7  -1  -3   33.61    1.93
   7  -1   3   36.04    2.48
   7  -1   3   31.46    2.16
  -7   1  -3   33.81    1.99
   7   1   3   32.46    2.23
   7   1   3   37.55    2.39
   7   1   3   34.58    2.06
  -7   1  -3   32.82    2.42
   8  -1   3   13.40    1.31
   8  -1   3   12.51    1.63
   8  -1   3   12.89    1.16
  -8  -1  -3   14.52    0.97
   8   1   3   12.71    1.36
  -8   1  -3   12.29    1.56
   8   1   3   14.77    1.55
  -8   1  -3   12.48    0.98
   8   1   3   12.86    1.04
  -9  -1  -3    7.02    0.72
   9  -1   3    5.42    0.85
   9  -1   3    6.63    1.26
   9  -1   3    7.05    0.94
   9   1   3    7.65    1.16
   9   1   3    5.10    0.93
  -9   1  -3    7.32    1.24
   9   1   3    6.17    0.81
  -9   1  -3    5.15    0.71
 -10  -1  -3    4.87    0.63
  10  -1   3    5.44    1.22
  10  -1   3    4.72    0.87
  10  -1   3    3.76    0.75
  10   1   3    4.89    0.78
 -10   1  -3    4.63    1.04
  10   1   3    3.68    0.84
 -10   1  -3    4.49    0.66
  10   1   3    5.41    1.13
  11  -1   3    0.33    0.89
 -11  -1  -3   -0.07    0.30
  11  -1   3   -0.52    0.40
  11  -1   3   -0.22    0.50
  11   1   3    0.30    0.50
 -11   1  -3    0.50    0.61
 -11   1  -3   -0.23    0.33
  12  -1   3    1.43    0.75
 -12  -1  -3    1.52    0.48
  12  -1   3    2.75    1.14
 -12   1  -3    2.68    0.63
 -12   1  -3    1.88    0.92
  12   1   3    2.88    0.86
  12  -2  -3   -0.23    0.51
  12  -2  -3    0.06    0.83
 -12  -2   3   -0.07    0.29
 -12  -2   3    0.60    0.99
  12   2  -3   -0.50    0.96
 -12   2   3    0.24    0.34
  12   2  -3    0.13    0.54
 -11  -2   3    0.43    0.31
  11  -2  -3    0.99    0.87
 -11  -2   3    0.59    0.95
  11  -2  -3    0.03    0.52
  11   2  -3    0.87    0.84
  11   2  -3   -0.13    0.55
 -11   2   3    0.12    0.32
  10  -2  -3    6.41    1.33
  10  -2  -3    6.39    0.96
 -10  -2   3    4.04    0.59
 -10  -2   3    3.79    1.15
  10   2  -3    5.90    1.33
 -10   2   3    6.28    0.73
  10   2  -3    5.46    0.99
  10   2  -3    4.93    0.71
   9  -2  -3   24.86    1.78
  -9  -2   3   23.66    2.27
  -9  -2   3   23.75    1.51
   9  -2  -3   23.71    2.16
   9   2  -3   23.50    1.56
  -9   2   3   14.71    2.77
  -9   2   3   23.35    1.54
   9   2  -3   24.54    1.90
   9   2  -3   26.55    2.31
  -8  -2   3   22.85    2.11
  -8  -2   3   24.10    1.50
   8  -2  -3   25.08    1.73
   8  -2  -3   24.82    2.11
  -8   2   3   14.62    2.65
   8   2  -3   22.56    1.84
  -8   2   3   24.58    1.54
  -8   2   3   25.41    1.54
   8   2  -3   26.35    2.25
  -7  -2   3   19.70    1.27
  -7  -2   3   21.30    1.82
   7  -2  -3   22.99    1.86
   7  -2  -3   19.98    1.46
  -7   2   3   12.93    2.36
  -7   2   3   19.01    1.29
   7   2  -3   18.83    1.58
   7   2  -3   20.32    2.17
   7   2  -3   21.43    1.52
  -7   2   3   20.51    1.28
   6  -2  -3    7.82    1.13
   6  -2  -3    8.50    0.87
  -6  -2   3    7.58    0.46
  -6  -2   3    7.69    0.64
  -6  -2   3    7.88    1.12
  -6   2   3    7.96    0.62
   6   2  -3    7.05    0.86
  -6   2   3    6.43    0.67
   6   2  -3    7.80    1.31
  -6   2   3    5.96    1.48
   5  -2  -3    4.49    0.60
  -5  -2   3    5.28    0.86
   5  -2  -3    7.04    0.99
  -5  -2   3    4.78    0.51
   5   2  -3    4.22    0.98
  -5   2   3    5.05    0.45
   5   2  -3    4.25    0.67
  -5   2   3    4.70    0.53
  -4  -2   3   59.01    3.06
  -4  -2   3   60.82    3.42
   4  -2  -3   57.67    3.43
   4  -2  -3   59.09    3.13
  -4   2   3   52.81    3.03
  -4   2   3   56.53    2.98
   4   2  -3   55.87    3.68
   4   2  -3   54.66    3.24
  -3  -2   3   34.23    1.79
   3  -2  -3   32.55    2.14
   3  -2  -3   31.96    1.85
  -3  -2   3   32.59    1.83
  -3  -2   3   33.27    2.13
   3   2  -3   29.69    2.42
  -3   2   3   32.53    1.81
  -3   2   3   32.95    1.78
   3   2  -3   31.43    2.04
  -2  -2   3    2.46    0.31
   2  -2  -3    2.09    0.32
  -2  -2   3    2.00    0.54
   2  -2  -3    2.43    0.56
  -2  -2   3    1.70    0.32
  -2   2   3    2.13    0.25
  -2   2   3    1.65    0.28
   2   2  -3    3.01    0.79
   2   2  -3    2.91    0.58
  -2   2   3    1.81    0.31
  -1  -2   3    3.75    0.43
  -1  -2   3    3.70    0.40
  -1  -2   3    3.69    0.65
   1  -2  -3    3.73    0.61
  -1  -2   3    4.60    0.76
   1  -2  -3    3.61    0.36
  -1   2   3    3.42    0.44
  -1   2   3    3.75    0.40
   1   2  -3    3.43    0.55
   0  -2   3   56.09    3.10
   0  -2   3   62.65    3.49
   0  -2  -3   56.53    3.29
   0  -2  -3   59.17    2.99
   0  -2   3   59.65    3.11
   0   2   3   58.38    3.14
   0   2   3   56.25    3.13
   0   2  -3   60.10    3.28
  -1  -2  -3   51.67    2.91
  -1  -2  -3   50.00    2.65
  -1  -2  -3   50.70    2.52
   1  -2   3   51.09    2.72
   1  -2   3   50.90    2.75
   1  -2   3   52.64    3.08
  -1  -2  -3   49.39    2.52
   1   2   3   48.42    2.78
  -1   2  -3   50.32    2.71
   1   2   3   50.03    2.78
  -1   2  -3   49.37    2.87
  -2  -2  -3    0.50    0.19
   2  -2   3    0.67    0.42
   2  -2   3    0.10    0.21
  -2  -2  -3    0.19    0.22
   2  -2   3    0.26    0.25
  -2   2  -3    0.58    0.36
  -2   2  -3    0.18    0.24
   2   2   3    0.11    0.29
   2   2   3    0.86    0.50
   3  -2   3   15.26    1.34
  -3  -2  -3   14.59    1.03
   3  -2   3   13.19    0.97
  -3  -2  -3   14.82    0.90
   3  -2   3   13.69    1.02
   3   2   3   13.69    1.10
  -3   2  -3   14.82    1.15
  -3   2  -3   15.07    0.98
   3   2   3   14.56    0.75
   3   2   3   13.91    1.42
  -4  -2  -3    0.47    0.29
   4  -2   3    0.18    0.24
   4  -2   3    0.07    0.46
  -4  -2  -3    0.45    0.22
  -4   2  -3    0.56    0.26
   4   2   3   -0.15    0.23
  -4   2  -3    0.26    0.38
   4   2   3    0.12    0.43
   4   2   3    0.50    0.14
   5  -2   3    2.63    0.56
  -5  -2  -3    2.95    0.39
  -5  -2  -3    3.06    0.58
   5  -2   3    2.55    0.46
   5  -2   3    2.26    0.75
   5   2   3    3.85    0.36
   5   2   3    2.45    0.70
   5   2   3    2.71    0.63
  -5   2  -3    3.30    0.65
  -5   2  -3    2.82    0.45
   6  -2   3    2.27    0.51
  -6  -2  -3    3.66    0.46
  -6  -2  -3    3.90    0.74
   6  -2   3    2.91    0.64
   6  -2   3    3.71    0.93
  -6   2  -3    2.96    0.68
   6   2   3    3.38    0.68
   6   2   3    3.17    0.77
  -6   2  -3    3.77    0.53
   6   2   3    3.48    0.42
   7  -2   3    2.19    0.63
   7  -2   3    2.63    0.88
  -7  -2  -3    3.65    0.47
   7  -2   3    2.40    0.51
   7   2   3    4.86    0.92
   7   2   3    3.77    0.77
  -7   2  -3    3.20    0.56
  -7   2  -3    3.09    0.73
   7   2   3    2.69    0.46
  -8  -2  -3   19.42    1.35
   8  -2   3   21.13    1.55
   8  -2   3   25.87    2.19
   8  -2   3   22.33    1.71
  -8   2  -3   22.45    1.51
   8   2   3   22.70    1.78
   8   2   3   20.93    1.85
  -8   2  -3   18.64    1.72
  -9  -2  -3    0.78    0.34
   9  -2   3   -0.17    0.80
   9  -2   3    1.18    0.50
   9  -2   3    1.36    0.61
   9   2   3   -0.76    0.54
  -9   2  -3    1.37    0.48
   9   2   3    1.70    0.65
  -9   2  -3    0.83    0.61
 -10  -2  -3    0.75    0.34
  10  -2   3    0.32    0.90
  10  -2   3    0.82    0.62
  10   2   3    0.13    0.53
 -10   2  -3    0.54    0.39
 -10   2  -3    0.25    0.56
  11  -2   3    1.74    1.20
  11  -2   3    0.90    0.75
 -11  -2  -3    1.50    0.45
 -11   2  -3    1.42    0.58
  11   2   3    1.72    0.76
 -11   2  -3    0.90    0.73
 -12  -3   3    2.35    0.55
  12  -3  -3    1.89    0.80
  12  -3  -3    3.66    1.32
  12   3  -3    1.92    1.29
  12   3  -3    4.32    1.06
 -12   3   3    2.96    0.69
  11  -3  -3   -0.01    0.53
 -11  -3   3    0.60    0.86
 -11  -3   3    0.12    0.34
  11  -3  -3   -0.14    0.77
 -11   3   3    0.68    0.42
  11   3  -3   -0.05    0.83
  11   3  -3   -0.19    0.55
  10  -3  -3    9.65    1.24
 -10  -3   3    7.09    1.52
 -10  -3   3    6.74    0.84
  10  -3  -3    7.05    1.52
  10   3  -3    9.21    1.82
 -10   3   3    8.47    0.97
  10   3  -3    8.10    1.33
  -9  -3   3    1.62    0.86
   9  -3  -3    0.93    0.54
  -9  -3   3    0.66    0.35
   9  -3  -3    1.59    0.91
   9   3  -3    1.11    0.82
  -9   3   3    0.88    0.41
   9   3  -3    1.44    0.72
   8  -3  -3   10.74    1.19
  -8  -3   3    9.13    1.46
  -8  -3   3    9.45    0.95
   8  -3  -3   10.33    1.57
   8   3  -3   10.44    1.86
   8   3  -3    9.59    1.23
   8   3  -3   12.41    1.50
  -8   3   3   11.32    1.08
   7  -3  -3   -0.38    0.60
   7  -3  -3    0.25    0.38
  -7  -3   3    0.27    0.60
  -7  -3   3   -0.01    0.26
   7   3  -3    0.43    0.72
   7   3  -3   -0.05    0.48
  -7   3   3   -0.52    0.23
   7   3  -3   -0.20    0.38
  -6  -3   3   40.78    2.32
   6  -3  -3   40.26    2.47
  -6  -3   3   40.27    2.82
   6  -3  -3   37.45    2.87
   6   3  -3   43.18    2.64
  -6   3   3   38.71    2.26
   6   3  -3   39.22    3.21
  -6   3   3   39.74    2.34
  -5  -3   3    0.64    0.30
   5  -3  -3    0.81    0.64
  -5  -3   3    1.43    0.59
   5  -3  -3    0.84    0.37
  -5   3   3    0.86    0.32
   5   3  -3    0.33    0.46
   5   3  -3    0.02    0.72
  -5   3   3    0.75    0.31
  -4  -3   3    0.32    0.27
  -4  -3   3   -0.08    0.37
   4  -3  -3    0.07    0.26
   4  -3  -3    0.31    0.52
  -4   3   3    0.07    0.11
  -4   3   3   -0.07    0.25
  -4   3   3    0.38    0.29
   4   3  -3    0.76    0.80
   4   3  -3    0.34    0.45
  -3  -3   3    2.57    0.65
   3  -3  -3    3.31    0.77
   3  -3  -3    2.89    0.47
  -3  -3   3    2.28    0.32
  -3  -3   3    2.50    0.41
  -3   3   3    2.33    0.30
   3   3  -3    3.38    1.07
   3   3  -3    2.15    0.64
  -3   3   3    1.92    0.42
  -2  -3   3   -0.08    0.19
   2  -3  -3   -0.02    0.19
  -2  -3   3    0.16    0.38
   2  -3  -3   -0.66    0.39
  -2  -3   3   -0.29    0.14
   2   3  -3    0.23    0.45
  -2   3   3    0.31    0.22
  -2   3   3   -0.26    0.25
   1  -3  -3    0.26    0.17
  -1  -3   3    0.32    0.40
   1  -3  -3    0.09    0.23
  -1  -3   3    0.09    0.20
  -1  -3   3   -0.06    0.46
   1  -3  -3   -0.47    0.41
  -1  -3   3    0.37    0.27
  -1   3   3    0.04    0.25
   1   3  -3   -0.27    0.36
  -1   3   3    0.23    0.24
   0  -3   3   12.15    0.90
   0  -3   3   13.94    1.25
   0  -3   3   11.45    1.46
   0  -3  -3   12.13    0.88
   0  -3   3   12.27    0.88
   0  -3  -3   13.01    1.39
   0  -3  -3   12.06    0.73
   0   3   3   12.73    0.97
   0   3   3   13.52    0.99
   0   3  -3   12.38    1.12
   1  -3   3    0.05    0.22
  -1  -3  -3    0.04    0.21
   1  -3   3   -0.11    0.22
   1  -3   3    0.62    0.55
  -1  -3  -3    0.03    0.46
  -1   3  -3   -0.34    0.32
   1   3   3    0.41    0.35
   1   3   3    0.23    0.28
   2  -3   3    1.75    0.41
   2  -3   3    0.97    0.61
   2  -3   3    1.59    0.39
  -2  -3  -3    1.56    0.34
  -2  -3  -3    2.27    0.53
   2   3   3    1.92    0.48
   2   3   3    3.78    1.02
  -2   3  -3    2.70    0.62
   2   3   3    2.56    0.53
  -2   3  -3    1.52    0.39
   3  -3   3    0.61    0.62
   3  -3   3    0.74    0.34
  -3  -3  -3    1.24    0.29
   3  -3   3    1.40    0.42
  -3  -3  -3    1.37    0.43
  -3   3  -3    1.25    0.36
   3   3   3    0.63    0.71
   3   3   3    1.21    0.46
  -3   3  -3    1.31    0.50
  -4  -3  -3   10.77    1.00
  -4  -3  -3   10.48    0.78
   4  -3   3   10.08    1.47
   4  -3   3    9.50    0.95
   4  -3   3    8.78    1.00
  -4   3  -3   10.60    0.98
  -4   3  -3    9.00    1.11
   4   3   3    9.24    1.46
   4   3   3   11.22    1.20
  -5  -3  -3    0.49    0.29
  -5  -3  -3    0.63    0.44
   5  -3   3    1.32    0.78
   5  -3   3    0.42    0.37
   5  -3   3    2.21    0.55
   5   3   3    2.05    0.82
   5   3   3    1.07    0.52
  -5   3  -3    0.17    0.33
  -5   3  -3    0.51    0.49
   6  -3   3    0.43    0.39
   6  -3   3    0.57    0.47
   6  -3   3    1.45    0.81
  -6  -3  -3    0.05    0.27
  -6   3  -3   -0.46    0.45
   6   3   3    0.50    0.65
   6   3   3   -0.42    0.41
  -6   3  -3    0.14    0.29
  -7  -3  -3    0.19    0.26
   7  -3   3    0.31    0.79
   7  -3   3   -0.23    0.30
  -7   3  -3    0.17    0.33
  -7   3  -3   -0.12    0.44
   7   3   3   -0.02    0.47
   7   3   3    0.39    0.64
  -8  -3  -3    9.16    0.89
   8  -3   3    9.73    1.71
   8  -3   3   11.79    1.34
   8   3   3    8.15    1.25
  -8   3  -3    7.57    0.98
   8   3   3    9.77    1.51
  -8   3  -3    6.62    1.14
  -9  -3  -3    3.14    0.52
   9  -3   3    1.65    1.03
   9  -3   3    1.81    0.68
   9   3   3    1.54    0.71
  -9   3  -3    3.42    0.66
  -9   3  -3    1.74    0.76
  10  -3   3    2.46    0.84
  10  -3   3    4.03    1.33
 -10  -3  -3    3.31    0.58
 -10   3  -3    2.10    0.67
  10   3   3    2.16    0.79
 -10  -4   3    0.52    0.42
 -10  -4   3    0.03    0.76
  10  -4  -3   -1.29    0.68
  10  -4  -3    0.47    0.58
 -10   4   3    0.08    0.42
  10   4  -3   -0.22    1.13
  10   4  -3    0.82    0.75
  -9  -4   3    0.58    0.75
  -9  -4   3    0.60    0.42
   9  -4  -3    0.04    0.80
   9  -4  -3    1.13    0.62
  -9   4   3    0.86    0.48
   9   4  -3   -0.74    0.49
   9   4  -3    0.98    1.16
   8  -4  -3   -0.39    0.70
  -8  -4   3   -0.33    0.34
   8  -4  -3    0.56    0.52
  -8  -4   3   -0.15    0.59
   8   4  -3    0.49    0.95
   8   4  -3   -0.06    0.60
   8   4  -3    0.55    0.52
  -8   4   3   -0.25    0.34
  -7  -4   3    4.36    1.07
  -7  -4   3    3.62    0.61
   7  -4  -3    3.45    0.73
   7  -4  -3    3.90    1.20
  -7   4   3    3.30    0.65
   7   4  -3    3.24    1.40
   7   4  -3    4.98    0.97
   7   4  -3    6.55    1.18
  -6  -4   3    3.12    0.58
   6  -4  -3    2.83    0.96
   6  -4  -3    2.61    0.61
  -6  -4   3    2.56    0.84
   6   4  -3    2.87    0.78
  -6   4   3    2.09    0.51
   6   4  -3    1.56    1.15
   5  -4  -3    7.40    0.89
  -5  -4   3    5.44    0.72
  -5  -4   3    6.31    1.13
   5  -4  -3    6.62    1.35
  -5   4   3    5.57    0.74
   5   4  -3    6.08    1.04
   5   4  -3    5.04    1.51
   4  -4  -3    0.81    0.38
  -4  -4   3    0.56    0.57
   4  -4  -3    0.26    0.67
  -4  -4   3    0.76    0.36
   4   4  -3   -0.11    0.51
  -4   4   3    0.36    0.41
   4   4  -3    0.54    0.99
   3  -4  -3   13.72    1.73
  -3  -4   3   12.69    1.00
   3  -4  -3   12.50    0.98
  -3  -4   3   12.59    1.39
   3   4  -3   12.16    1.45
  -3   4   3   11.44    1.03
   3   4  -3   10.33    2.04
   2  -4  -3    0.44    0.60
  -2  -4   3   -0.26    0.16
   2  -4  -3    0.13    0.24
  -2  -4   3    0.13    0.29
   2  -4  -3   -0.19    0.29
  -2  -4   3   -0.32    0.41
   2   4  -3    0.08    0.58
  -2   4   3    0.32    0.31
  -2   4   3    0.19    0.38
  -1  -4   3    2.47    0.72
   1  -4  -3    2.78    0.52
  -1  -4   3    2.00    0.89
   1  -4  -3    2.03    0.35
   1  -4  -3    1.63    0.76
  -1  -4   3    2.17    0.45
  -1  -4   3    1.95    0.38
   1   4  -3    2.44    0.79
  -1   4   3    1.64    0.48
  -1   4   3    1.45    0.50
   0  -4   3    2.27    0.88
   0  -4   3    2.42    0.44
   0  -4   3    1.94    0.73
   0  -4   3    2.71    0.51
   0  -4  -3    2.00    0.76
   0  -4  -3    1.94    0.44
   0   4  -3    2.62    0.75
   0   4   3    2.38    0.56
   0   4   3    1.90    0.52
  -1  -4  -3    0.94    0.65
  -1  -4  -3   -0.11    0.40
   1  -4   3   -0.31    0.23
  -1  -4  -3    0.25    0.29
   1  -4   3    0.32    0.35
   1  -4   3    0.01    0.63
   1   4   3   -0.26    0.35
  -1   4  -3    0.60    0.56
   1   4   3    0.04    0.33
   2  -4   3    1.15    0.76
  -2  -4  -3    0.33    0.48
  -2  -4  -3    0.66    0.33
   2  -4   3    0.11    0.37
   2  -4   3    0.51    0.35
   2   4   3    0.33    0.39
   2   4   3    0.47    0.44
  -2   4  -3    0.70    0.53
   2   4   3   -0.28    0.91
  -3  -4  -3    1.97    0.62
  -3  -4  -3    1.97    0.47
   3  -4   3    0.82    0.44
   3  -4   3    1.26    0.46
   3  -4   3    1.47    0.85
   3   4   3    2.68    0.72
   3   4   3    2.26    0.63
   3   4   3    1.55    1.07
  -3   4  -3    1.60    0.61
  -4  -4  -3    1.35    0.41
   4  -4   3    0.36    0.35
   4  -4   3    0.39    0.80
   4  -4   3   -0.17    0.34
  -4  -4  -3   -0.03    0.43
  -4   4  -3    0.35    0.53
   4   4   3   -0.34    0.41
  -4   4  -3   -0.05    0.35
   4   4   3   -0.11    0.84
   5  -4   3    5.14    0.85
  -5  -4  -3    5.23    0.65
   5  -4   3    4.89    0.77
   5  -4   3    2.48    1.02
  -5   4  -3    4.00    0.71
   5   4   3    5.19    1.31
   5   4   3    4.25    0.91
  -5   4  -3    2.73    0.80
   6  -4   3    0.70    0.92
   6  -4   3    1.71    0.53
  -6  -4  -3    0.29    0.32
   6  -4   3    1.31    0.58
  -6   4  -3    0.98    0.62
   6   4   3    0.77    0.60
  -6   4  -3    1.32    0.54
   6   4   3   -0.64    0.75
   7  -4   3   -0.01    0.47
   7  -4   3    0.16    0.93
  -7  -4  -3    0.57    0.37
   7  -4   3    0.73    0.52
  -7   4  -3    0.56    0.52
   7   4   3    0.86    0.64
  -7   4  -3    0.64    0.46
  -8  -4  -3    0.13    0.35
   8  -4   3    1.05    0.57
   8  -4   3    0.32    0.98
   8  -4   3    0.00    0.56
  -8   4  -3    0.66    0.50
   8   4   3   -0.04    0.56
   9  -4   3   -0.12    0.53
   9  -4   3   -0.26    0.56
  -9  -4  -3   -0.13    0.33
   9  -4   3    0.66    1.02
   9   4   3   -0.33    0.55
  -9   4  -3    0.43    0.46
   8  -5  -3    4.93    0.96
  -8  -5   3    4.83    1.27
  -8  -5   3    5.87    0.86
   8  -5  -3    4.50    1.52
   8   5  -3    6.56    1.91
   8   5  -3    6.28    1.15
   8   5  -3    5.36    1.25
  -8   5   3    3.94    0.83
   7  -5  -3    8.10    1.74
   7  -5  -3    7.48    1.07
  -7  -5   3    7.30    0.94
  -7  -5   3    6.81    1.39
   7   5  -3   10.87    2.39
   7   5  -3    8.23    1.35
   7   5  -3    7.80    1.47
  -6  -5   3   10.02    1.10
   6  -5  -3    6.56    1.63
  -6  -5   3    8.79    1.55
   6  -5  -3    9.91    1.18
   6  -5  -3    9.33    1.24
   6   5  -3   12.37    1.60
   6   5  -3    8.50    2.05
  -5  -5   3    0.10    0.71
   5  -5  -3   -0.16    0.33
   5  -5  -3   -0.72    0.68
  -5  -5   3   -0.24    0.36
   5  -5  -3   -0.34    0.44
   5   5  -3   -0.04    0.58
   5   5  -3    1.67    1.33
  -4  -5   3    3.00    0.59
  -4  -5   3    2.47    0.92
   4  -5  -3    4.45    1.28
   4  -5  -3    2.60    0.63
   4   5  -3    2.22    1.41
   4   5  -3    4.20    1.00
  -3  -5   3   11.49    1.71
   3  -5  -3   15.91    1.44
  -3  -5   3   14.03    1.19
   3  -5  -3   15.98    2.18
   3   5  -3   15.95    2.76
   3   5  -3   17.60    1.90
   2  -5  -3    5.00    1.29
  -2  -5   3    5.06    1.17
   2  -5  -3    5.88    0.86
  -2  -5   3    6.68    0.87
   2   5  -3    6.15    1.20
  -2   5   3    5.01    0.79
   2   5  -3    6.50    1.93
  -1  -5   3   11.82    1.16
  -1  -5   3    9.19    1.54
   1  -5  -3   12.13    1.19
   1  -5  -3   12.19    1.80
   1   5  -3   11.07    1.56
  -1   5   3   11.52    1.23
   0  -5   3    0.27    0.48
   0  -5   3    1.05    0.96
   0  -5  -3   -0.12    0.49
   0  -5   3   -0.24    0.39
   0  -5  -3    0.69    0.43
   0  -5  -3   -0.19    0.68
   0   5   3    0.73    0.47
   0   5   3    0.07    0.36
   0   5  -3   -0.96    0.58
   1  -5   3   -0.02    0.58
   1  -5   3    1.01    0.45
   1  -5   3    0.12    0.33
  -1  -5  -3   -0.05    0.35
  -1  -5  -3   -0.23    0.51
   1  -5   3   -0.53    0.69
  -1   5  -3   -0.67    0.62
   1   5   3    0.22    0.43
   1   5   3    0.21    0.45
   2  -5   3    0.96    0.83
  -2  -5  -3    1.14    0.66
   2  -5   3    0.43    0.35
  -2  -5  -3    0.15    0.33
   2  -5   3    0.72    0.45
   2   5   3    1.58    1.26
  -2   5  -3    0.09    0.67
   2   5   3   -0.20    0.53
   2   5   3    1.03    0.53
   3  -5   3    1.34    0.54
  -3  -5  -3    0.33    0.35
   3  -5   3    2.00    1.06
  -3  -5  -3    0.24    0.57
   3  -5   3    1.48    0.52
  -3   5  -3    0.77    0.73
   3   5   3    0.84    0.66
   3   5   3    0.35    1.16
   3   5   3    2.62    0.73
  -4  -5  -3    3.56    0.66
   4  -5   3    2.96    1.21
   4  -5   3    1.95    0.62
   4  -5   3    2.22    0.64
   4   5   3    0.74    0.66
   4   5   3    3.25    1.47
  -4   5  -3    2.93    0.88
   5  -5   3    1.04    0.56
  -5  -5  -3    0.71    0.41
   5  -5   3    0.58    0.50
   5  -5   3    0.70    0.93
   5   5   3    2.39    1.29
   5   5   3    1.08    0.67
  -5   5  -3    1.45    0.69
  -6  -5  -3    0.71    0.42
   6  -5   3    0.89    0.59
   6  -5   3    0.88    0.61
   6  -5   3    0.26    0.95
   6   5   3    0.03    0.51
   7  -5   3   -0.49    0.44
  -7  -5  -3    0.96    0.46
   7  -5   3    0.20    0.56
   7  -5   3    0.83    1.17
  -7   5  -3    0.52    0.52
   7   5   3   -0.05    0.58
   5  -6  -3    1.22    0.60
  -5  -6   3    1.30    0.88
   5  -6  -3    0.69    1.08
  -5  -6   3    1.72    0.57
   5   6  -3    2.13    0.95
   5   6  -3    1.71    0.85
   5   6  -3    2.15    1.63
  -4  -6   3    6.08    1.46
   4  -6  -3    8.45    1.16
  -4  -6   3    6.76    0.98
   4  -6  -3    6.72    1.76
   4   6  -3    6.81    2.20
   4   6  -3    8.18    1.42
  -3  -6   3    0.97    0.80
   3  -6  -3    0.99    1.17
  -3  -6   3    0.50    0.44
   3  -6  -3    1.08    0.59
   3   6  -3    0.14    1.28
   3   6  -3    1.63    0.84
  -2  -6   3    0.43    0.48
   2  -6  -3    0.48    0.53
   2  -6  -3    0.72    0.93
  -2  -6   3   -0.09    0.68
   2   6  -3    1.30    0.82
   2   6  -3   -0.63    1.11
   1  -6  -3    0.58    0.79
   1  -6  -3    0.44    0.97
  -1  -6   3    0.06    0.73
  -1  -6   3   -0.51    0.33
   1  -6  -3   -0.01    0.42
   1   6  -3   -0.71    0.65
   0  -6  -3   -0.04    0.40
   0  -6   3    0.29    0.68
   0  -6  -3   -0.42    0.56
   0  -6   3    0.94    0.53
   0   6  -3   -0.75    0.73
   1  -6   3    0.93    1.14
  -1  -6  -3    0.39    0.62
   1  -6   3   -0.21    0.68
   1  -6   3    0.09    0.40
  -1  -6  -3    0.47    0.43
   1   6   3    0.76    0.50
  -1   6  -3   -1.41    0.74
   2  -6   3    0.35    0.51
  -2  -6  -3    1.54    0.52
   2  -6   3    2.44    1.24
   2  -6   3    1.24    0.90
  -2  -6  -3    1.47    0.80
  -2   6  -3    0.53    0.91
   2   6   3    2.03    1.60
   2   6   3    2.56    0.74
   3  -6   3    1.59    1.20
   3  -6   3    1.76    0.98
   3  -6   3    1.53    0.61
  -3  -6  -3    2.85    0.65
   3   6   3    2.29    1.67
  -3   6  -3    1.45    1.00
  13   0  -4    0.94    0.90
 -13   0   4    0.08    0.33
 -13   0   4    0.16    1.21
  13   0  -4    0.36    0.48
  12   0  -4    2.14    1.03
  12   0  -4    1.88    0.64
 -12   0   4   -0.40    0.86
 -12   0   4    0.55    0.36
  11   0  -4   -0.12    0.30
 -11   0   4    0.58    0.89
  11   0  -4    0.15    0.42
 -11   0   4   -0.03    0.23
  11   0  -4    0.14    0.73
 -10   0   4   -0.17    0.70
  10   0  -4    0.05    0.32
  10   0  -4    0.22    0.41
 -10   0   4    0.34    0.27
  10   0  -4    0.06    0.58
   9   0  -4   -0.57    0.28
  -9   0   4   -0.29    0.67
  -9   0   4    0.19    0.24
   9   0  -4   -0.16    0.31
   9   0  -4   -0.35    0.50
   8   0  -4    0.21    0.27
  -8   0   4   -0.10    0.65
  -8   0   4    0.00    0.21
   8   0  -4    0.63    0.58
   7   0  -4   -0.39    0.24
   7   0  -4   -0.08    0.41
  -7   0   4   -0.05    0.18
  -7   0   4   -0.26    0.51
   6   0  -4   50.25    2.85
  -6   0   4   44.16    2.34
  -6   0   4   37.10    2.96
   6   0  -4   42.78    2.46
   5   0  -4    0.48    0.42
  -5   0   4    0.02    0.16
  -5   0   4   -0.57    0.29
   4   0  -4   10.33    0.70
  -4   0   4   10.85    1.15
  -4   0   4   10.81    0.67
  -4   0   4   10.87    0.65
   4   0  -4   11.66    1.03
  -3   0   4    0.08    0.12
  -3   0   4    0.06    0.13
  -3   0   4   -0.01    0.34
   3   0  -4    0.06    0.17
   3   0  -4   -0.43    0.29
   2   0  -4   37.27    2.04
  -2   0   4   34.95    1.84
  -2   0   4   34.03    1.78
  -2   0   4   34.05    1.85
  -2   0   4   35.26    2.09
   2   0  -4   33.34    1.85
  -1   0   4   -0.28    0.14
  -1   0   4   -0.37    0.16
  -1   0   4   -0.39    0.04
  -1   0   4   -0.44    0.04
  -1   0   4   -0.47    0.24
  -1   0   4   -0.45    0.28
   1   0  -4   -0.40    0.18
   1   0  -4   -0.48    0.07
   1   0  -4   -0.35    0.23
   0   0   4  379.68   18.82
   0   0   4  387.30   18.79
   0   0  -4  373.41   18.78
   0   0   4  400.09   18.80
   0   0  -4  338.73   18.78
   0   0  -4  376.62   18.76
   0   0  -4  379.14   18.89
   0   0   4  370.04   18.78
   1   0   4   -0.25    0.15
   1   0   4    0.05    0.14
   1   0   4   -0.10    0.15
  -1   0  -4    0.01    0.05
   1   0   4    0.16    0.16
  -1   0  -4   -0.10    0.13
  -1   0  -4    0.11    0.07
   1   0   4    0.10    0.12
   2   0   4   34.09    1.91
   2   0   4   35.02    1.87
  -2   0  -4   35.83    1.78
  -2   0  -4   33.47    1.88
   2   0   4   33.23    1.96
   2   0   4   34.95    1.90
   3   0   4   -0.37    0.19
   3   0   4    0.08    0.09
   3   0   4   -0.14    0.23
   3   0   4   -0.16    0.25
   3   0   4   -0.16    0.15
  -3   0  -4   -0.06    0.12
   4   0   4    8.41    0.61
   4   0   4    8.26    0.86
   4   0   4    7.58    0.68
   4   0   4    9.09    0.80
  -4   0  -4    8.41    0.56
  -5   0  -4   -0.25    0.14
   5   0   4   -0.03    0.17
   5   0   4   -0.09    0.25
   5   0   4    0.21    0.35
   5   0   4    0.04    0.26
   6   0   4    9.58    0.97
   6   0   4   11.62    0.78
   6   0   4   12.87    1.30
   6   0   4   11.09    0.99
  -6   0  -4   11.30    0.79
   7   0   4    0.09    0.19
   7   0   4    0.07    0.37
  -7   0  -4   -0.49    0.17
   7   0   4   -0.11    0.31
   7   0   4    0.04    0.43
   8   0   4    1.37    0.53
   8   0   4    1.54    0.57
  -8   0  -4    2.17    0.42
   8   0   4    3.22    0.79
   9   0   4    0.13    0.42
   9   0   4    0.00    0.40
  -9   0  -4    0.00    0.24
   9   0   4   -0.23    0.60
  10   0   4    5.90    1.00
 -10   0  -4    6.25    0.75
  10   0   4    6.66    0.98
  10   0   4    7.13    1.31
  11   0   4   -0.36    0.47
 -11   0  -4    0.01    0.30
  11   0   4    0.10    0.54
  13  -1  -4    0.54    0.58
  13  -1  -4    0.09    0.80
 -13  -1   4    0.29    0.38
 -13  -1   4   -0.31    0.79
 -13   1   4    0.52    1.29
  13   1  -4    0.63    0.59
  13   1  -4    0.49    0.59
 -13   1   4    0.16    0.36
  13   1  -4    0.36    0.98
  12  -1  -4   -0.21    0.72
 -12  -1   4    0.11    0.30
 -12  -1   4    2.07    1.14
  12  -1  -4    0.53    0.53
 -12   1   4    0.95    0.37
 -12   1   4    0.24    1.01
  12   1  -4    1.12    0.55
  12   1  -4   -0.04    0.85
  12   1  -4    1.54    0.56
  11  -1  -4    4.89    0.87
 -11  -1   4    3.99    0.60
 -11  -1   4    4.64    1.52
  11  -1  -4    6.18    1.27
  11   1  -4    6.47    1.34
  11   1  -4    5.71    0.92
  11   1  -4    6.94    0.89
 -11   1   4    5.47    1.75
 -11   1   4    4.82    0.67
  10  -1  -4    2.29    0.62
 -10  -1   4    1.28    0.37
  10  -1  -4    0.76    0.71
 -10  -1   4    0.97    0.93
  10   1  -4    1.23    0.53
 -10   1   4    0.89    0.35
 -10   1   4    2.27    1.18
  10   1  -4    1.11    0.77
  10   1  -4    1.25    0.49
  -9  -1   4   21.57    1.34
  -9  -1   4   22.87    2.22
   9  -1  -4   20.79    1.55
   9  -1  -4   22.90    1.37
   9  -1  -4   23.71    1.98
  -9   1   4   19.08    1.32
  -9   1   4   12.41    2.34
   9   1  -4   20.89    1.60
   9   1  -4   22.87    2.00
  -8  -1   4    4.47    1.11
   8  -1  -4    4.10    0.65
   8  -1  -4    4.14    0.48
   8  -1  -4    4.59    0.93
  -8  -1   4    4.13    0.51
   8   1  -4    2.97    0.65
   8   1  -4    3.74    0.93
  -8   1   4    3.86    0.49
  -8   1   4    1.16    0.97
   7  -1  -4    1.59    0.56
  -7  -1   4    2.48    0.79
   7  -1  -4    1.96    0.48
   7  -1  -4    3.41    0.40
  -7  -1   4    2.45    0.37
  -7   1   4    2.20    1.00
   7   1  -4    3.11    0.83
  -7   1   4    3.10    0.41
   7   1  -4    2.79    0.58
  -6  -1   4   21.35    1.29
  -6  -1   4   23.34    1.84
   6  -1  -4   22.56    1.26
   6  -1  -4   21.22    1.69
   6   1  -4   21.38    1.79
  -6   1   4   22.87    1.31
  -6   1   4   17.49    2.06
   6   1  -4   23.06    1.44
  -5  -1   4   10.82    0.65
  -5  -1   4   11.65    0.76
   5  -1  -4   12.57    1.13
   5  -1  -4   11.64    0.69
  -5  -1   4   12.81    1.18
  -5   1   4   11.45    0.69
  -5   1   4    9.73    1.56
  -5   1   4   10.85    0.75
   5   1  -4   10.49    0.87
   5   1  -4   12.33    1.42
  -4  -1   4  137.90    6.87
  -4  -1   4  122.50    6.44
   4  -1  -4  129.24    6.76
   4  -1  -4  120.45    6.37
  -4  -1   4  127.32    6.40
  -4   1   4  128.71    6.44
   4   1  -4  126.49    6.59
   4   1  -4  123.66    6.93
  -4   1   4  125.74    6.33
  -4   1   4  127.21    6.33
  -3  -1   4    6.02    0.42
   3  -1  -4    5.35    0.67
  -3  -1   4    6.00    0.65
  -3  -1   4    6.09    0.44
   3  -1  -4    5.30    0.33
  -3   1   4    5.03    0.41
  -3   1   4    3.96    0.93
   3   1  -4    6.21    0.93
   3   1  -4    5.29    0.61
  -2  -1   4    5.88    0.69
   2  -1  -4    5.53    0.60
   2  -1  -4    5.60    0.36
   2  -1  -4    5.38    0.33
  -2  -1   4    5.12    0.45
  -2  -1   4    6.14    0.44
  -2  -1   4    5.74    0.42
   2   1  -4    5.33    0.59
  -2   1   4    3.65    0.84
  -2   1   4    5.42    0.37
   2   1  -4    4.70    0.83
  -1  -1   4   39.19    2.07
   1  -1  -4   39.02    2.17
   1  -1  -4   38.66    2.03
  -1  -1   4   40.36    2.14
  -1  -1   4   42.05    2.30
   1   1  -4   39.36    2.24
  -1   1   4   39.57    2.09
   0  -1   4    5.05    0.67
   0  -1  -4    5.69    0.45
   0  -1   4    5.43    0.39
   0  -1   4    5.58    0.51
   0  -1   4    5.21    0.56
   0  -1  -4    4.21    0.62
   0   1   4    5.38    0.45
   0   1  -4    5.18    0.40
   0   1   4    5.19    0.44
   0   1  -4    5.43    0.62
   0   1   4    6.08    0.45
   0   1   4    5.37    0.39
   1  -1   4  212.96   10.90
   1  -1   4  208.68   11.02
   1  -1   4  215.46   10.80
   1   1   4  212.96   10.91
  -1   1  -4  223.11   11.02
   1   1   4  223.05   10.84
   1   1   4  199.35   10.83
   1   1   4  217.37   10.80
   1   1   4  221.26   10.79
  -1   1  -4  217.65   10.81
  -2  -1  -4   23.49    1.25
   2  -1   4   22.56    1.43
  -2  -1  -4   25.45    1.27
   2  -1   4   21.73    1.53
   2  -1   4   21.83    1.42
   2  -1   4   23.69    1.31
   2   1   4   24.66    1.33
   2   1   4   22.28    1.36
  -2   1  -4   24.28    1.58
   2   1   4   22.88    1.46
  -2   1  -4   24.26    1.32
   2   1   4   23.40    1.31
  -3  -1  -4   33.43    2.08
  -3  -1  -4   37.87    1.99
   3  -1   4   37.38    2.18
   3  -1   4   38.76    2.05
   3  -1   4   40.16    2.35
   3  -1   4   36.61    2.18
   3   1   4   38.24    2.06
   3   1   4   40.25    2.15
   3   1   4   37.66    2.23
  -3   1  -4   38.32    2.05
   3   1   4   40.84    2.05
  -3   1  -4   36.97    2.34
  -4  -1  -4    0.41    0.15
  -4  -1  -4   -0.28    0.25
   4  -1   4    0.28    0.42
   4  -1   4    0.13    0.25
   4  -1   4    0.60    0.31
   4   1   4    0.17    0.20
  -4   1  -4   -0.06    0.36
   4   1   4    0.07    0.15
   4   1   4    0.06    0.10
   4   1   4    0.29    0.29
  -4   1  -4    0.27    0.18
   4   1   4    0.39    0.30
   5  -1   4    6.22    0.75
   5  -1   4    5.69    0.92
  -5  -1  -4    4.91    0.79
  -5  -1  -4    6.43    0.50
   5  -1   4    6.84    0.77
  -5   1  -4    5.16    0.88
   5   1   4    6.61    0.62
  -5   1  -4    6.15    0.60
   5   1   4    6.57    0.49
   5   1   4    7.04    0.85
   5   1   4    6.61    0.80
  -6  -1  -4    1.59    0.30
  -6  -1  -4    1.01    0.55
   6  -1   4    0.31    0.50
   6  -1   4    1.24    0.43
   6  -1   4    1.51    0.42
   6   1   4    0.88    0.49
   6   1   4    0.87    0.44
   6   1   4    1.30    0.24
  -6   1  -4    0.55    0.51
  -6   1  -4    0.99    0.29
   6   1   4    1.22    0.36
   7  -1   4   87.41    5.12
   7  -1   4   94.22    5.19
  -7  -1  -4   93.55    4.88
   7  -1   4   95.58    5.45
   7   1   4   91.26    5.25
   7   1   4   93.86    5.25
  -7   1  -4   93.99    4.95
   7   1   4   99.69    5.04
  -7   1  -4   92.63    5.48
   8  -1   4    6.56    0.96
   8  -1   4    7.90    0.97
   8  -1   4    8.18    1.31
  -8  -1  -4    8.01    0.72
   8  -1   4    7.21    0.75
  -8   1  -4    6.15    0.73
  -8   1  -4    8.89    1.34
   8   1   4    9.13    0.92
   8   1   4    6.51    0.97
   8   1   4    5.15    0.98
   9  -1   4    8.23    1.03
   9  -1   4    6.97    1.27
   9  -1   4    7.68    1.07
  -9  -1  -4    6.56    0.71
   9   1   4    8.15    1.23
   9   1   4    6.12    0.83
   9   1   4    6.08    1.01
  -9   1  -4    6.56    1.23
  -9   1  -4    6.37    0.76
  10  -1   4   -0.16    0.47
  10  -1   4    0.27    0.55
 -10  -1  -4    0.06    0.30
  10  -1   4    0.24    0.78
 -10   1  -4   -0.14    0.32
 -10   1  -4    1.32    0.71
  10   1   4    0.07    0.46
 -11  -1  -4    3.60    0.64
  11  -1   4    5.04    1.49
  11  -1   4    5.47    1.01
  11  -1   4    6.82    1.05
 -11   1  -4    4.79    1.14
  11   1   4    5.32    1.04
 -11   1  -4    5.05    0.75
 -13  -2   4    2.20    0.50
  13  -2  -4    0.44    0.88
  13  -2  -4    1.47    0.71
 -13  -2   4    1.41    1.44
  13   2  -4    0.40    1.05
 -13   2   4    2.50    0.58
  13   2  -4    1.15    0.70
 -12  -2   4    2.69    1.21
  12  -2  -4    3.02    1.20
 -12  -2   4    2.28    0.50
  12  -2  -4    2.26    0.73
  12   2  -4    2.00    0.75
  12   2  -4    3.67    1.30
 -12   2   4    3.35    0.66
  11  -2  -4   -0.05    0.73
  11  -2  -4    0.27    0.48
 -11  -2   4   -0.21    0.73
 -11  -2   4   -0.30    0.24
  11   2  -4   -0.29    0.45
  11   2  -4   -0.31    0.78
 -11   2   4   -0.36    0.27
  11   2  -4    1.00    0.70
 -11   2   4    0.57    1.22
 -10  -2   4    0.89    0.82
 -10  -2   4    0.19    0.28
  10  -2  -4    0.15    0.46
  10  -2  -4    1.81    0.84
 -10   2   4    1.01    0.36
  10   2  -4   -0.43    0.73
 -10   2   4   -0.75    0.96
  10   2  -4    0.07    0.52
  10   2  -4    0.88    0.41
  -9  -2   4   11.83    1.77
   9  -2  -4   12.99    1.72
   9  -2  -4   12.07    1.27
  -9  -2   4   12.41    0.91
  -9   2   4    7.64    1.99
   9   2  -4   12.04    1.41
  -9   2   4   10.33    1.00
   9   2  -4   11.10    1.71
   8  -2  -4   63.20    3.63
   8  -2  -4   64.74    4.07
  -8  -2   4   63.64    4.14
  -8  -2   4   60.94    3.40
   8   2  -4   61.60    3.65
   8   2  -4   64.56    4.23
   8   2  -4   62.62    3.80
  -8   2   4   60.35    3.42
  -7  -2   4    1.76    0.36
   7  -2  -4    1.71    0.47
   7  -2  -4    1.86    0.72
  -7  -2   4    1.49    0.67
  -7   2   4    1.58    0.35
   7   2  -4    1.31    0.49
  -7   2   4    1.76    0.31
  -7   2   4    0.23    0.92
   7   2  -4    0.81    0.72
  -6  -2   4    5.67    0.61
  -6  -2   4    4.82    0.91
   6  -2  -4    6.58    0.75
   6  -2  -4    7.42    1.08
  -6  -2   4    5.72    0.41
  -6   2   4    6.49    0.63
  -6   2   4    3.21    1.25
  -6   2   4    6.08    0.46
   6   2  -4    7.05    1.26
   6   2  -4    6.50    0.83
  -5  -2   4    0.22    0.22
   5  -2  -4   -0.22    0.37
  -5  -2   4   -0.07    0.13
   5  -2  -4    0.23    0.22
  -5  -2   4    0.18    0.39
   5   2  -4    0.80    0.62
  -5   2   4    0.43    0.23
  -5   2   4    0.32    0.77
   5   2  -4    0.24    0.31
  -5   2   4    0.04    0.13
   4  -2  -4    1.83    0.57
   4  -2  -4    1.79    0.38
  -4  -2   4    1.77    0.32
  -4  -2   4    1.23    0.50
   4   2  -4    1.40    0.49
   4   2  -4    1.06    0.71
  -4   2   4    1.16    0.19
  -4   2   4    1.28    0.28
  -3  -2   4   13.71    0.92
  -3  -2   4   13.60    0.91
  -3  -2   4   15.27    1.24
   3  -2  -4   13.88    0.82
   3  -2  -4   13.91    1.20
   3   2  -4   14.80    1.73
   3   2  -4   15.40    1.19
  -3   2   4   15.17    0.91
  -3   2   4   14.36    0.82
  -2  -2   4   31.44    2.06
  -2  -2   4   30.86    1.76
  -2  -2   4   33.77    1.78
   2  -2  -4   31.06    2.00
   2   2  -4   33.59    2.01
  -2   2   4   29.45    1.70
   2   2  -4   30.93    2.39
  -2   2   4   31.77    1.67
  -1  -2   4   10.49    0.74
  -1  -2   4   10.15    0.99
  -1  -2   4   10.15    0.75
   1  -2  -4   11.80    0.95
   1   2  -4   11.86    0.98
  -1   2   4   10.09    0.71
   0  -2   4   19.64    1.59
   0  -2   4   21.68    1.24
   0  -2   4   19.73    1.49
   0  -2   4   21.72    1.28
   0  -2  -4   19.84    1.40
   0   2   4   21.59    1.27
   0   2  -4   19.09    1.42
   1  -2   4    9.99    1.15
  -1  -2  -4    9.06    0.60
   1  -2   4    8.87    0.73
   1  -2   4    9.20    0.67
  -1  -2  -4    8.51    0.50
  -1   2  -4    8.99    0.68
   1   2   4    8.50    0.73
  -1   2  -4    8.52    0.91
   2  -2   4   14.76    0.92
   2  -2   4   12.87    0.97
  -2  -2  -4   12.07    0.70
  -2  -2  -4   13.33    0.81
   2  -2   4   13.38    1.25
  -2  -2  -4   14.04    0.93
   2   2   4   12.38    1.17
  -2   2  -4   12.76    1.08
  -2   2  -4   13.22    0.91
   2   2   4   13.54    1.02
  -3  -2  -4   65.09    3.39
   3  -2   4   66.83    3.38
   3  -2   4   58.69    3.45
   3  -2   4   61.92    3.75
  -3  -2  -4   63.43    3.27
   3   2   4   58.97    3.51
  -3   2  -4   62.20    3.60
   3   2   4   64.51    3.18
  -3   2  -4   60.66    3.35
   3   2   4   60.03    3.60
   4  -2   4    0.85    0.54
  -4  -2  -4    0.95    0.23
   4  -2   4    0.72    0.29
   4  -2   4    0.53    0.29
  -4  -2  -4    1.17    0.35
   4   2   4    0.48    0.16
  -4   2  -4    0.84    0.44
   4   2   4    1.40    0.44
  -4   2  -4    0.54    0.26
   4   2   4    0.19    0.43
   5  -2   4   18.55    1.38
   5  -2   4   19.79    1.34
  -5  -2  -4   17.37    1.15
   5  -2   4   18.63    1.28
  -5  -2  -4   18.26    1.38
   5  -2   4   21.67    1.76
  -5   2  -4   20.50    1.28
   5   2   4   18.75    1.52
   5   2   4   19.92    1.13
   5   2   4   19.50    1.50
  -5   2  -4   18.80    1.53
  -6  -2  -4   32.25    1.88
   6  -2   4   33.01    2.50
   6  -2   4   34.68    2.09
   6  -2   4   30.74    2.13
   6   2   4   34.92    2.30
   6   2   4   33.01    1.87
   6   2   4   31.36    2.23
  -6   2  -4   32.28    2.30
  -6   2  -4   35.65    2.02
   7  -2   4    0.03    0.42
   7  -2   4    0.16    0.66
   7  -2   4    0.31    0.37
  -7  -2  -4    0.71    0.28
   7   2   4    0.78    0.53
   7   2   4    1.04    0.56
  -7   2  -4    0.74    0.55
  -7   2  -4    0.63    0.39
   8  -2   4    4.55    0.84
  -8  -2  -4    3.83    0.53
   8  -2   4    3.37    1.01
   8  -2   4    3.76    0.69
  -8   2  -4    4.29    0.69
   8   2   4    3.15    0.78
  -8   2  -4    2.24    0.83
   8   2   4    4.76    0.94
  -9  -2  -4    0.44    0.31
   9  -2   4    0.08    0.40
   9  -2   4    0.62    0.50
   9  -2   4    0.22    0.80
   9   2   4    0.57    0.52
  -9   2  -4    0.42    0.60
  -9   2  -4    1.09    0.43
 -10  -2  -4    1.37    0.40
  10  -2   4    1.80    1.04
  10  -2   4    0.82    0.61
 -10   2  -4    0.68    0.78
 -10   2  -4    0.57    0.45
  10   2   4    1.87    0.72
  11  -2   4    3.24    1.39
  11  -2   4    1.50    0.73
 -11   2  -4    1.24    0.53
 -11   2  -4    2.11    0.91
  11   2   4    1.94    0.72
  12  -3  -4   -1.03    0.51
 -12  -3   4    0.89    0.93
 -12  -3   4    0.18    0.35
  12  -3  -4    0.49    0.97
  12   3  -4   -0.75    0.55
 -12   3   4    0.23    0.41
  12   3  -4   -0.29    1.00
  11  -3  -4    8.52    1.22
 -11  -3   4    8.10    1.69
 -11  -3   4    8.48    0.93
  11  -3  -4    6.25    1.55
  11   3  -4    9.56    1.44
 -11   3   4    7.65    0.96
  11   3  -4   10.02    1.96
 -10  -3   4    2.96    1.07
  10  -3  -4    2.46    1.07
 -10  -3   4    2.83    0.54
  10  -3  -4    3.48    0.81
 -10   3   4    2.45    0.55
  10   3  -4    3.51    1.43
  10   3  -4    3.35    0.97
   9  -3  -4    0.60    0.69
  -9  -3   4   -0.25    0.58
  -9  -3   4    0.58    0.34
   9  -3  -4   -0.12    0.44
   9   3  -4   -0.51    0.54
   9   3  -4   -0.33    0.77
  -9   3   4    0.58    0.41
  -8  -3   4    1.01    0.68
   8  -3  -4   -0.28    0.57
   8  -3  -4    0.13    0.41
  -8  -3   4   -0.11    0.31
   8   3  -4    0.96    0.91
   8   3  -4    0.37    0.60
  -8   3   4   -0.11    0.31
   8   3  -4    1.02    0.54
  -7  -3   4    9.23    1.38
   7  -3  -4    7.57    0.98
   7  -3  -4    9.23    1.48
  -7  -3   4    8.20    0.84
   7   3  -4    8.97    1.66
   7   3  -4    8.57    1.13
  -7   3   4   10.93    0.96
  -6  -3   4    0.52    0.29
  -6  -3   4    0.44    0.54
   6  -3  -4    0.76    0.68
   6  -3  -4    0.64    0.38
   6   3  -4    0.49    0.52
   6   3  -4    0.81    0.82
  -6   3   4   -0.08    0.30
   5  -3  -4   -0.37    0.48
  -5  -3   4    0.15    0.26
   5  -3  -4    0.30    0.32
  -5  -3   4    0.38    0.50
   5   3  -4    0.63    0.50
   5   3  -4    1.05    0.89
  -5   3   4    0.18    0.27
  -5   3   4    1.06    0.32
  -4  -3   4   19.54    1.27
   4  -3  -4   18.37    1.29
  -4  -3   4   18.73    1.64
   4  -3  -4   20.23    1.72
  -4   3   4   19.96    1.25
   4   3  -4   21.78    1.61
   4   3  -4   21.75    2.47
  -4   3   4   18.20    1.18
  -3  -3   4   -0.04    0.17
  -3  -3   4   -0.36    0.19
   3  -3  -4    0.18    0.21
   3  -3  -4    0.19    0.44
  -3  -3   4    0.12    0.38
   3   3  -4   -0.37    0.43
  -3   3   4    0.20    0.13
   3   3  -4    0.46    0.78
  -3   3   4    0.21    0.23
  -2  -3   4   13.54    0.90
  -2  -3   4   13.45    1.26
  -2  -3   4   12.03    0.94
   2  -3  -4   13.85    0.91
   2  -3  -4   15.22    1.38
  -2   3   4   13.38    0.94
   2   3  -4   12.96    1.23
   2   3  -4   23.44    2.43
  -2   3   4   13.67    0.87
   1  -3  -4    2.28    0.64
   1  -3  -4    2.12    0.30
  -1  -3   4    1.92    0.72
  -1  -3   4    2.13    0.58
  -1  -3   4    2.33    0.38
  -1  -3   4    1.95    0.37
   1   3  -4    1.94    0.59
  -1   3   4    1.83    0.38
  -1   3   4    1.36    0.33
   0  -3  -4   26.18    1.95
   0  -3  -4   25.77    1.62
   0  -3  -4   28.10    1.49
   0  -3   4   26.92    2.02
   0  -3   4   29.44    1.69
   0  -3   4   29.00    2.18
   0  -3   4   27.64    1.67
   0   3  -4   27.04    1.91
   0   3   4   29.06    1.72
   0   3   4   28.55    1.74
  -1  -3  -4    1.71    0.35
  -1  -3  -4    2.10    0.60
   1  -3   4    2.25    0.44
   1  -3   4    1.94    0.41
   1  -3   4    1.74    0.73
  -1   3  -4    3.32    0.68
   1   3   4    2.73    0.53
   2  -3   4    7.55    0.81
  -2  -3  -4    6.08    0.80
   2  -3   4    7.57    1.20
  -2  -3  -4    5.89    0.61
   2  -3   4    6.58    0.73
  -2   3  -4    5.66    0.69
   2   3   4    7.20    0.85
  -2   3  -4    7.92    1.00
   2   3   4    7.17    1.24
  -3  -3  -4    4.69    0.69
  -3  -3  -4    4.26    0.51
   3  -3   4    4.81    0.63
   3  -3   4    4.61    0.68
   3  -3   4    3.23    0.89
   3   3   4    5.07    0.78
   3   3   4    4.45    0.98
  -3   3  -4    4.36    0.82
  -3   3  -4    4.60    0.62
   4  -3   4    0.38    0.35
  -4  -3  -4    0.34    0.27
   4  -3   4    0.10    0.34
   4  -3   4   -0.50    0.54
  -4  -3  -4    0.17    0.33
  -4   3  -4    0.08    0.44
   4   3   4    0.49    0.44
   4   3   4    0.04    0.58
  -4   3  -4    0.49    0.35
   5  -3   4   12.13    1.26
   5  -3   4   13.25    1.07
   5  -3   4   13.06    1.74
  -5  -3  -4   13.78    0.96
   5   3   4   12.41    1.55
  -5   3  -4   10.92    1.34
  -5   3  -4   15.59    1.14
   5   3   4   12.88    1.38
  -6  -3  -4    1.06    0.33
   6  -3   4    0.73    0.52
   6  -3   4    0.68    0.40
   6  -3   4    0.90    0.82
  -6   3  -4    0.88    0.44
   6   3   4    1.95    0.63
   6   3   4    0.85    0.63
  -6   3  -4    0.72    0.60
   7  -3   4    5.08    1.26
  -7  -3  -4    5.17    0.63
   7  -3   4    5.26    0.91
   7  -3   4    5.33    0.79
   7   3   4    4.79    0.96
  -7   3  -4    3.87    0.70
  -7   3  -4    4.57    0.91
   8  -3   4    2.86    0.64
  -8  -3  -4    1.99    0.44
   8  -3   4    3.76    1.25
   8  -3   4    1.50    0.64
  -8   3  -4    2.42    0.59
   8   3   4    2.52    0.77
  -8   3  -4    1.96    0.74
  -9  -3  -4    0.87    0.38
   9  -3   4    1.13    0.66
   9  -3   4    1.26    0.54
   9  -3   4    0.76    0.86
   9   3   4    0.48    0.56
  -9   3  -4   -0.39    0.55
  -9   3  -4    1.61    0.58
  10  -3   4    0.30    0.65
  10  -3   4    0.26    0.48
  10  -3   4    0.29    1.08
 -10   3  -4   -0.75    0.42
  10   3   4   -0.25    0.55
 -10  -4   4    0.38    0.39
  10  -4  -4    1.10    0.90
  10  -4  -4    1.70    0.73
 -10  -4   4    0.66    0.91
 -10   4   4   -0.27    0.43
  10   4  -4    1.30    0.76
  10   4  -4    0.19    0.97
   9  -4  -4   -0.81    0.76
  -9  -4   4   -0.37    0.31
   9  -4  -4    1.10    0.53
  -9  -4   4    0.87    0.83
   9   4  -4    0.03    0.63
   9   4  -4    0.84    0.63
  -9   4   4    0.05    0.38
   9   4  -4    0.18    0.98
  -8  -4   4    6.83    0.84
   8  -4  -4    6.11    0.98
   8  -4  -4    8.19    1.59
  -8  -4   4    7.18    1.41
   8   4  -4    7.10    1.12
  -8   4   4    7.43    0.91
   8   4  -4    5.91    1.66
   8   4  -4    3.32    1.05
   7  -4  -4    4.51    0.81
  -7  -4   4    4.97    1.19
   7  -4  -4    5.98    1.32
  -7  -4   4    5.08    0.71
  -7   4   4    4.70    0.74
   7   4  -4    5.57    1.03
   7   4  -4    4.38    1.60
   6  -4  -4   -0.05    0.64
   6  -4  -4   -0.58    0.29
  -6  -4   4   -0.03    0.52
  -6  -4   4   -0.11    0.32
  -6   4   4   -0.16    0.33
   6   4  -4    1.07    1.00
   6   4  -4    0.00    0.43
   5  -4  -4   28.80    2.44
  -5  -4   4   27.51    2.27
   5  -4  -4   24.55    1.79
  -5  -4   4   28.15    1.76
   5   4  -4   25.14    3.15
   5   4  -4   27.59    2.13
   4  -4  -4    0.50    0.66
  -4  -4   4    0.96    0.62
  -4  -4   4    0.29    0.33
   4  -4  -4    0.48    0.36
   4   4  -4   -0.09    0.90
   4   4  -4   -0.11    0.63
   3  -4  -4    8.85    0.85
   3  -4  -4    7.89    1.38
  -3  -4   4    8.69    0.69
  -3  -4   4    7.77    0.84
  -3  -4   4    7.97    1.28
   3   4  -4    7.34    1.79
  -3   4   4    7.79    0.76
   3   4  -4    8.83    1.21
   2  -4  -4   75.40    4.07
   2  -4  -4   79.70    4.81
  -2  -4   4   81.72    4.78
  -2  -4   4   73.06    4.18
  -2  -4   4   77.51    4.08
   2  -4  -4   77.69    4.20
   2   4  -4   70.78    4.52
  -2   4   4   73.33    4.08
  -2   4   4   81.28    4.22
   1  -4  -4    1.94    0.45
   1  -4  -4    3.65    0.96
  -1  -4   4    0.90    0.64
  -1  -4   4    1.58    0.45
  -1  -4   4    2.99    0.47
  -1   4   4    2.32    0.53
  -1   4   4    2.77    0.51
   1   4  -4    2.27    0.77
   0  -4   4   51.54    3.45
   0  -4  -4   51.72    2.90
   0  -4  -4   45.66    3.36
   0  -4   4   55.61    2.92
   0  -4   4   51.78    2.93
   0  -4   4   51.93    3.63
   0   4   4   49.52    2.96
   0   4  -4   49.85    3.24
   0   4   4   50.07    3.00
   1  -4   4    6.69    0.80
   1  -4   4    7.07    1.36
  -1  -4  -4    7.45    1.06
  -1  -4  -4    7.90    0.82
   1  -4   4    8.12    1.29
   1  -4   4    7.25    0.83
   1   4   4    8.59    0.98
  -1   4  -4    6.58    1.07
   1   4   4    6.59    0.89
  -2  -4  -4   -0.48    0.21
   2  -4   4   -0.43    0.29
  -2  -4  -4    0.36    0.38
   2  -4   4   -0.25    0.63
   2  -4   4    0.13    0.32
   2   4   4    1.11    0.85
  -2   4  -4    0.27    0.55
   2   4   4    0.34    0.40
  -3  -4  -4   14.63    1.07
   3  -4   4    9.70    1.71
   3  -4   4   13.27    1.25
  -3  -4  -4   15.53    1.35
   3  -4   4   15.98    1.26
  -3   4  -4   12.34    1.51
   3   4   4   14.00    1.31
   3   4   4   12.92    1.94
   4  -4   4    0.32    0.41
   4  -4   4    1.26    0.51
  -4  -4  -4    1.11    0.37
   4  -4   4    0.02    0.75
  -4   4  -4    0.67    0.45
  -4   4  -4    0.89    0.69
   4   4   4    0.62    0.50
   4   4   4    0.72    0.86
   5  -4   4    6.44    1.38
  -5  -4  -4    5.18    0.67
   5  -4   4    6.10    0.83
   5  -4   4    3.50    0.78
   5   4   4    4.92    0.93
  -5   4  -4    5.68    0.84
  -5   4  -4    4.78    0.96
   5   4   4    3.85    1.16
   6  -4   4   -0.09    0.67
  -6  -4  -4    0.72    0.33
   6  -4   4    0.16    0.39
   6  -4   4    0.39    0.39
   6   4   4    0.14    0.49
  -6   4  -4    0.19    0.44
  -6   4  -4    0.34    0.62
   7  -4   4    0.80    0.50
   7  -4   4    1.44    1.08
  -7  -4  -4    0.88    0.36
   7  -4   4    0.99    0.63
   7   4   4    1.87    0.76
  -7   4  -4    1.00    0.65
  -7   4  -4    1.65    0.58
   8  -4   4    6.30    0.94
   8  -4   4    5.23    1.03
   8  -4   4    4.07    1.50
   8   4   4    3.99    0.98
  -8   4  -4    3.43    0.79
  -8   4  -4    3.19    0.99
   9  -4   4    0.20    0.52
   9  -4   4    1.42    1.20
   9  -4   4    0.49    0.58
   9   4   4    0.86    0.68
  -9   4  -4    1.52    0.63
  -8  -5   4    5.84    1.37
  -8  -5   4    4.00    0.72
   8  -5  -4    2.74    1.28
   8  -5  -4    4.20    0.89
  -8   5   4    2.84    0.70
   8   5  -4    6.39    1.94
   8   5  -4    3.89    1.17
   8   5  -4    5.36    1.12
   7  -5  -4    0.42    1.01
  -7  -5   4    0.73    0.45
   7  -5  -4    1.20    0.59
  -7  -5   4   -0.24    0.65
   7   5  -4    0.59    0.66
   7   5  -4   -0.14    0.68
   7   5  -4    0.44    1.22
  -6  -5   4    2.20    0.55
   6  -5  -4   -0.94    0.68
   6  -5  -4    0.83    0.53
  -6  -5   4    1.33    0.84
   6   5  -4    0.71    0.69
   6   5  -4   -0.13    1.23
  -5  -5   4    4.60    0.73
   5  -5  -4    3.65    1.19
   5  -5  -4    3.71    0.77
  -5  -5   4    4.63    1.17
   5   5  -4    4.97    1.82
   5   5  -4    6.51    1.24
  -4  -5   4    1.26    0.79
   4  -5  -4    0.84    0.50
   4  -5  -4    0.22    0.81
  -4  -5   4    1.03    0.46
   4   5  -4    1.99    0.87
   4   5  -4    0.88    1.31
  -3  -5   4    6.01    1.24
   3  -5  -4    5.20    0.80
   3  -5  -4    3.24    1.09
  -3  -5   4    4.61    0.74
   3   5  -4    3.95    1.71
   3   5  -4    4.44    1.13
  -2  -5   4   -0.20    0.32
   2  -5  -4    0.52    0.38
   2  -5  -4   -0.95    0.68
  -2  -5   4    0.11    0.61
   2   5  -4   -1.17    0.59
   2   5  -4   -1.84    1.07
  -1  -5   4    2.14    0.52
   1  -5  -4    2.43    0.58
  -1  -5   4    3.01    0.91
   1  -5  -4    0.24    0.74
   1   5  -4    0.75    0.83
  -1   5   4    2.86    0.60
   0  -5   4   -0.36    0.51
   0  -5   4    0.32    0.81
   0  -5  -4    0.08    0.37
   0  -5   4   -0.15    0.37
   0  -5  -4   -0.87    0.73
   0  -5  -4    0.93    0.58
   0   5  -4   -0.40    0.70
   0   5   4    0.55    0.46
   1  -5   4    4.15    1.29
  -1  -5  -4    6.03    0.78
  -1  -5  -4    7.13    1.24
   1  -5   4    6.97    0.89
   1  -5   4    5.50    0.76
   1  -5   4    4.79    1.18
   1   5   4    4.34    0.82
   1   5   4    6.31    0.95
  -1   5  -4    6.11    1.19
   2  -5   4    1.17    0.79
  -2  -5  -4    2.65    0.54
   2  -5   4    0.47    0.93
   2  -5   4    1.87    0.57
  -2  -5  -4    1.04    0.66
   2  -5   4    1.15    0.50
   2   5   4    1.88    0.64
   2   5   4    0.47    1.06
  -2   5  -4    1.42    0.81
   3  -5   4    3.43    0.70
  -3  -5  -4    3.89    0.66
   3  -5   4    3.42    1.29
   3  -5   4    2.84    0.65
   3   5   4    0.77    1.15
   3   5   4    3.32    0.82
  -3   5  -4    2.83    0.97
  -4  -5  -4    1.06    0.44
   4  -5   4    1.22    0.56
   4  -5   4    1.51    0.57
   4  -5   4    1.93    1.16
   4   5   4    0.09    0.51
  -4   5  -4    0.18    0.61
   4   5   4   -0.41    1.08
  -5  -5  -4    2.09    0.53
   5  -5   4    2.85    1.33
   5  -5   4    1.55    0.67
   5  -5   4    1.22    0.55
  -5   5  -4    1.41    0.82
   5   5   4    0.60    0.62
  -6  -5  -4   -0.11    0.31
   6  -5   4   -0.13    1.01
   6  -5   4    0.16    0.52
   6  -5   4    0.36    0.55
  -6   5  -4   -0.31    0.62
   6   5   4   -0.05    0.56
   7  -5   4    2.96    0.79
  -7   5  -4    3.74    0.91
   5  -6  -4   -0.11    0.96
  -5  -6   4    0.52    0.45
   5  -6  -4   -0.10    0.46
  -5  -6   4    0.39    0.71
   5   6  -4    2.12    0.85
   5   6  -4    0.47    1.54
  -4  -6   4   -0.24    0.43
   4  -6  -4    0.66    1.10
  -4  -6   4    0.48    0.86
   4  -6  -4    0.11    0.51
   4   6  -4    0.66    1.40
   4   6  -4    0.99    0.73
   3  -6  -4    0.51    0.56
  -3  -6   4   -0.49    0.62
  -3  -6   4    0.95    0.51
   3  -6  -4    0.90    1.07
   3   6  -4    1.19    1.43
   3   6  -4    0.46    0.85
  -2  -6   4    4.15    1.20
   2  -6  -4    2.21    0.68
  -2  -6   4    2.09    0.62
   2  -6  -4    1.71    1.20
   2   6  -4    5.02    1.29
   2   6  -4    4.94    2.00
   1  -6  -4    1.18    0.79
  -1  -6   4    0.33    0.68
   1  -6  -4    1.04    0.53
  -1  -6   4    1.17    0.51
   1  -6  -4    0.85    1.12
   1   6  -4    0.69    0.91
   0  -6   4   -0.10    0.67
   0  -6  -4   -0.10    0.58
   0  -6   4   -0.01    0.48
   0  -6  -4    0.56    0.47
   0   6  -4   -0.11    1.00
   1  -6   4   -1.46    0.79
  -1  -6  -4   -0.02    0.67
   1  -6   4   -0.65    0.51
  -1  -6  -4    0.68    0.46
   1  -6   4   -0.11    0.42
   1   6   4   -0.41    1.60
  -1   6  -4   -2.57    0.66
   2  -6   4    0.49    0.78
   2  -6   4    0.74    0.51
  -2  -6  -4    0.94    0.56
   2  -6   4   -1.08    0.91
  -2   6  -4    1.77    1.06
   2   6   4    0.76    1.47
  -3  -6  -4    0.68    0.44
   3  -6   4   -0.75    0.93
   3  -6   4   -0.11    0.79
   3  -6   4    0.67    0.50
  -3   6  -4   -0.67    0.81
 -13   0   5    5.34    0.74
  13   0  -5    8.08    1.68
 -13   0   5    4.33    1.75
  13   0  -5    6.99    1.08
  12   0  -5    0.03    0.43
 -12   0   5   -0.48    0.23
  12   0  -5   -0.27    0.70
 -12   0   5    0.85    1.05
 -11   0   5    1.95    1.13
  11   0  -5    1.22    0.87
 -11   0   5    3.17    0.52
  11   0  -5    3.59    0.65
  11   0  -5    2.85    0.68
 -10   0   5    0.22    0.28
 -10   0   5    1.06    0.88
  10   0  -5   -0.28    0.25
  10   0  -5   -0.94    0.50
  10   0  -5    0.23    0.40
   9   0  -5   12.71    1.04
  -9   0   5    8.29    1.72
   9   0  -5   12.78    1.63
  -9   0   5   12.23    0.90
  -8   0   5    0.98    0.76
   8   0  -5   -0.44    0.43
   8   0  -5    0.20    0.31
  -8   0   5    0.02    0.20
  -7   0   5   16.40    1.07
   7   0  -5   19.26    1.25
   7   0  -5   17.48    1.54
  -7   0   5   16.02    2.03
   6   0  -5   -0.20    0.41
  -6   0   5   -0.31    0.13
  -6   0   5   -0.24    0.52
   5   0  -5   21.93    1.50
   5   0  -5   17.20    1.08
  -5   0   5   17.00    1.56
  -5   0   5   18.29    1.06
  -4   0   5    0.00    0.36
  -4   0   5    0.01    0.14
   4   0  -5    0.35    0.22
  -4   0   5    0.05    0.15
   4   0  -5   -0.15    0.37
  -3   0   5   16.38    0.96
  -3   0   5   16.66    1.33
  -3   0   5   16.58    0.91
   3   0  -5   15.67    1.20
   3   0  -5   16.05    0.98
  -2   0   5    0.01    0.15
  -2   0   5    0.07    0.14
  -2   0   5   -0.05    0.28
   2   0  -5    0.19    0.27
  -2   0   5    0.06    0.08
   2   0  -5   -0.12    0.16
  -1   0   5  107.80    5.57
   1   0  -5  105.25    5.61
   1   0  -5  105.06    5.64
  -1   0   5  113.14    5.70
   1   0  -5  114.36    5.46
  -1   0   5  107.20    5.56
   0   0   5    0.08    0.17
   0   0   5    0.00    0.15
   0   0  -5    0.13    0.18
   0   0  -5    0.18    0.05
   0   0  -5    0.23    0.05
   0   0  -5   -0.05    0.20
   0   0  -5    0.16    0.16
   0   0   5    0.04    0.20
   0   0   5    0.16    0.18
   0   0  -5    0.12    0.25
  -1   0  -5   10.16    0.96
   1   0   5   10.61    0.71
   1   0   5   12.01    0.74
  -1   0  -5   10.54    0.60
  -1   0  -5   11.99    0.59
   1   0   5   11.10    0.82
   1   0   5   11.38    0.69
  -1   0  -5   10.02    0.66
   1   0   5   11.60    0.77
  -2   0  -5   -0.06    0.10
   2   0   5   -0.06    0.24
   2   0   5   -0.19    0.16
  -2   0  -5   -0.14    0.17
   2   0   5    0.34    0.23
   2   0   5   -0.24    0.21
   2   0   5   -0.05    0.24
   2   0   5   -0.07    0.13
   3   0   5    1.19    0.31
  -3   0  -5    1.00    0.18
   3   0   5    0.22    0.25
   3   0   5    0.73    0.24
   3   0   5    0.80    0.35
   3   0   5    1.11    0.32
   4   0   5   -0.13    0.10
   4   0   5   -0.12    0.20
   4   0   5    0.43    0.31
  -4   0  -5    0.00    0.13
   4   0   5   -0.35    0.23
   4   0   5   -0.04    0.08
   4   0   5   -0.07    0.18
  -5   0  -5    1.51    0.27
   5   0   5    1.31    0.38
   5   0   5    1.70    0.31
   5   0   5    2.08    0.50
   5   0   5    1.88    0.48
   6   0   5    0.07    0.39
  -6   0  -5    0.03    0.20
   6   0   5   -0.17    0.34
   6   0   5    0.17    0.36
   6   0   5    0.08    0.20
  -7   0  -5    0.18    0.23
   7   0   5   -0.05    0.36
   7   0   5   -0.47    0.29
   7   0   5   -0.05    0.21
   7   0   5   -0.45    0.40
  -8   0  -5   -0.17    0.25
   8   0   5   -0.34    0.38
   8   0   5    0.18    0.39
   8   0   5   -0.02    0.51
   9   0   5    4.73    1.21
  -9   0  -5    2.18    0.46
   9   0   5    1.84    0.59
   9   0   5    1.95    0.67
  10   0   5    0.51    0.53
 -10   0  -5    0.21    0.31
  10   0   5   -0.36    0.45
 -11   0  -5    7.10    0.87
  11   0   5    9.85    1.36
  11   0   5    7.37    1.12
 -13  -1   5    0.01    0.34
  13  -1  -5    0.12    0.48
 -13  -1   5    0.59    1.04
  13  -1  -5    0.88    0.92
  13   1  -5   -0.72    0.44
 -13   1   5    0.92    1.22
 -13   1   5    0.35    0.41
  13   1  -5    0.86    1.00
  13   1  -5    0.45    0.53
 -12  -1   5    1.61    0.42
  12  -1  -5    1.95    0.69
 -12  -1   5    1.25    1.01
  12  -1  -5    1.33    0.96
 -12   1   5    2.42    0.52
  12   1  -5    1.84    0.62
  12   1  -5    2.48    0.65
 -12   1   5   -0.42    0.99
  12   1  -5    3.04    1.17
  11  -1  -5    0.30    0.66
 -11  -1   5   -0.18    0.88
  11  -1  -5    0.22    0.45
 -11  -1   5   -0.07    0.25
 -11   1   5    0.21    1.02
  11   1  -5    0.61    0.75
  11   1  -5   -0.38    0.34
  11   1  -5   -0.38    0.34
 -11   1   5   -0.26    0.26
 -10  -1   5    7.95    1.66
  10  -1  -5    6.96    1.28
 -10  -1   5    6.39    0.71
  10  -1  -5    6.61    0.94
 -10   1   5    7.80    0.78
 -10   1   5    5.18    1.63
  10   1  -5   10.13    1.56
  10   1  -5    7.99    1.06
   9  -1  -5    0.47    0.57
   9  -1  -5    0.64    0.38
  -9  -1   5    0.10    0.21
  -9  -1   5    0.44    0.65
   9  -1  -5    0.26    0.39
  -9   1   5   -0.33    0.19
  -9   1   5   -0.40    0.73
   9   1  -5    0.59    0.65
   9   1  -5    0.32    0.40
   8  -1  -5    2.05    0.74
  -8  -1   5    2.51    0.40
  -8  -1   5    2.09    0.86
   8  -1  -5    2.58    0.40
   8   1  -5    2.55    0.85
  -8   1   5    3.11    0.44
   8   1  -5    3.19    0.64
  -8   1   5    0.90    0.94
   7  -1  -5    0.59    0.22
  -7  -1   5    0.25    0.19
  -7  -1   5    1.05    0.64
   7  -1  -5    0.99    0.56
  -7   1   5    0.56    0.74
  -7   1   5    0.21    0.21
   7   1  -5    0.90    0.36
   7   1  -5    0.36    0.56
  -6  -1   5    0.58    0.20
  -6  -1   5    0.72    0.52
   6  -1  -5    1.63    0.56
  -6  -1   5    0.50    0.13
   6  -1  -5    0.58    0.19
  -6   1   5    0.57    0.72
  -6   1   5    0.28    0.18
   6   1  -5    0.58    0.30
   6   1  -5    0.08    0.49
  -5  -1   5    7.22    1.02
  -5  -1   5    6.62    0.52
  -5  -1   5    6.79    0.46
   5  -1  -5    6.81    0.92
   5  -1  -5    6.24    0.47
  -5   1   5    6.83    0.41
   5   1  -5    6.12    1.04
   5   1  -5    6.90    0.74
  -5   1   5    7.29    0.53
  -5   1   5    3.64    1.04
  -4  -1   5   10.81    0.69
   4  -1  -5    9.15    1.00
  -4  -1   5   11.57    1.07
  -4  -1   5    9.62    0.64
  -4   1   5    7.11    1.29
   4   1  -5   10.69    1.28
  -4   1   5   10.09    0.65
   4   1  -5   11.14    0.89
  -3  -1   5   99.21    4.85
  -3  -1   5   98.81    5.20
   3  -1  -5   92.65    5.06
  -3  -1   5   95.03    4.86
  -3  -1   5   92.17    4.91
   3  -1  -5   98.21    4.80
   3   1  -5   91.00    4.99
   3   1  -5   91.97    5.32
  -3   1   5   92.81    4.81
  -2  -1   5    7.00    0.52
  -2  -1   5    7.10    0.73
  -2  -1   5    7.16    0.56
  -2  -1   5    6.79    0.47
   2  -1  -5    6.87    0.50
   2  -1  -5    7.74    0.66
   2   1  -5    5.83    0.94
  -2   1   5    6.97    0.48
   2   1  -5    7.00    0.66
  -2   1   5    6.56    0.41
  -2   1   5    4.97    0.90
  -1  -1   5   72.40    3.78
  -1  -1   5   74.20    3.69
   1  -1  -5   70.80    3.63
   1  -1  -5   72.28    3.77
  -1  -1   5   68.45    3.76
  -1  -1   5   74.00    3.94
  -1   1   5   71.15    3.76
   1   1  -5   72.78    3.88
   1   1  -5   73.71    4.15
  -1   1   5   72.59    3.74
   0  -1  -5    5.37    0.63
   0  -1   5    4.83    0.51
   0  -1  -5    4.67    0.40
   0  -1   5    4.85    0.38
   0  -1   5    5.44    0.65
   0  -1   5    4.08    0.47
   0  -1   5    4.75    0.70
   0   1   5    4.87    0.48
   0   1  -5    5.12    0.66
   0   1   5    4.61    0.40
   0   1   5    5.42    0.42
   0   1  -5    5.79    0.42
   0   1   5    5.02    0.48
   1  -1   5    3.46    0.52
   1  -1   5    4.28    0.49
  -1  -1  -5    4.12    0.33
   1  -1   5    4.17    0.64
   1  -1   5    3.92    0.35
   1   1   5    3.49    0.36
  -1   1  -5    3.01    0.54
   1   1   5    3.47    0.29
   1   1   5    4.80    0.46
  -1   1  -5    3.79    0.37
   1   1   5    4.51    0.52
   1   1   5    3.60    0.27
   2  -1   5  221.48   11.45
   2  -1   5  224.72   11.72
  -2  -1  -5  227.10   11.40
   2  -1   5  224.20   11.63
   2  -1   5  224.18   11.62
  -2   1  -5  233.36   11.48
   2   1   5  231.51   11.49
   2   1   5  230.26   11.65
  -2   1  -5  237.19   11.80
   2   1   5  226.02   11.45
   2   1   5  228.05   11.44
   2   1   5  230.38   11.51
   3  -1   5    0.75    0.32
  -3  -1  -5    1.05    0.18
   3  -1   5    1.09    0.22
   3  -1   5    0.68    0.33
   3  -1   5    1.46    0.49
  -3   1  -5    0.47    0.41
   3   1   5    0.84    0.36
  -3   1  -5    1.10    0.24
   3   1   5    0.98    0.24
   3   1   5    0.81    0.26
   3   1   5    1.11    0.25
   4  -1   5   18.89    1.24
   4  -1   5   16.31    1.31
   4  -1   5   18.31    1.03
  -4  -1  -5   16.54    0.96
   4  -1   5   15.66    1.18
   4   1   5   16.98    1.07
   4   1   5   17.60    1.03
   4   1   5   15.34    1.21
  -4   1  -5   16.09    1.03
   4   1   5   16.08    1.12
  -4   1  -5   16.86    1.37
   4   1   5   15.29    0.92
  -5  -1  -5    6.55    0.51
   5  -1   5    7.55    0.57
   5  -1   5    6.24    0.79
  -5  -1  -5    4.26    0.69
   5  -1   5    5.30    0.73
   5  -1   5    6.94    0.99
   5   1   5    5.92    0.63
   5   1   5    6.47    0.76
  -5   1  -5    6.71    0.62
  -5   1  -5    6.15    0.99
   5   1   5    5.89    0.82
   5   1   5    6.49    0.34
   5   1   5    6.56    0.53
   6  -1   5    0.33    0.50
   6  -1   5    0.49    0.43
   6  -1   5    0.42    0.32
   6  -1   5    0.22    0.27
  -6  -1  -5    0.18    0.19
   6   1   5    0.26    0.30
  -6   1  -5    0.44    0.27
   6   1   5    0.66    0.43
  -6   1  -5   -0.23    0.45
   6   1   5    0.13    0.38
   6   1   5    0.33    0.20
   7  -1   5    2.14    0.60
   7  -1   5    2.98    0.51
   7  -1   5    2.67    0.61
   7  -1   5    2.73    0.81
  -7  -1  -5    2.16    0.38
   7   1   5    3.13    0.71
  -7   1  -5    2.95    0.49
   7   1   5    3.18    0.69
   7   1   5    2.04    0.45
  -7   1  -5    2.02    0.80
   8  -1   5    0.03    0.53
   8  -1   5    0.06    0.41
   8  -1   5    0.31    0.31
   8  -1   5    0.02    0.41
  -8  -1  -5    0.21    0.24
   8   1   5    0.30    0.47
   8   1   5    0.23    0.36
  -8   1  -5   -0.17    0.51
  -8   1  -5   -0.29    0.27
  -9  -1  -5   -0.17    0.24
   9  -1   5    0.58    0.50
   9  -1   5    0.39    0.51
   9  -1   5    0.36    0.64
  -9   1  -5    1.08    0.39
   9   1   5    0.78    0.53
  -9   1  -5    0.57    0.63
   9   1   5    0.79    0.46
  10  -1   5   -0.01    0.50
  10  -1   5    0.06    0.51
 -10  -1  -5   -0.42    0.23
  10   1   5    0.24    0.51
 -10   1  -5    0.13    0.37
 -10   1  -5    0.86    0.68
  11  -1   5    0.36    0.56
  11  -1   5    1.12    0.63
  11   1   5    0.20    0.67
 -11   1  -5    0.21    0.72
 -11   1  -5    0.62    0.42
  13  -2  -5    8.59    1.28
  13  -2  -5    8.66    1.81
 -13  -2   5    6.11    0.80
 -13  -2   5    7.29    1.82
  13   2  -5    7.71    1.73
  13   2  -5    6.50    1.16
 -13   2   5    7.09    0.92
 -12  -2   5    4.08    0.63
  12  -2  -5    4.45    0.90
  12  -2  -5    4.09    1.32
 -12  -2   5    3.84    1.33
  12   2  -5    5.06    1.44
 -12   2   5    4.07    0.67
  12   2  -5    3.24    0.84
 -12   2   5    2.05    1.48
 -11  -2   5    0.22    0.34
  11  -2  -5    0.59    0.83
 -11  -2   5   -0.31    0.80
  11  -2  -5    0.51    0.52
 -11   2   5    0.49    0.38
 -11   2   5   -0.70    1.02
  11   2  -5   -0.14    0.39
  11   2  -5    0.30    0.56
  11   2  -5   -0.13    0.86
 -10  -2   5    9.73    1.72
  10  -2  -5   10.27    1.21
  10  -2  -5   12.79    1.73
 -10  -2   5   10.20    0.93
 -10   2   5    7.34    0.87
  10   2  -5   11.17    1.40
  10   2  -5   13.91    1.99
 -10   2   5    4.85    1.77
  -9  -2   5   12.50    0.94
   9  -2  -5   11.53    1.21
   9  -2  -5   12.05    1.65
  -9  -2   5   10.75    1.70
  -9   2   5    7.72    2.02
   9   2  -5   13.92    1.93
  -9   2   5   11.73    0.96
   9   2  -5   11.75    1.44
   8  -2  -5    5.99    0.80
  -8  -2   5    5.07    0.61
  -8  -2   5    4.12    1.04
   8  -2  -5    6.95    1.18
   8   2  -5    5.96    1.29
   8   2  -5    5.45    0.82
  -8   2   5    2.88    1.37
  -8   2   5    5.21    0.62
   7  -2  -5    2.98    0.83
  -7  -2   5    2.57    0.42
  -7  -2   5    2.00    0.74
   7  -2  -5    2.05    0.47
  -7   2   5    1.88    1.12
   7   2  -5    2.82    0.94
   7   2  -5    2.46    0.59
  -7   2   5    3.00    0.46
   6  -2  -5    5.83    1.01
  -6  -2   5    6.46    0.65
  -6  -2   5    7.66    0.50
   6  -2  -5    6.31    0.76
  -6  -2   5    6.57    1.05
  -6   2   5    5.89    1.52
   6   2  -5    7.86    1.33
  -6   2   5    6.60    0.66
   6   2  -5    8.94    0.98
  -5  -2   5   32.51    1.74
  -5  -2   5   31.00    1.80
   5  -2  -5   32.51    2.21
  -5  -2   5   35.77    2.30
   5   2  -5   31.38    2.04
   5   2  -5   29.15    2.48
  -5   2   5   33.24    1.80
  -5   2   5   21.60    2.58
   4  -2  -5    1.34    0.51
  -4  -2   5    0.97    0.41
  -4  -2   5    0.86    0.26
  -4  -2   5    0.79    0.22
  -4   2   5    1.30    0.27
   4   2  -5    0.53    0.63
  -4   2   5    0.64    0.70
   4   2  -5    1.34    0.50
  -3  -2   5    0.98    0.26
  -3  -2   5    0.77    0.24
   3  -2  -5    0.93    0.47
   3  -2  -5    1.18    0.18
  -3  -2   5    1.03    0.45
  -3   2   5    0.89    0.22
   3   2  -5    1.63    0.50
   3   2  -5    2.14    0.82
  -2  -2   5    0.25    0.21
  -2  -2   5    0.18    0.21
   2  -2  -5    0.43    0.34
  -2  -2   5    0.14    0.30
   2   2  -5   -0.11    0.36
  -2   2   5    0.29    0.15
   2   2  -5    0.63    0.67
  -1  -2   5    8.71    0.63
  -1  -2   5    8.60    0.91
  -1  -2   5    8.10    0.66
   1  -2  -5    8.44    0.87
  -1   2   5    8.04    0.62
   1   2  -5    8.10    0.92
   0  -2   5   68.51    3.80
   0  -2   5   63.88    3.86
   0  -2  -5   63.93    3.60
   0  -2   5   68.02    3.47
   0  -2   5   65.35    3.54
   0   2  -5   64.23    3.70
   0   2   5   65.11    3.51
  -1  -2  -5  199.17   10.36
   1  -2   5  211.72   10.87
   1  -2   5  204.11   10.54
   1  -2   5  207.96   10.44
   1   2   5  204.71   10.54
  -1   2  -5  208.87   10.71
  -1   2  -5  207.41   10.47
   2  -2   5   54.28    3.13
   2  -2   5   55.57    3.43
   2  -2   5   54.71    3.01
  -2  -2  -5   54.74    3.01
  -2  -2  -5   55.29    2.92
  -2   2  -5   57.24    3.29
  -2   2  -5   56.58    3.03
   2   2   5   59.06    2.87
   2   2   5   55.39    3.22
   2   2   5   55.69    3.16
   3  -2   5    0.28    0.27
   3  -2   5    0.44    0.27
  -3  -2  -5    0.54    0.19
   3  -2   5    0.65    0.49
  -3  -2  -5    0.69    0.24
  -3   2  -5    0.55    0.29
  -3   2  -5    0.38    0.34
   3   2   5    1.05    0.39
   3   2   5    0.95    0.43
   3   2   5    0.84    0.16
  -4  -2  -5    0.59    0.19
   4  -2   5    0.96    0.38
  -4  -2  -5    0.26    0.26
   4  -2   5   -0.11    0.23
   4  -2   5   -0.43    0.39
   4   2   5    0.25    0.16
   4   2   5    0.17    0.34
   4   2   5    0.08    0.32
  -4   2  -5   -0.09    0.38
  -4   2  -5    0.00    0.23
  -5  -2  -5    5.25    0.54
   5  -2   5    4.57    0.73
   5  -2   5    5.58    0.66
   5  -2   5    5.34    1.02
   5   2   5    6.06    0.89
   5   2   5    5.80    0.49
  -5   2  -5    7.59    1.07
   5   2   5    6.67    0.88
  -5   2  -5    5.82    0.67
   6  -2   5    3.23    0.73
   6  -2   5    3.27    0.63
   6  -2   5    3.02    0.90
  -6  -2  -5    4.34    0.48
   6  -2   5    4.48    0.60
  -6   2  -5    4.46    0.91
  -6   2  -5    3.80    0.60
   6   2   5    4.52    0.79
   6   2   5    2.65    0.67
   7  -2   5   25.94    2.28
  -7  -2  -5   26.51    1.61
   7  -2   5   29.47    1.76
   7  -2   5   25.63    1.95
   7  -2   5   27.50    1.90
  -7   2  -5   29.01    1.78
   7   2   5   24.47    1.98
  -7   2  -5   26.90    2.14
   8  -2   5   -0.68    0.30
  -8  -2  -5    0.06    0.23
   8  -2   5    0.93    0.50
   8  -2   5   -0.58    0.62
   8  -2   5    0.41    0.52
   8   2   5    0.38    0.50
  -8   2  -5    0.41    0.64
  -8   2  -5   -0.09    0.32
   9  -2   5    4.41    0.71
   9  -2   5    5.90    0.90
   9  -2   5    4.94    0.93
   9  -2   5    3.88    1.26
   9   2   5    3.43    0.90
  -9   2  -5    4.52    0.75
  -9   2  -5    3.11    0.94
  10  -2   5    0.87    0.65
  10  -2   5   -0.51    0.89
  10   2   5   -0.31    0.51
 -10   2  -5    1.41    0.86
 -10   2  -5    0.49    0.45
 -12  -3   5    6.91    0.86
 -12  -3   5    6.02    1.63
  12  -3  -5   10.64    1.98
  12  -3  -5    5.48    1.06
  12   3  -5    6.17    1.72
  12   3  -5    8.52    1.45
 -12   3   5    5.60    0.86
  11  -3  -5    0.06    0.77
  11  -3  -5    0.49    0.53
 -11  -3   5   -0.29    0.28
 -11  -3   5    0.09    0.71
  11   3  -5    0.84    1.10
 -11   3   5    0.25    0.36
  11   3  -5    0.40    0.67
 -10  -3   5    6.76    1.42
  10  -3  -5    5.00    1.30
 -10  -3   5    6.39    0.79
  10  -3  -5    9.34    1.18
  10   3  -5    9.95    1.91
  10   3  -5    9.19    1.37
 -10   3   5    5.90    0.82
   9  -3  -5    7.63    1.46
  -9  -3   5   12.20    1.79
   9  -3  -5   11.00    1.27
  -9  -3   5    8.27    0.92
   9   3  -5   11.06    1.49
   9   3  -5    9.93    1.80
  -9   3   5   10.73    1.04
   9   3  -5    8.67    1.20
   8  -3  -5    0.20    0.43
   8  -3  -5    0.27    0.64
  -8  -3   5   -0.29    0.54
  -8  -3   5    0.06    0.26
   8   3  -5    0.44    0.49
   8   3  -5   -0.76    0.65
  -8   3   5    0.56    0.33
  -7  -3   5    7.43    1.30
   7  -3  -5    9.46    1.03
  -7  -3   5    7.90    0.82
   7  -3  -5    7.25    1.27
  -7   3   5    7.65    0.80
   7   3  -5    6.89    1.06
   7   3  -5    8.46    1.68
  -6  -3   5    5.13    0.53
  -6  -3   5    5.30    0.65
   6  -3  -5    4.94    1.04
  -6  -3   5    5.64    1.07
   6  -3  -5    5.80    0.76
   6   3  -5    4.21    1.23
   6   3  -5    4.90    0.90
  -6   3   5    5.36    0.66
   5  -3  -5   14.33    1.66
  -5  -3   5   15.43    1.05
  -5  -3   5   13.77    1.43
   5  -3  -5   13.40    1.09
  -5   3   5   13.99    1.02
   5   3  -5   15.92    2.19
   5   3  -5   14.77    1.38
  -4  -3   5    0.75    0.53
  -4  -3   5    0.78    0.30
   4  -3  -5    0.98    0.33
  -4  -3   5    1.03    0.29
   4  -3  -5   -0.14    0.47
  -4   3   5    0.65    0.29
  -4   3   5    1.00    0.22
   4   3  -5    0.25    0.56
   4   3  -5    2.32    1.02
   3  -3  -5    7.51    0.66
  -3  -3   5    8.52    0.67
   3  -3  -5    7.74    1.10
  -3  -3   5    8.20    0.78
  -3  -3   5    6.57    1.03
   3   3  -5    6.77    1.03
   3   3  -5    6.71    1.48
  -3   3   5    8.55    0.61
  -3   3   5    7.44    0.50
   2  -3  -5    3.39    0.79
  -2  -3   5    3.20    0.76
   2  -3  -5    3.70    0.45
  -2  -3   5    4.06    0.50
  -2  -3   5    4.39    0.54
  -2   3   5    5.00    0.53
   2   3  -5    4.39    0.80
  -2   3   5    3.81    0.42
   2   3  -5    6.71    1.44
  -1  -3   5   10.12    0.80
  -1  -3   5    8.91    0.78
   1  -3  -5   10.08    1.17
  -1  -3   5    9.77    1.26
   1  -3  -5   10.21    0.69
  -1   3   5   11.29    0.80
   1   3  -5   10.23    1.17
   0  -3  -5    1.93    0.59
   0  -3   5    2.05    0.43
   0  -3   5    3.96    0.92
   0  -3  -5    1.70    0.22
   0  -3  -5    1.79    0.33
   0  -3   5    1.70    0.36
   0  -3   5    1.72    0.62
   0   3   5    1.65    0.40
   0   3  -5    1.42    0.53
  -1  -3  -5    0.13    0.20
   1  -3   5    0.11    0.53
   1  -3   5    0.35    0.43
   1  -3   5   -0.37    0.21
   1  -3   5    0.13    0.24
   1   3   5   -0.35    0.25
  -1   3  -5   -0.25    0.41
   2  -3   5    5.11    0.64
   2  -3   5    4.52    0.67
  -2  -3  -5    6.64    0.71
  -2  -3  -5    6.06    0.59
   2  -3   5    5.47    1.07
   2   3   5    5.00    0.75
   2   3   5    7.55    1.18
  -2   3  -5    5.13    0.89
  -2   3  -5    4.44    0.63
  -3  -3  -5   11.61    1.00
   3  -3   5   13.18    1.09
   3  -3   5   10.87    1.54
  -3  -3  -5   12.52    0.87
   3  -3   5   11.67    0.95
  -3   3  -5   10.71    1.05
  -3   3  -5   14.19    1.27
   3   3   5   12.81    1.14
   3   3   5   11.50    1.49
  -4  -3  -5    8.21    0.74
   4  -3   5    8.45    1.39
   4  -3   5    8.34    0.87
   4  -3   5    8.03    0.97
  -4   3  -5    9.07    0.92
   4   3   5    7.20    1.01
   4   3   5    6.38    1.12
  -4   3  -5    8.36    1.17
  -5  -3  -5    0.29    0.26
   5  -3   5    0.78    0.76
   5  -3   5    0.57    0.43
   5  -3   5    0.10    0.36
  -5   3  -5    0.03    0.34
  -5   3  -5   -0.20    0.47
   5   3   5    0.14    0.47
   5   3   5    0.09    0.53
   6  -3   5    2.40    0.55
  -6  -3  -5    1.67    0.38
   6  -3   5    2.46    0.97
   6  -3   5    2.28    0.64
  -6   3  -5    2.96    0.78
  -6   3  -5    2.36    0.56
   6   3   5    1.89    0.66
   7  -3   5    2.76    1.04
   7  -3   5    1.67    0.51
  -7  -3  -5    1.20    0.38
   7  -3   5    0.18    0.47
  -7   3  -5    0.85    0.60
  -7   3  -5    1.73    0.55
   7   3   5    2.40    0.72
   8  -3   5   -0.99    0.75
   8  -3   5    0.34    0.48
   8  -3   5    0.02    0.51
  -8   3  -5    0.16    0.65
  -8   3  -5    0.54    0.42
   8   3   5    0.41    0.53
   9  -3   5   13.70    2.16
   9  -3   5   12.67    1.54
   9  -3   5   13.87    1.31
   9   3   5   11.88    1.54
  -9   3  -5   11.56    1.65
  -9   3  -5   11.82    1.32
 -10   3  -5    1.33    0.62
 -10   3  -5   -0.25    0.64
 -10  -4   5    7.49    0.91
  10  -4  -5    8.36    1.25
  10  -4  -5    8.12    1.68
 -10  -4   5    8.67    1.68
  10   4  -5    5.87    1.63
 -10   4   5    7.66    0.97
  10   4  -5    5.95    1.31
   9  -4  -5    0.62    0.51
  -9  -4   5    1.66    0.91
  -9  -4   5    0.54    0.37
   9  -4  -5    0.00    0.82
   9   4  -5    1.33    0.86
   9   4  -5    1.63    0.68
   9   4  -5    1.15    1.11
  -9   4   5    1.73    0.54
  -8  -4   5    2.57    1.01
  -8  -4   5    3.15    0.57
   8  -4  -5    2.01    0.94
   8  -4  -5    2.75    0.73
  -8   4   5    2.85    0.62
   8   4  -5    2.04    1.16
   8   4  -5    3.81    0.89
  -7  -4   5   30.55    2.53
  -7  -4   5   26.60    1.82
   7  -4  -5   26.94    2.54
   7  -4  -5   27.76    1.99
   7   4  -5   27.20    3.33
   7   4  -5   30.44    2.28
  -7   4   5   28.47    1.87
  -6  -4   5    0.87    0.39
   6  -4  -5    2.03    0.91
   6  -4  -5    0.62    0.40
  -6  -4   5    1.40    0.73
   6   4  -5    1.27    0.67
  -6   4   5    0.13    0.36
   6   4  -5   -1.04    0.79
  -5  -4   5   65.99    3.67
   5  -4  -5   62.24    4.30
   5  -4  -5   62.84    3.70
  -5  -4   5   68.06    4.28
   5   4  -5   67.36    4.10
   5   4  -5   66.96    5.00
   4  -4  -5   12.31    1.64
  -4  -4   5   10.36    1.18
  -4  -4   5   13.27    1.68
  -4  -4   5   10.36    1.05
   4  -4  -5   11.75    0.96
   4   4  -5   13.30    2.25
   4   4  -5   14.19    1.59
  -3  -4   5   -0.15    0.51
  -3  -4   5   -0.01    0.23
   3  -4  -5   -0.48    0.51
   3  -4  -5    0.35    0.29
  -3  -4   5   -0.38    0.25
   3   4  -5   -0.45    0.96
  -3   4   5    0.36    0.28
   3   4  -5    0.81    0.70
  -2  -4   5   31.87    2.00
  -2  -4   5   31.81    2.49
   2  -4  -5   29.46    2.47
   2  -4  -5   33.14    1.92
  -2  -4   5   31.22    1.90
   2  -4  -5   29.68    1.98
   2   4  -5   49.24    3.71
   2   4  -5   32.84    2.40
  -2   4   5   32.96    1.98
   1  -4  -5    3.33    0.57
   1  -4  -5    2.88    0.86
  -1  -4   5    3.62    0.61
  -1  -4   5    3.44    0.55
  -1  -4   5    3.48    0.89
  -1   4   5    3.65    0.55
  -1   4   5    4.23    0.61
   1   4  -5    3.68    0.91
   0  -4  -5    0.06    0.60
   0  -4   5    0.12    0.33
   0  -4   5    0.19    0.51
   0  -4   5   -0.15    0.30
   0  -4   5   -0.09    0.65
   0  -4  -5   -0.11    0.29
   0   4   5    0.15    0.34
   0   4  -5    0.52    0.62
  -1  -4  -5    1.08    0.50
   1  -4   5    1.04    0.41
  -1  -4  -5    2.12    0.47
   1  -4   5    4.21    1.14
   1  -4   5    2.09    0.48
   1  -4   5    1.47    0.75
  -1   4  -5    1.53    0.71
   1   4   5    2.04    0.52
  -2  -4  -5   -0.05    0.27
   2  -4   5    0.30    0.34
  -2  -4  -5    1.04    0.47
   2  -4   5    0.19    0.76
   2  -4   5   -0.29    0.32
  -2   4  -5    0.02    0.55
   2   4   5    0.12    0.80
   2   4   5   -0.32    0.37
   3  -4   5    1.12    0.50
   3  -4   5    1.64    0.49
  -3  -4  -5    1.84    0.45
   3  -4   5    1.21    0.92
  -3   4  -5    1.59    0.70
   3   4   5    1.63    0.56
   3   4   5    0.85    0.78
   4  -4   5    0.67    0.86
  -4  -4  -5    1.65    0.38
   4  -4   5    1.71    0.58
   4  -4   5    1.34    0.49
  -4   4  -5    0.36    0.42
   4   4   5    1.56    0.88
   4   4   5    2.18    0.65
  -4   4  -5    1.72    0.82
   5  -4   5    4.23    1.35
  -5  -4  -5    3.19    0.55
   5  -4   5    4.82    0.85
   5  -4   5    5.79    0.81
  -5   4  -5    3.86    0.96
  -5   4  -5    4.13    0.74
   5   4   5    2.92    0.78
   6  -4   5   -0.50    0.42
   6  -4   5   -0.43    0.38
   6  -4   5    0.13    0.87
  -6   4  -5   -0.25    0.40
  -6   4  -5    0.25    0.57
   6   4   5   -0.07    0.53
   7  -4   5    0.37    0.51
   7  -4   5   -0.26    0.87
   7  -4   5   -0.61    0.51
   7   4   5    2.14    0.79
  -7   4  -5    1.17    0.71
  -7   4  -5    0.69    0.48
   8  -4   5    1.65    0.71
   8  -4   5    1.16    0.56
   8  -4   5    0.75    1.09
  -8   4  -5    0.46    0.51
   8   4   5    0.02    0.56
  -8   4  -5   -0.03    0.67
   8  -5  -5    0.90    0.64
  -8  -5   5    0.48    0.44
  -8  -5   5    0.82    0.77
   8  -5  -5   -0.20    0.86
   8   5  -5    2.53    0.84
   8   5  -5    1.09    1.33
   8   5  -5    0.04    0.72
  -7  -5   5    1.65    0.49
  -7  -5   5    0.28    0.73
   7  -5  -5    0.02    0.86
   7  -5  -5    2.16    0.64
   7   5  -5    2.69    0.90
   7   5  -5    4.06    1.62
  -6  -5   5   -0.10    0.36
   6  -5  -5    0.15    0.79
   6  -5  -5    0.40    0.50
  -6  -5   5    0.13    0.74
   6   5  -5   -0.10    1.20
   6   5  -5    1.19    0.70
  -5  -5   5    1.50    0.48
   5  -5  -5    1.80    0.98
  -5  -5   5    1.73    0.86
   5   5  -5    2.02    0.92
   5   5  -5    1.35    1.29
  -4  -5   5   10.43    1.11
   4  -5  -5   12.66    1.90
   4  -5  -5   10.48    1.19
  -4  -5   5    9.81    1.65
   4   5  -5   11.77    1.64
   4   5  -5   11.04    2.44
  -3  -5   5   -0.26    0.33
  -3  -5   5    0.09    0.60
   3  -5  -5   -0.12    0.36
   3  -5  -5    0.36    0.83
   3   5  -5    0.77    0.89
   3   5  -5    0.82    1.23
  -2  -5   5    9.27    1.57
   2  -5  -5    8.89    1.58
   2  -5  -5   10.75    1.11
  -2  -5   5    8.96    1.03
   2   5  -5   13.55    2.59
   2   5  -5    9.75    1.54
  -1  -5   5    6.29    0.85
   1  -5  -5    5.89    0.82
   1  -5  -5    6.07    1.30
  -1  -5   5    6.38    1.31
  -1   5   5    7.82    0.94
   1   5  -5    3.96    1.16
   0  -5  -5   -0.29    0.35
   0  -5  -5    0.84    0.88
   0  -5  -5   -0.06    0.43
   0  -5   5   -0.33    0.47
   0  -5   5   -0.13    0.36
   0  -5   5    0.55    0.83
   0  -5   5    0.07    0.34
   0   5  -5   -0.87    0.68
   1  -5   5    5.00    0.79
  -1  -5  -5    3.23    0.89
   1  -5   5    2.97    1.16
   1  -5   5    5.19    1.24
  -1  -5  -5    4.30    0.69
   1  -5   5    5.27    0.78
  -1   5  -5    4.24    1.09
   1   5   5    4.63    0.82
   2  -5   5    1.16    0.54
   2  -5   5    0.92    0.50
   2  -5   5    0.65    0.74
  -2  -5  -5    1.93    0.47
   2  -5   5   -0.45    0.81
  -2   5  -5    2.24    0.92
   2   5   5    1.47    1.29
   2   5   5    0.67    0.48
  -3  -5  -5    0.32    0.34
   3  -5   5   -0.53    0.76
   3  -5   5    0.28    0.65
   3  -5   5   -0.29    0.36
   3  -5   5   -0.15    0.41
   3   5   5   -0.41    0.39
  -3   5  -5    0.37    0.72
  -4  -5  -5    0.05    0.30
   4  -5   5   -0.22    0.37
   4  -5   5   -0.17    0.43
   4  -5   5    0.00    0.97
  -4   5  -5   -1.09    0.50
   4   5   5    0.66    0.66
   5  -5   5   -0.23    1.04
   5  -5   5    1.40    0.64
   5  -5   5    1.06    0.55
  -5   5  -5   -0.20    0.75
   5   5   5    0.46    0.61
   6  -5   5    7.57    1.20
   6  -5   5   11.29    2.22
   6  -5   5    8.57    1.18
   6   5   5    8.38    1.34
  -6   5  -5    6.82    1.30
   4  -6  -5    0.59    0.54
   4  -6  -5   -0.46    0.86
  -4  -6   5    1.47    0.94
  -4  -6   5    0.25    0.43
   4   6  -5    2.03    1.64
   4   6  -5    0.86    0.84
  -3  -6   5    0.79    0.86
   3  -6  -5    1.57    0.65
   3  -6  -5   -0.78    0.89
  -3  -6   5    1.43    0.53
   3   6  -5    1.38    1.52
   3   6  -5    3.32    1.09
  -2  -6   5   -0.04    0.45
  -2  -6   5   -0.94    0.58
   2  -6  -5    0.98    0.53
   2  -6  -5    0.64    0.92
   2   6  -5    0.47    1.48
   2   6  -5   -0.25    0.85
   1  -6  -5    0.57    0.67
  -1  -6   5    0.71    0.81
   1  -6  -5   -0.37    0.82
   1  -6  -5   -0.54    0.39
  -1  -6   5   -0.29    0.40
   1   6  -5   -3.09    1.15
   1   6  -5   -1.60    0.74
   0  -6  -5    1.65    0.83
   0  -6   5    3.04    0.71
   0  -6   5    3.09    1.16
   0  -6  -5    3.19    0.69
   0   6  -5   -0.26    0.94
   1  -6   5    0.34    0.72
  -1  -6  -5    0.24    0.42
   1  -6   5    0.17    0.47
  -1   6  -5   -1.93    0.94
   2  -6   5    2.47    0.68
  -2  -6  -5    0.81    0.52
   2  -6   5   -1.14    0.95
   2  -6   5    1.51    1.01
  -2   6  -5    0.14    1.10
 -13   0   6    1.16    1.36
 -13   0   6   -0.12    0.33
  13   0  -6   -0.66    0.70
  13   0  -6    0.90    0.59
  12   0  -6   -0.78    0.74
  12   0  -6   -0.13    0.46
 -12   0   6   -0.10    0.27
 -12   0   6    0.10    0.96
 -11   0   6   -0.40    0.85
 -11   0   6    0.02    0.26
  11   0  -6   -0.28    0.30
  11   0  -6    0.57    0.48
  11   0  -6   -0.19    0.61
  10   0  -6   13.53    1.12
 -10   0   6   12.82    0.97
 -10   0   6   11.37    2.09
  10   0  -6   15.30    1.83
  -9   0   6   -0.22    0.23
   9   0  -6   -0.71    0.45
  -9   0   6   -0.12    0.68
   9   0  -6   -0.24    0.26
  -8   0   6   18.92    2.22
  -8   0   6   26.43    1.49
   8   0  -6   24.16    1.64
   8   0  -6   29.08    2.11
  -7   0   6    0.09    0.17
  -7   0   6   -0.06    0.58
   7   0  -6    0.42    0.50
  -6   0   6   19.71    1.98
   6   0  -6   23.81    1.83
   6   0  -6   25.60    1.43
  -6   0   6   25.84    1.40
   5   0  -6   -0.13    0.36
  -5   0   6   -0.03    0.16
  -5   0   6   -0.49    0.44
  -5   0   6   -0.03    0.12
   5   0  -6    0.03    0.21
  -4   0   6    7.46    0.52
  -4   0   6    7.36    0.54
  -4   0   6    8.12    1.11
   4   0  -6    7.81    0.95
   3   0  -6    0.32    0.35
  -3   0   6   -0.05    0.15
  -3   0   6    0.05    0.40
  -3   0   6   -0.02    0.12
  -2   0   6    8.08    0.61
   2   0  -6    7.74    0.80
  -2   0   6    7.41    0.42
  -2   0   6    6.55    0.54
   2   0  -6    7.80    0.61
  -2   0   6    6.91    0.77
  -1   0   6   -0.08    0.26
  -1   0   6   -0.24    0.18
  -1   0   6   -0.03    0.17
   1   0  -6   -0.05    0.08
   1   0  -6    0.37    0.24
   1   0  -6    0.10    0.26
   0   0  -6   46.92    2.23
   0   0  -6   44.76    2.56
   0   0  -6   43.72    2.35
   0   0   6   47.01    2.43
   0   0   6   43.15    2.40
   0   0   6   42.82    2.45
   0   0  -6   44.15    2.23
   0   0  -6   38.42    2.38
   0   0   6   46.11    2.40
  -1   0  -6    0.03    0.08
  -1   0  -6   -0.02    0.07
   1   0   6    0.30    0.27
   1   0   6   -0.03    0.15
   1   0   6   -0.07    0.18
  -1   0  -6    0.16    0.39
  -1   0  -6    0.03    0.14
   1   0   6    0.03    0.21
   2   0   6   11.44    0.89
   2   0   6   10.87    0.76
  -2   0  -6   11.29    0.63
   2   0   6   10.86    0.76
   2   0   6   10.88    0.80
  -2   0  -6   10.00    0.71
   2   0   6   10.83    0.68
   3   0   6    0.23    0.30
   3   0   6    0.51    0.26
  -3   0  -6   -0.05    0.11
   3   0   6    0.15    0.23
   3   0   6    0.13    0.21
   3   0   6   -0.43    0.22
   4   0   6    2.24    0.35
  -4   0  -6    2.37    0.29
   4   0   6    1.76    0.47
   4   0   6    2.03    0.43
   4   0   6    1.16    0.37
   5   0   6    0.24    0.38
   5   0   6   -0.17    0.20
   5   0   6    0.27    0.36
   5   0   6    0.08    0.09
   5   0   6   -0.22    0.27
  -5   0  -6   -0.23    0.16
   6   0   6   47.04    2.77
   6   0   6   48.57    2.88
   6   0   6   49.52    2.95
  -6   0  -6   44.28    2.56
   6   0   6   47.32    2.62
  -7   0  -6    0.20    0.24
   7   0   6   -0.81    0.35
   7   0   6    0.35    0.39
   7   0   6   -0.03    0.45
   7   0   6   -0.04    0.22
   8   0   6  150.50    8.31
  -8   0  -6  152.89    7.92
   8   0   6  155.76    8.17
   9   0   6    0.61    0.54
   9   0   6    0.28    0.45
  -9   0  -6   -0.06    0.29
  10   0   6    3.74    0.90
  10   0   6    5.12    0.88
 -10   0  -6    4.17    0.63
  11   0   6    0.34    0.64
 -11   0  -6    1.98    0.91
  11   0   6    1.04    0.64
  13  -1  -6   -0.09    0.82
 -13  -1   6    0.06    0.31
 -13  -1   6   -0.60    0.86
  13  -1  -6   -0.25    0.49
 -13   1   6    1.93    1.49
  13   1  -6   -0.10    0.83
 -13   1   6    0.51    0.40
  13   1  -6   -0.27    0.45
 -12  -1   6    0.00    0.86
  12  -1  -6    0.39    0.39
  12  -1  -6    0.18    0.73
 -12  -1   6    0.14    0.29
 -12   1   6    0.30    0.34
  12   1  -6   -0.47    0.39
 -12   1   6   -1.23    0.90
  12   1  -6   -0.12    0.50
  12   1  -6    0.56    0.86
  11  -1  -6    6.28    1.29
 -11  -1   6    6.56    0.75
 -11  -1   6    4.07    1.41
  11  -1  -6    7.17    1.01
  11   1  -6    7.42    1.03
 -11   1   6    6.50    0.74
  11   1  -6    9.18    1.55
  11   1  -6    6.54    0.93
 -11   1   6    6.62    1.83
  10  -1  -6   -0.18    0.55
  10  -1  -6    0.25    0.44
 -10  -1   6    0.28    0.75
 -10  -1   6    0.87    0.30
 -10   1   6    0.60    0.99
  10   1  -6    0.70    0.54
 -10   1   6    1.04    0.34
  10   1  -6    0.03    0.70
   9  -1  -6    6.41    1.19
  -9  -1   6    5.91    0.66
  -9  -1   6    6.68    1.41
   9   1  -6    7.49    1.34
  -9   1   6    6.05    1.58
  -9   1   6    7.33    0.72
   9   1  -6    6.91    1.03
  -8  -1   6   34.28    2.02
   8  -1  -6   37.55    2.62
   8  -1  -6   37.49    2.02
  -8  -1   6   37.72    2.89
  -8   1   6   24.74    2.89
   8   1  -6   38.62    2.22
   8   1  -6   36.54    2.71
  -8   1   6   35.56    2.03
  -7  -1   6   18.93    1.80
   7  -1  -6   19.29    1.14
  -7  -1   6   18.67    1.05
   7  -1  -6   18.21    1.61
  -7  -1   6   18.31    1.16
  -7   1   6   18.34    1.16
   7   1  -6   20.12    1.33
   7   1  -6   22.24    1.83
  -7   1   6   13.87    2.13
   6  -1  -6   27.71    1.87
  -6  -1   6   21.33    1.89
  -6  -1   6   24.06    1.32
  -6  -1   6   23.66    1.39
   6  -1  -6   23.88    1.36
  -6   1   6   17.62    2.10
  -6   1   6   23.69    1.39
   6   1  -6   23.06    1.93
   6   1  -6   25.77    1.56
  -6   1   6   24.84    1.28
  -5  -1   6   12.79    0.82
  -5  -1   6   14.22    1.32
  -5  -1   6   13.39    0.85
   5  -1  -6   16.78    1.27
   5   1  -6   14.20    1.04
  -5   1   6   13.58    0.85
   5   1  -6   12.43    1.47
  -5   1   6   10.25    1.60
  -4  -1   6    1.83    0.27
  -4  -1   6    2.48    0.30
  -4  -1   6    3.47    0.70
   4  -1  -6    2.45    0.56
   4   1  -6    2.54    0.50
  -4   1   6    0.98    0.67
  -4   1   6    1.87    0.27
   4   1  -6    2.27    0.71
  -3  -1   6   46.42    2.61
   3  -1  -6   49.42    2.77
   3  -1  -6   48.72    2.46
  -3  -1   6   47.30    2.56
  -3  -1   6   50.28    2.90
  -3  -1   6   50.35    2.52
   3   1  -6   48.67    2.72
  -3   1   6   36.54    3.03
  -3   1   6   50.19    2.48
   3   1  -6   48.51    3.05
  -2  -1   6   53.30    2.76
  -2  -1   6   53.94    3.08
   2  -1  -6   55.45    2.83
   2  -1  -6   53.92    2.92
  -2  -1   6   53.50    2.84
  -2  -1   6   52.14    2.87
   2   1  -6   52.83    2.98
  -2   1   6   50.72    2.84
  -2   1   6   54.14    2.80
   2   1  -6   51.24    3.27
  -1  -1   6    0.55    0.34
  -1  -1   6    0.33    0.15
   1  -1  -6    0.38    0.21
  -1  -1   6    0.54    0.25
   1  -1  -6    0.52    0.10
  -1  -1   6    0.36    0.23
   1   1  -6    0.54    0.34
  -1   1   6    0.12    0.40
   1   1  -6    0.19    0.50
  -1   1   6    0.31    0.23
  -1   1   6    0.44    0.21
   0  -1   6   43.90    2.52
   0  -1  -6   42.81    2.25
   0  -1   6   42.97    2.25
   0  -1   6   39.53    2.23
   0  -1   6   44.65    2.40
   0  -1   6   46.61    2.42
   0   1   6   44.24    2.26
   0   1   6   44.27    2.33
   0   1  -6   42.83    2.30
   0   1   6   43.90    2.37
   0   1   6   44.92    2.41
   0   1  -6   43.00    2.56
   1  -1   6   41.88    2.33
   1  -1   6   39.97    2.13
   1  -1   6   40.65    2.30
   1  -1   6   41.49    2.12
   1  -1   6   41.27    2.39
   1  -1   6   40.79    2.45
   1   1   6   42.33    2.25
  -1   1  -6   43.86    2.51
   1   1   6   39.83    2.33
  -1   1  -6   40.99    2.19
   1   1   6   39.91    2.21
   2  -1   6    5.71    0.48
   2  -1   6    6.62    0.67
   2  -1   6    6.83    0.46
   2  -1   6    6.97    0.83
  -2  -1  -6    6.76    0.40
   2  -1   6    6.73    0.74
   2  -1   6    6.05    0.68
   2   1   6    6.89    0.55
  -2   1  -6    6.82    0.51
   2   1   6    7.32    0.55
   2   1   6    7.67    0.77
  -2   1  -6    6.06    0.85
  -3  -1  -6    1.78    0.21
   3  -1   6    1.03    0.37
   3  -1   6    1.36    0.40
   3  -1   6    1.79    0.51
   3  -1   6    0.97    0.32
   3  -1   6    1.85    0.26
   3   1   6    1.76    0.26
   3   1   6    1.66    0.45
  -3   1  -6    3.29    0.69
   3   1   6    1.88    0.31
   3   1   6    1.64    0.29
  -3   1  -6    1.22    0.27
   4  -1   6    1.68    0.38
   4  -1   6    1.55    0.43
   4  -1   6    1.50    0.52
   4  -1   6    1.57    0.26
   4  -1   6    1.48    0.43
  -4  -1  -6    1.22    0.22
   4   1   6    1.14    0.28
   4   1   6    1.94    0.35
   4   1   6    1.30    0.43
  -4   1  -6    1.81    0.32
   4   1   6    1.92    0.34
  -4   1  -6    1.05    0.54
   5  -1   6    0.11    0.26
  -5  -1  -6    0.43    0.19
   5  -1   6    0.36    0.48
   5  -1   6    0.14    0.19
   5  -1   6    0.47    0.38
   5  -1   6    0.23    0.34
   5   1   6   -0.22    0.25
   5   1   6   -0.22    0.30
  -5   1  -6    0.10    0.21
  -5   1  -6    0.55    0.51
   5   1   6    0.33    0.21
   5   1   6    0.29    0.31
   6  -1   6   12.90    0.84
   6  -1   6   12.96    1.42
   6  -1   6   12.90    1.21
   6  -1   6   11.99    1.12
  -6  -1  -6   11.68    0.81
   6  -1   6   12.20    0.95
   6   1   6   10.79    1.11
  -6   1  -6   11.43    0.89
   6   1   6   11.13    0.83
  -6   1  -6    9.74    1.41
   6   1   6   12.98    1.18
   6   1   6   12.30    0.98
  -7  -1  -6    0.11    0.19
   7  -1   6    0.39    0.62
   7  -1   6    0.18    0.33
   7  -1   6    0.13    0.25
   7  -1   6    0.99    0.49
   7  -1   6    0.88    0.47
   7   1   6    0.77    0.39
  -7   1  -6    1.19    0.35
  -7   1  -6    0.54    0.62
   7   1   6    0.19    0.44
  -8  -1  -6    1.20    0.35
   8  -1   6    1.30    0.43
   8  -1   6    1.72    0.82
   8  -1   6    2.01    0.65
   8  -1   6    1.38    0.56
  -8   1  -6    1.96    0.47
   8   1   6    1.52    0.60
   8   1   6    2.19    0.51
  -8   1  -6    2.56    0.89
   9  -1   6   20.88    1.76
   9  -1   6   21.03    1.70
  -9   1  -6   18.68    1.40
   9   1   6   17.92    1.72
  -9   1  -6   21.57    2.36
  10  -1   6    9.97    1.26
  10  -1   6    8.67    1.24
 -10   1  -6    7.87    0.95
  10   1   6    8.58    1.33
 -10   1  -6    6.72    1.38
  13  -2  -6    1.99    1.09
 -13  -2   6    1.03    0.46
 -13  -2   6    2.35    1.26
  13  -2  -6    1.26    0.67
 -13   2   6   -0.44    1.16
  13   2  -6    1.62    1.16
 -13   2   6    0.23    0.41
  13   2  -6    1.55    0.74
  12  -2  -6    0.53    0.78
 -12  -2   6    0.75    0.36
 -12  -2   6    0.42    0.90
  12  -2  -6   -0.18    0.52
  12   2  -6   -0.14    0.95
 -12   2   6   -0.30    0.37
 -12   2   6   -0.16    1.18
  12   2  -6    0.23    0.63
 -11  -2   6    0.50    0.83
 -11  -2   6    0.37    0.34
  11  -2  -6   -0.97    0.48
  11  -2  -6   -0.06    0.45
  11   2  -6   -0.97    0.70
  11   2  -6   -0.63    0.54
 -11   2   6    0.19    0.37
 -11   2   6   -0.64    0.94
  10  -2  -6    5.09    0.85
 -10  -2   6    3.79    0.55
 -10  -2   6    4.65    1.28
  10  -2  -6    3.86    0.97
  10   2  -6    3.99    1.22
 -10   2   6    3.87    0.60
  10   2  -6    4.23    0.93
 -10   2   6    1.82    1.38
   9  -2  -6   -0.19    0.35
  -9  -2   6    0.14    0.67
  -9  -2   6    0.48    0.28
   9  -2  -6   -0.27    0.56
  -9   2   6   -0.31    0.92
  -9   2   6   -0.11    0.28
   9   2  -6    0.67    0.44
   9   2  -6    1.63    0.90
   8  -2  -6   -0.04    0.36
   8  -2  -6    0.55    0.62
  -8  -2   6    0.18    0.25
  -8  -2   6   -0.66    0.49
   8   2  -6    0.20    0.41
  -8   2   6   -0.20    0.64
  -8   2   6   -0.20    0.26
   8   2  -6    0.19    0.72
  -7  -2   6   10.44    1.49
  -7  -2   6   10.99    0.67
   7  -2  -6   11.09    1.44
  -7  -2   6   10.01    0.82
  -7   2   6    6.73    1.73
   7   2  -6   10.84    1.18
   7   2  -6   10.53    1.61
  -7   2   6   11.29    0.83
  -6  -2   6    0.08    0.46
  -6  -2   6    0.10    0.19
  -6  -2   6    0.10    0.16
   6  -2  -6    0.22    0.47
   6   2  -6   -0.52    0.49
  -6   2   6    0.58    0.24
  -6   2   6   -0.64    0.67
   6   2  -6    0.28    0.41
  -5  -2   6   -0.13    0.19
  -5  -2   6   -0.15    0.38
   5  -2  -6   -0.32    0.37
  -5  -2   6    0.05    0.16
  -5   2   6    0.25    0.73
   5   2  -6    0.74    0.67
   5   2  -6   -0.06    0.37
  -5   2   6   -0.05    0.16
  -4  -2   6    3.12    0.42
  -4  -2   6    2.99    0.68
   4  -2  -6    2.56    0.62
  -4  -2   6    2.37    0.37
  -4  -2   6    3.30    0.42
  -4   2   6    1.93    0.90
   4   2  -6    3.05    0.65
  -4   2   6    2.96    0.36
   4   2  -6    3.52    0.91
   3  -2  -6   64.41    3.57
   3  -2  -6   59.55    3.16
  -3  -2   6   61.49    3.68
  -3  -2   6   62.80    3.33
  -3  -2   6   61.99    3.28
   3   2  -6   62.67    4.06
   3   2  -6   62.26    3.54
  -2  -2   6   22.43    1.63
   2  -2  -6   19.36    1.45
  -2  -2   6   21.07    1.26
  -2  -2   6   21.70    1.33
   2   2  -6   21.48    1.98
   2   2  -6   21.28    1.52
  -2   2   6   21.81    1.22
  -1  -2   6    0.00    0.34
  -1  -2   6    0.05    0.22
   1  -2  -6    0.19    0.28
  -1  -2   6   -0.02    0.19
  -1   2   6   -0.21    0.17
   1   2  -6   -0.04    0.26
   0  -2  -6   46.94    2.70
   0  -2   6   48.08    2.58
   0  -2   6   46.64    2.69
   0  -2   6   47.62    2.92
   0  -2   6   49.28    3.04
   0   2  -6   48.12    2.86
   0   2   6   49.11    2.66
   1  -2   6   87.38    5.08
   1  -2   6   90.93    4.65
   1  -2   6   87.59    4.77
  -1  -2  -6   87.96    4.56
   1  -2   6   92.07    5.02
   1   2   6   89.36    4.78
  -1   2  -6   90.77    4.96
  -1   2  -6   89.14    4.69
   2  -2   6  145.43    7.64
  -2  -2  -6  144.44    7.61
   2  -2   6  142.74    7.81
  -2  -2  -6  153.20    7.57
   2  -2   6  153.28    8.12
   2   2   6  152.41    7.56
  -2   2  -6  157.38    7.71
   2   2   6  145.67    7.78
  -2   2  -6  153.59    8.02
   2   2   6  150.08    7.84
  -3  -2  -6    7.77    0.55
   3  -2   6    6.93    0.65
   3  -2   6    8.44    1.16
   3  -2   6    6.63    0.82
  -3  -2  -6    7.03    0.52
   3   2   6    6.95    0.78
  -3   2  -6    6.05    0.94
   3   2   6    6.98    0.51
  -3   2  -6    7.51    0.73
   3   2   6    7.84    0.89
   4  -2   6    1.04    0.38
   4  -2   6    0.45    0.57
  -4  -2  -6    0.37    0.20
   4  -2   6    0.26    0.26
  -4   2  -6    0.20    0.27
   4   2   6    0.62    0.21
   4   2   6   -0.49    0.30
   4   2   6   -0.10    0.31
  -4   2  -6    0.26    0.47
   5  -2   6   -0.06    0.26
  -5  -2  -6    0.28    0.22
   5  -2   6    0.08    0.35
   5  -2   6   -0.07    0.62
  -5   2  -6    0.40    0.53
   5   2   6    0.15    0.36
  -5   2  -6   -0.08    0.29
   5   2   6    0.06    0.30
   5   2   6    0.28    0.22
   6  -2   6    0.89    0.51
   6  -2   6    0.52    0.63
   6  -2   6    0.75    0.35
  -6  -2  -6    1.11    0.28
   6  -2   6    0.40    0.43
  -6   2  -6    0.69    0.36
  -6   2  -6    0.69    0.59
   6   2   6    0.82    0.51
   7  -2   6    0.60    0.52
   7  -2   6    0.77    0.51
   7  -2   6    0.35    0.69
   7  -2   6    0.21    0.30
  -7   2  -6    0.71    0.62
   7   2   6   -0.37    0.43
  -7   2  -6    0.21    0.33
   8  -2   6    8.21    1.51
   8  -2   6    7.22    1.07
   8  -2   6    6.66    0.79
   8  -2   6    7.54    0.91
   8  -2   6    8.64    1.13
  -8   2  -6    6.56    1.26
  -8   2  -6    6.85    0.86
   8   2   6    6.78    1.14
   9  -2   6    2.20    0.72
   9  -2   6    1.68    0.68
   9  -2   6    0.00    0.73
  -9   2  -6    1.05    0.79
  -9   2  -6    0.47    0.40
   9   2   6    1.07    0.62
  10  -2   6   -0.63    0.49
 -10   2  -6    0.13    0.38
 -10   2  -6    0.27    0.73
  10   2   6    0.14    0.52
 -12  -3   6    1.10    1.03
  12  -3  -6   -0.14    0.78
 -12  -3   6   -0.05    0.30
  12  -3  -6   -0.57    0.41
  12   3  -6   -0.05    0.63
 -12   3   6    0.55    0.44
  12   3  -6    0.93    1.10
  11  -3  -6    6.11    1.41
  11  -3  -6    3.82    0.88
 -11  -3   6    3.32    0.62
 -11  -3   6    3.91    1.28
  11   3  -6    3.58    1.42
 -11   3   6    4.81    0.74
  11   3  -6    6.23    1.20
  10  -3  -6    0.43    0.74
 -10  -3   6    0.20    0.72
 -10  -3   6   -0.16    0.29
  10  -3  -6    0.81    0.55
  10   3  -6   -1.01    0.53
 -10   3   6   -0.50    0.29
  10   3  -6    0.24    0.45
  10   3  -6    0.39    1.02
   9  -3  -6   -0.82    0.56
  -9  -3   6   -0.25    0.59
  -9  -3   6    0.70    0.35
   9  -3  -6    0.39    0.45
   9   3  -6   -0.04    0.42
  -9   3   6    0.32    0.34
   9   3  -6   -0.21    0.81
   8  -3  -6    0.11    0.40
   8  -3  -6   -0.78    0.50
  -8  -3   6    0.16    0.28
  -8  -3   6    0.44    0.67
   8   3  -6    0.39    0.48
  -8   3   6   -0.14    0.31
   8   3  -6   -1.23    0.59
  -7  -3   6    3.67    0.54
   7  -3  -6    1.99    0.82
   7  -3  -6    3.04    0.63
  -7  -3   6    2.61    0.88
  -7   3   6    2.41    0.47
   7   3  -6    2.67    0.74
   7   3  -6    1.63    0.99
   6  -3  -6    4.19    0.67
  -6  -3   6    5.60    1.08
  -6  -3   6    5.72    0.58
  -6  -3   6    6.88    0.71
   6  -3  -6    3.56    0.95
   6   3  -6    4.87    0.87
   6   3  -6    6.52    1.49
  -6   3   6    5.12    0.62
  -5  -3   6    5.96    1.08
  -5  -3   6    4.67    0.60
   5  -3  -6    4.89    0.67
   5  -3  -6    6.57    1.08
   5   3  -6    4.79    0.93
  -5   3   6    4.96    0.58
   5   3  -6    5.82    1.40
   4  -3  -6    0.73    0.30
  -4  -3   6    0.99    0.34
  -4  -3   6    1.20    0.33
   4  -3  -6    1.10    0.60
  -4  -3   6    1.07    0.57
   4   3  -6    1.65    0.68
   4   3  -6    0.66    0.84
   3  -3  -6    8.55    1.15
   3  -3  -6    8.44    0.70
  -3  -3   6    7.04    1.10
  -3  -3   6    7.93    0.68
  -3  -3   6    9.67    0.75
   3   3  -6    7.22    1.03
  -3   3   6    7.36    0.51
   3   3  -6    7.38    1.56
  -2  -3   6    0.00    0.38
   2  -3  -6    0.18    0.45
  -2  -3   6   -0.03    0.21
  -2  -3   6    0.27    0.28
   2   3  -6    0.08    0.45
   2   3  -6    1.41    0.98
  -2   3   6    0.11    0.18
  -1  -3   6   32.34    2.33
  -1  -3   6   34.95    1.93
   1  -3  -6   31.97    2.20
  -1  -3   6   31.50    1.93
   1   3  -6   31.56    2.21
  -1   3   6   31.86    1.88
   0  -3  -6    1.44    0.51
   0  -3   6    1.25    0.68
   0  -3   6    2.52    0.66
   0  -3  -6    2.09    0.34
   0  -3   6    2.15    0.43
   0  -3   6    1.93    0.38
   0   3   6    1.80    0.40
   0   3  -6    2.76    0.67
  -1  -3  -6   24.35    1.50
   1  -3   6   27.83    2.20
   1  -3   6   26.51    2.01
   1  -3   6   25.86    1.59
   1  -3   6   25.78    1.67
   1   3   6   24.83    1.69
  -1   3  -6   25.12    1.90
  -2  -3  -6    2.44    0.39
  -2  -3  -6    2.83    0.52
   2  -3   6    2.58    0.51
   2  -3   6    2.17    0.45
   2  -3   6    2.39    0.85
  -2   3  -6    2.70    0.66
   2   3   6    2.83    0.79
   2   3   6    2.51    0.57
  -2   3  -6    2.52    0.51
   3  -3   6   27.47    1.78
   3  -3   6   25.47    2.17
   3  -3   6   26.58    1.61
  -3  -3  -6   24.32    1.48
   3   3   6   21.29    1.88
   3   3   6   23.81    1.74
  -3   3  -6   27.01    1.68
  -3   3  -6   22.33    1.87
   4  -3   6    0.66    0.36
  -4  -3  -6    0.84    0.30
   4  -3   6    1.76    0.81
   4  -3   6   -0.17    0.36
  -4   3  -6    0.91    0.41
   4   3   6    1.04    0.64
   4   3   6    1.75    0.56
  -4   3  -6    1.66    0.66
   5  -3   6    1.54    0.44
   5  -3   6    2.04    0.87
   5  -3   6    0.29    0.48
  -5  -3  -6    0.81    0.33
   5   3   6    1.73    0.58
  -5   3  -6    1.17    0.46
  -5   3  -6    0.85    0.64
   6  -3   6    0.53    0.48
   6  -3   6    0.49    0.40
   6  -3   6   -0.87    0.62
  -6   3  -6   -0.29    0.33
  -6   3  -6    1.35    0.67
   6   3   6    0.70    0.47
   7  -3   6    3.43    1.12
   7  -3   6    4.31    0.86
   7  -3   6    2.73    0.58
  -7   3  -6    4.94    0.77
  -7   3  -6    1.79    0.78
   7   3   6    1.76    0.69
   8  -3   6    3.59    1.29
   8  -3   6    2.61    0.57
   8  -3   6    3.13    0.83
   8   3   6    1.28    0.66
  -8   3  -6    1.91    0.84
  -8   3  -6    1.24    0.54
   9  -3   6    0.77    0.69
   9  -3   6    1.75    1.17
   9   3   6    0.84    0.67
  -9   3  -6    1.51    0.84
  -9   3  -6    1.59    0.57
 -10  -4   6    2.50    0.59
 -10  -4   6    3.75    1.29
  10  -4  -6    3.40    0.83
  10  -4  -6    2.40    1.12
  10   4  -6    2.26    0.96
  10   4  -6    2.62    1.53
 -10   4   6    2.34    0.62
  10   4  -6    5.77    1.05
   9  -4  -6    0.34    0.50
  -9  -4   6    1.06    0.44
  -9  -4   6    0.69    0.76
   9  -4  -6   -0.10    0.74
   9   4  -6    1.49    0.67
   9   4  -6    2.36    1.35
  -9   4   6    0.40    0.44
   8  -4  -6   -0.47    0.35
   8  -4  -6    0.85    0.85
  -8  -4   6   -0.47    0.26
  -8  -4   6    0.34    0.67
   8   4  -6   -1.29    0.85
  -8   4   6    0.96    0.47
   8   4  -6    0.03    0.51
   7  -4  -6   -0.16    0.65
  -7  -4   6    0.48    0.67
  -7  -4   6    0.32    0.33
   7  -4  -6   -0.02    0.39
  -7   4   6    0.71    0.39
   7   4  -6   -1.22    0.87
   7   4  -6    1.84    0.73
  -6  -4   6    0.77    0.39
   6  -4  -6    1.11    0.47
   6  -4  -6    1.52    0.81
  -6  -4   6    0.29    0.62
   6   4  -6    1.64    0.73
   6   4  -6   -0.30    0.90
  -5  -4   6    4.15    0.62
   5  -4  -6    2.53    0.57
   5  -4  -6    5.20    1.14
  -5  -4   6    4.44    1.07
   5   4  -6    3.98    1.04
   5   4  -6    4.75    1.45
   4  -4  -6    2.20    0.47
  -4  -4   6    2.30    0.42
  -4  -4   6    2.38    0.51
  -4  -4   6    2.51    0.86
   4  -4  -6    2.99    0.93
   4   4  -6    0.13    0.88
   4   4  -6    1.62    0.85
  -3  -4   6    1.21    0.66
  -3  -4   6    1.27    0.42
   3  -4  -6    1.54    0.37
  -3  -4   6    1.03    0.36
   3  -4  -6    2.02    0.87
   3   4  -6    0.96    0.75
   3   4  -6    0.35    0.98
  -2  -4   6   23.53    1.55
  -2  -4   6   22.57    2.07
   2  -4  -6   23.80    2.05
  -2  -4   6   23.87    1.60
   2   4  -6   25.38    2.04
   2   4  -6   39.35    3.34
  -1  -4   6    0.10    0.53
  -1  -4   6    0.17    0.30
   1  -4  -6   -0.74    0.24
  -1  -4   6    0.17    0.30
   1  -4  -6   -0.15    0.56
   1   4  -6    0.24    0.67
  -1   4   6    0.41    0.29
   0  -4   6    7.64    1.38
   0  -4  -6    6.63    1.17
   0  -4   6    7.89    1.31
   0  -4  -6    6.32    0.73
   0  -4   6    6.78    0.80
   0  -4   6    5.81    0.79
   0   4  -6    7.45    1.20
   0   4   6    7.42    0.85
   1  -4   6    0.61    0.40
  -1  -4  -6    1.85    0.60
   1  -4   6    0.94    0.84
  -1  -4  -6    1.65    0.40
   1  -4   6    1.65    0.48
   1  -4   6    1.37    0.72
  -1   4  -6    0.90    0.68
   1   4   6    0.97    0.45
  -2  -4  -6    3.73    0.55
   2  -4   6    4.04    1.04
   2  -4   6    5.03    1.24
   2  -4   6    3.11    0.66
   2  -4   6    4.28    0.65
   2   4   6    2.84    0.68
   2   4   6    4.55    1.17
  -2   4  -6    5.03    1.00
   3  -4   6    0.48    0.39
  -3  -4  -6    0.02    0.27
   3  -4   6   -0.05    0.75
   3  -4   6   -0.38    0.36
   3   4   6   -0.13    0.43
  -3   4  -6    0.62    0.62
   4  -4   6    3.68    0.79
   4  -4   6    3.22    1.20
   4  -4   6    3.27    0.67
   4   4   6    3.82    0.83
  -4   4  -6    3.26    0.68
  -4   4  -6    3.57    0.94
   5  -4   6    0.47    0.48
   5  -4   6   -0.15    0.83
   5  -4   6   -0.10    0.45
  -5   4  -6    0.42    0.63
   5   4   6    0.33    0.52
  -5   4  -6    0.84    0.49
   6  -4   6   -0.12    1.00
   6  -4   6    0.10    0.42
   6  -4   6   -0.08    0.51
  -6   4  -6    0.04    0.40
  -6   4  -6    0.17    0.62
   6   4   6   -0.23    0.51
   7  -4   6   -0.42    0.43
   7  -4   6   -0.13    0.56
   7  -4   6    0.01    0.93
  -7   4  -6   -0.13    0.46
   7   4   6    1.04    0.61
  -7   4  -6    0.16    0.61
   8  -4   6    6.24    1.73
   8  -4   6    4.93    0.84
   8  -4   6    5.84    1.11
   8   4   6    4.06    0.98
  -8   4  -6    4.43    1.15
  -8   4  -6    5.49    0.98
   8  -5  -6    1.72    0.63
  -8  -5   6   -0.47    0.36
   8  -5  -6   -0.55    0.84
  -8  -5   6   -0.16    0.69
   8   5  -6    1.02    0.70
   8   5  -6    0.06    1.14
  -7  -5   6    1.01    0.85
   7  -5  -6    0.66    0.51
   7  -5  -6    2.40    1.21
  -7  -5   6   -0.39    0.36
   7   5  -6    3.34    1.59
   7   5  -6    1.90    0.86
   6  -5  -6   15.83    2.24
  -6  -5   6   14.39    1.21
  -6  -5   6   12.77    2.00
   6   5  -6   15.73    2.79
   6   5  -6   14.54    1.86
   5  -5  -6    1.08    0.93
  -5  -5   6    0.35    0.70
  -5  -5   6    1.50    0.50
   5   5  -6    1.52    1.45
   5   5  -6    1.44    0.81
   4  -5  -6   11.13    1.20
  -4  -5   6    8.83    1.59
   4  -5  -6   11.39    1.80
  -4  -5   6    9.08    1.05
   4   5  -6   11.29    1.69
   4   5  -6   10.67    2.42
  -3  -5   6   13.88    1.90
  -3  -5   6   12.30    1.26
   3  -5  -6   13.34    1.91
   3  -5  -6   12.88    1.27
   3   5  -6   11.68    2.50
   3   5  -6   14.34    1.87
  -2  -5   6   -0.06    0.33
   2  -5  -6    0.35    0.84
  -2  -5   6    0.65    0.73
   2  -5  -6    0.07    0.36
   2   5  -6    1.60    1.23
   2   5  -6   -1.81    0.69
   1  -5  -6    7.53    1.41
  -1  -5   6    8.31    1.54
   1  -5  -6    9.55    1.02
  -1  -5   6    7.36    0.94
   1   5  -6    7.87    1.40
   0  -5   6    7.46    0.90
   0  -5   6    6.69    1.41
   0  -5  -6    7.81    1.42
   0  -5  -6    6.71    1.15
   0  -5   6    7.55    0.95
   0  -5  -6    8.29    0.95
   0   5  -6    7.21    1.36
   1  -5   6    4.63    1.40
   1  -5   6    5.44    0.84
  -1  -5  -6    5.48    0.77
   1  -5   6    5.54    1.30
   1  -5   6    5.91    0.84
   1   5   6    5.37    1.00
  -1   5  -6    4.95    1.18
   2  -5   6    0.87    1.08
   2  -5   6    2.00    0.59
   2  -5   6    0.89    0.76
   2  -5   6    1.93    0.56
  -2  -5  -6    1.05    0.43
   2   5   6    1.27    0.54
  -2   5  -6    1.00    0.81
   3  -5   6   -1.46    0.71
   3  -5   6   -0.33    0.40
   3  -5   6    0.63    0.85
   3  -5   6    0.72    0.50
   3   5   6   -1.05    0.38
  -3   5  -6   -0.72    0.62
   4  -5   6    4.02    1.59
   4  -5   6    3.21    1.15
   4  -5   6    3.65    0.73
   4  -5   6    4.18    0.86
   4   5   6    5.70    1.04
  -4   5  -6    4.24    1.07
   5  -5   6    3.31    1.56
   5  -5   6    1.64    0.57
   5  -5   6    1.11    0.65
   5   5   6    1.59    0.72
  -5   5  -6    1.66    0.88
   6  -5   6   -0.08    0.48
  -4  -6   6   -0.43    0.68
  -4  -6   6    0.20    0.46
   4  -6  -6    0.39    1.10
   4  -6  -6   -0.19    0.46
   4   6  -6    0.18    1.32
   4   6  -6    1.42    0.93
   3  -6  -6    2.80    1.26
  -3  -6   6    2.74    0.68
   3  -6  -6    3.60    0.76
  -3  -6   6    3.82    1.22
   3   6  -6    2.20    1.73
   3   6  -6    1.24    1.11
  -2  -6   6   -0.30    0.56
   2  -6  -6   -0.91    0.89
  -2  -6   6    0.52    0.47
   2  -6  -6    0.25    0.45
   2   6  -6   -0.85    1.39
   2   6  -6   -0.31    0.91
   1  -6  -6    3.34    1.02
  -1  -6   6    3.21    0.70
   1  -6  -6    3.79    0.77
  -1  -6   6    3.78    1.24
   1   6  -6    3.58    1.30
   1   6  -6    4.99    2.32
   0  -6   6    2.54    1.08
   0  -6   6    1.32    0.63
   0  -6  -6    1.55    0.55
   0   6  -6    2.12    1.29
   1  -6   6    0.45    0.82
   1  -6   6   -0.10    0.48
  -1   6  -6   -1.33    0.89
  13   0  -7    1.83    1.10
 -13   0   7   -0.29    0.94
  13   0  -7    2.01    0.67
 -13   0   7    1.59    0.44
 -12   0   7   -1.17    0.70
 -12   0   7   -0.22    0.28
  12   0  -7    0.01    0.42
  12   0  -7    0.89    0.87
  11   0  -7    2.19    0.89
 -11   0   7    0.83    0.96
 -11   0   7    0.33    0.30
  10   0  -7   -0.36    0.27
 -10   0   7    0.23    0.84
  10   0  -7   -0.16    0.57
 -10   0   7   -0.22    0.21
  -9   0   7    7.81    0.73
  -9   0   7    6.58    1.50
   9   0  -7    8.00    0.90
   9   0  -7    5.48    1.12
   8   0  -7   -0.26    0.46
  -8   0   7    1.03    0.76
  -8   0   7   -0.03    0.22
  -7   0   7    4.27    1.11
   7   0  -7    6.34    0.55
  -7   0   7    5.89    0.56
   7   0  -7    5.61    0.96
  -6   0   7   -0.04    0.15
   6   0  -7   -0.15    0.17
  -6   0   7    0.15    0.55
   6   0  -7    0.25    0.44
  -5   0   7   26.29    1.57
  -5   0   7   28.24    2.20
   5   0  -7   28.27    1.97
   5   0  -7   28.97    1.63
  -5   0   7   28.61    1.55
   4   0  -7   -0.07    0.36
  -4   0   7   -0.23    0.12
  -4   0   7    0.13    0.43
   4   0  -7    0.44    0.24
  -4   0   7    0.03    0.16
  -3   0   7    0.71    0.47
   3   0  -7    0.36    0.36
  -3   0   7    0.63    0.22
  -3   0   7    0.60    0.13
   3   0  -7    0.14    0.23
  -2   0   7   -0.02    0.22
  -2   0   7   -0.08    0.35
  -2   0   7    0.29    0.20
   2   0  -7    0.02    0.29
   2   0  -7   -0.15    0.21
   1   0  -7    1.34    0.39
   1   0  -7    3.01    0.45
  -1   0   7    2.18    0.35
  -1   0   7    1.93    0.43
  -1   0   7    1.83    0.34
   0   0   7    0.58    0.21
   0   0  -7    0.32    0.36
   0   0   7    0.55    0.23
   0   0   7    0.37    0.25
   0   0  -7    0.24    0.20
   0   0   7    0.65    0.29
   0   0  -7    0.23    0.08
   0   0  -7    0.44    0.08
   0   0  -7    0.26    0.23
  -1   0  -7   31.36    2.08
  -1   0  -7   35.02    1.67
   1   0   7   33.12    1.86
   1   0   7   34.19    1.97
   1   0   7   32.33    1.80
  -1   0  -7   31.71    1.73
  -1   0  -7   29.45    1.80
   1   0   7   31.97    1.87
   2   0   7   -0.20    0.27
   2   0   7    0.13    0.14
   2   0   7   -0.02    0.19
   2   0   7   -0.11    0.22
  -2   0  -7    0.03    0.10
  -2   0  -7   -0.55    0.22
   2   0   7   -0.44    0.18
  -2   0  -7   -0.16    0.14
   3   0   7  145.86    7.53
   3   0   7  144.75    7.59
   3   0   7  148.22    7.74
   3   0   7  138.94    7.41
  -3   0  -7  153.44    7.40
   3   0   7  148.75    7.54
   4   0   7   -0.42    0.20
   4   0   7   -0.10    0.28
   4   0   7   -0.16    0.27
  -4   0  -7    0.07    0.14
   4   0   7   -0.21    0.28
   5   0   7    8.12    0.87
   5   0   7    7.90    0.88
   5   0   7    7.93    0.75
   5   0   7    6.42    0.91
  -5   0  -7    6.67    0.57
   6   0   7    0.18    0.36
  -6   0  -7   -0.05    0.20
   6   0   7   -0.03    0.40
   6   0   7    0.51    0.45
   6   0   7    0.41    0.30
   7   0   7    7.26    0.75
   7   0   7    7.38    1.05
   7   0   7    7.42    0.90
  -7   0  -7    6.93    0.70
   8   0   7    0.65    0.54
   8   0   7   -0.49    0.35
  -8   0  -7    0.12    0.27
   9   0   7    1.84    0.75
   9   0   7    2.88    0.69
  10   0   7   -0.01    0.57
  10   0   7   -0.42    0.51
 -10   0  -7    0.51    0.70
 -13  -1   7    1.62    1.22
 -13  -1   7    1.45    0.44
  13  -1  -7    2.57    1.12
  13  -1  -7    1.35    0.62
  13   1  -7    1.94    0.66
  13   1  -7    0.78    1.10
 -13   1   7    0.20    1.11
 -13   1   7    1.81    0.50
 -12  -1   7    5.25    0.70
  12  -1  -7    8.40    1.48
 -12  -1   7    6.13    1.69
  12  -1  -7    4.89    0.94
  12   1  -7    6.27    0.94
  12   1  -7    5.69    1.38
  12   1  -7    7.30    1.03
 -12   1   7    6.23    0.76
 -12   1   7    3.09    1.49
  11  -1  -7    0.83    0.43
  11  -1  -7    1.56    0.81
 -11  -1   7    0.19    0.98
 -11  -1   7    1.55    0.40
  11   1  -7    1.08    0.57
 -11   1   7   -0.12    0.89
 -11   1   7    1.43    0.42
  11   1  -7    1.67    0.93
 -10  -1   7    1.44    0.96
  10  -1  -7    0.91    0.65
 -10  -1   7    0.32    0.31
  10  -1  -7    2.67    0.60
  10   1  -7    0.40    0.48
 -10   1   7    0.91    0.34
 -10   1   7    0.90    1.04
  10   1  -7    1.75    0.82
   9  -1  -7    1.40    0.78
  -9  -1   7    2.17    0.99
  -9  -1   7    3.03    0.44
   9   1  -7    2.07    0.90
  -9   1   7    1.47    1.10
  -9   1   7    2.98    0.45
  -8  -1   7   67.96    3.78
  -8  -1   7   64.29    4.60
   8  -1  -7   74.80    3.79
   8  -1  -7   72.55    4.39
  -8   1   7   69.97    3.79
   8   1  -7   72.49    3.94
   8   1  -7   76.32    4.58
   7  -1  -7   25.70    1.51
  -7  -1   7   25.39    1.51
  -7  -1   7   28.10    2.24
  -7  -1   7   26.51    1.44
   7  -1  -7   25.95    2.00
   7   1  -7   25.08    2.13
   7   1  -7   26.86    1.68
  -7   1   7   26.61    1.51
  -7   1   7   18.50    2.58
  -6  -1   7    6.44    0.50
  -6  -1   7    6.25    1.11
   6  -1  -7    7.89    1.04
  -6  -1   7    5.99    0.57
  -6   1   7    5.25    1.20
  -6   1   7    7.90    0.55
   6   1  -7    7.46    0.80
   6   1  -7    8.97    1.26
  -6   1   7    6.56    0.38
   5  -1  -7    3.59    0.68
  -5  -1   7    3.50    0.40
  -5  -1   7    3.73    0.80
  -5  -1   7    3.98    0.41
   5   1  -7    4.86    0.96
  -5   1   7    3.49    0.99
  -5   1   7    4.34    0.41
   5   1  -7    4.84    0.65
  -4  -1   7   23.20    1.27
  -4  -1   7   21.91    1.31
   4  -1  -7   21.84    1.17
  -4  -1   7   24.38    1.73
   4  -1  -7   24.09    1.59
   4   1  -7   23.84    1.49
  -4   1   7   15.96    1.83
   4   1  -7   24.63    1.86
  -4   1   7   22.67    1.24
   3  -1  -7   33.00    1.75
  -3  -1   7   32.49    1.88
  -3  -1   7   36.31    2.19
   3  -1  -7   32.62    2.00
  -3  -1   7   33.00    1.75
  -3  -1   7   31.60    1.82
   3   1  -7   32.34    2.29
  -3   1   7   26.58    2.30
  -3   1   7   32.14    1.68
   3   1  -7   33.87    1.99
  -3   1   7   32.54    1.85
  -2  -1   7    1.93    0.49
  -2  -1   7    1.62    0.22
  -2  -1   7    1.50    0.31
   2  -1  -7    1.46    0.36
   2  -1  -7    1.48    0.32
  -2  -1   7    1.67    0.35
  -2   1   7    1.37    0.30
  -2   1   7    1.55    0.64
   2   1  -7    1.67    0.60
   2   1  -7    1.56    0.43
  -2   1   7    1.55    0.30
  -1  -1   7    0.27    0.13
  -1  -1   7    0.18    0.21
  -1  -1   7    0.31    0.30
   1  -1  -7    0.00    0.18
  -1  -1   7    0.38    0.26
   1  -1  -7    0.37    0.08
  -1   1   7    0.37    0.23
  -1   1   7    0.67    0.24
   1   1  -7    0.42    0.36
  -1   1   7    0.46    0.44
   1   1  -7    0.04    0.43
  -1   1   7    0.70    0.24
   0  -1   7   -0.26    0.26
   0  -1   7    0.03    0.25
   0  -1   7   -0.14    0.08
   0  -1   7   -0.21    0.19
   0  -1   7    0.06    0.10
   0   1   7   -0.15    0.29
   0   1   7   -0.29    0.20
   0   1   7    0.22    0.21
   0   1   7    0.04    0.19
   0   1  -7   -0.02    0.16
   0   1  -7    0.13    0.34
   1  -1   7   58.41    3.22
   1  -1   7   54.15    3.15
   1  -1   7   56.30    3.27
   1  -1   7   57.69    2.90
   1  -1   7   58.99    3.14
   1  -1   7   58.39    2.91
   1   1   7   56.49    3.05
  -1   1  -7   54.06    3.32
  -1   1  -7   58.17    3.00
   1   1   7   58.09    3.08
   1   1   7   57.66    3.19
   2  -1   7   -0.46    0.31
   2  -1   7    0.00    0.26
   2  -1   7   -0.55    0.18
  -2  -1  -7    0.01    0.07
   2  -1   7    0.11    0.26
   2  -1   7    0.29    0.28
   2  -1   7   -0.03    0.08
   2  -1   7    0.15    0.10
   2   1   7    0.33    0.21
  -2   1  -7   -0.24    0.36
   2   1   7   -0.02    0.17
  -2   1  -7    0.15    0.16
   2   1   7    0.16    0.27
   3  -1   7    0.20    0.12
   3  -1   7    0.40    0.32
   3  -1   7    0.58    0.32
  -3  -1  -7    0.21    0.12
   3  -1   7    0.97    0.43
   3  -1   7    0.12    0.26
   3  -1   7    0.14    0.10
   3   1   7    0.40    0.22
   3   1   7    0.06    0.08
  -3   1  -7    0.27    0.19
   3   1   7    0.27    0.25
   3   1   7    0.26    0.26
  -3   1  -7   -0.14    0.39
   4  -1   7    8.16    0.54
  -4  -1  -7    8.27    0.56
   4  -1   7    7.81    0.80
   4  -1   7    7.81    1.00
   4  -1   7    8.66    0.94
   4  -1   7    8.21    0.98
   4   1   7    8.12    0.63
   4   1   7    7.91    0.76
  -4   1  -7    9.66    1.22
   4   1   7    8.94    0.69
  -4   1  -7    8.93    0.67
   4   1   7    7.20    0.92
   5  -1   7    1.06    0.37
  -5  -1  -7    1.46    0.26
   5  -1   7    2.14    0.55
   5  -1   7    2.30    0.29
   5  -1   7    1.78    0.58
   5  -1   7    1.34    0.47
   5   1   7    1.63    0.37
  -5   1  -7    1.45    0.67
   5   1   7    0.90    0.48
  -5   1  -7    2.64    0.40
   5   1   7    1.25    0.32
   6  -1   7    0.80    0.44
   6  -1   7    1.80    0.43
  -6  -1  -7    1.90    0.32
   6  -1   7    0.37    0.55
   6  -1   7    1.47    0.56
  -6   1  -7    0.62    0.63
   6   1   7    1.31    0.39
   6   1   7    1.33    0.33
   6   1   7    1.75    0.58
  -6   1  -7    0.98    0.31
   7  -1   7   -0.42    0.52
   7  -1   7    0.66    0.48
   7  -1   7    0.65    0.38
   7  -1   7    0.19    0.44
   7   1   7   -0.08    0.48
   7   1   7    0.02    0.30
  -7   1  -7    0.04    0.29
  -7   1  -7   -0.30    0.52
   8  -1   7   15.95    1.61
   8  -1   7   14.20    1.49
  -8   1  -7   14.05    1.86
   8   1   7   14.70    1.63
   8   1   7   14.97    1.20
  -8   1  -7   13.79    1.12
   9  -1   7    0.85    0.65
   9  -1   7   -0.22    0.47
   9   1   7    0.92    0.64
  -9   1  -7    0.32    0.36
  -9   1  -7    0.05    0.68
  10  -1   7    1.29    0.66
  10  -1   7    1.45    0.70
 -10   1  -7    1.19    0.65
  10   1   7    0.53    0.63
 -10   1  -7    2.06    0.97
 -13  -2   7    0.76    1.02
  13  -2  -7    0.19    0.84
  13  -2  -7    0.10    0.55
 -13  -2   7   -0.02    0.31
 -13   2   7    1.17    1.52
  13   2  -7   -0.25    0.53
  13   2  -7    1.44    1.07
 -13   2   7   -0.52    0.36
 -12  -2   7    5.97    0.75
  12  -2  -7    4.86    1.28
 -12  -2   7    4.22    1.45
  12  -2  -7    4.96    0.99
  12   2  -7    5.61    1.09
  12   2  -7    6.77    0.94
  12   2  -7    5.35    1.49
 -12   2   7    2.94    1.64
 -12   2   7    3.48    0.66
  11  -2  -7    1.62    0.85
 -11  -2   7    1.66    0.42
  11  -2  -7    1.03    0.52
 -11  -2   7    0.49    0.88
 -11   2   7    0.86    0.42
 -11   2   7    1.76    1.34
  11   2  -7    0.48    0.93
  11   2  -7    0.99    0.62
 -10  -2   7    7.97    0.83
  10  -2  -7    8.27    1.08
 -10  -2   7    8.85    1.69
  10  -2  -7    9.59    1.51
 -10   2   7    5.74    1.76
  10   2  -7    9.95    1.36
  10   2  -7   11.70    1.85
 -10   2   7    8.63    0.88
  -9  -2   7   28.45    2.53
   9  -2  -7   27.88    2.32
  -9  -2   7   25.77    1.64
   9  -2  -7   29.91    1.95
   9   2  -7   27.92    2.55
   9   2  -7   30.16    1.97
  -9   2   7   16.03    2.87
  -9   2   7   25.55    1.66
   8  -2  -7    0.53    0.60
  -8  -2   7    0.62    0.29
  -8  -2   7    0.95    0.67
  -8   2   7    0.04    0.27
   8   2  -7    0.81    0.46
   8   2  -7    1.34    0.84
  -8   2   7   -1.00    0.70
  -7  -2   7    4.67    1.02
  -7  -2   7    3.98    0.51
  -7  -2   7    4.03    0.42
   7  -2  -7    3.36    0.87
  -7   2   7    2.88    1.22
   7   2  -7    4.91    1.20
   7   2  -7    4.70    0.78
  -7   2   7    4.64    0.55
  -6  -2   7    1.73    0.36
   6  -2  -7    1.65    0.63
  -6  -2   7    1.47    0.28
  -6  -2   7    2.43    0.70
   6   2  -7    1.24    0.78
  -6   2   7    0.39    0.89
  -6   2   7    1.93    0.36
   6   2  -7    2.73    0.65
  -5  -2   7    6.99    1.09
  -5  -2   7    5.18    0.54
   5  -2  -7    6.70    1.01
  -5  -2   7    5.49    0.55
  -5   2   7    5.48    0.52
   5   2  -7    4.59    0.83
  -5   2   7    3.76    1.23
   5   2  -7    6.05    1.24
  -4  -2   7   37.03    2.09
  -4  -2   7   38.99    2.55
   4  -2  -7   37.27    2.41
  -4  -2   7   37.08    2.07
  -4  -2   7   36.07    2.13
   4   2  -7   36.65    2.34
  -4   2   7   37.39    2.00
   4   2  -7   35.53    2.83
   3  -2  -7    6.99    0.52
  -3  -2   7    6.65    0.66
  -3  -2   7    6.53    0.97
  -3  -2   7    7.30    0.70
   3  -2  -7    7.50    0.91
  -3  -2   7    7.69    0.58
   3   2  -7    6.47    1.27
  -3   2   7    3.69    1.06
  -3   2   7    6.86    0.49
   3   2  -7    7.52    0.93
  -2  -2   7   14.17    1.26
   2  -2  -7   14.02    1.11
  -2  -2   7   13.80    0.99
  -2  -2   7   14.12    0.91
  -2  -2   7   14.09    0.99
  -2   2   7   14.29    0.91
   2   2  -7   15.35    1.81
   2   2  -7   13.57    1.19
   1  -2  -7   12.96    1.01
  -1  -2   7   12.98    0.87
  -1  -2   7   15.01    1.24
  -1  -2   7   12.45    0.97
   1   2  -7   12.51    1.17
   1   2  -7   23.58    1.90
  -1   2   7   13.74    0.93
   0  -2   7    3.29    0.40
   0  -2  -7    3.21    0.48
   0  -2   7    3.55    0.51
   0  -2   7    3.30    0.80
   0  -2   7    2.84    0.64
   0   2   7    4.11    0.53
   0   2  -7    4.85    0.73
   1  -2   7    2.30    0.59
  -1  -2  -7    3.00    0.30
   1  -2   7    2.55    0.48
   1  -2   7    2.86    0.37
   1  -2   7    1.96    0.72
   1   2   7    2.93    0.50
  -1   2  -7    2.85    0.44
  -1   2  -7    2.22    0.61
   1   2   7    3.61    0.52
  -2  -2  -7    9.70    0.61
  -2  -2  -7    9.55    0.62
   2  -2   7    9.53    1.01
   2  -2   7    9.88    0.70
   2  -2   7    9.69    0.96
   2  -2   7    7.11    1.11
   2   2   7   10.05    0.91
  -2   2  -7   10.32    0.80
   2   2   7    9.61    0.75
   2   2   7   10.44    0.66
  -2   2  -7    9.62    1.19
   3  -2   7   10.77    1.34
  -3  -2  -7    9.84    0.64
   3  -2   7    8.53    0.95
   3  -2   7    9.56    0.72
   3   2   7    9.08    0.66
  -3   2  -7    9.27    1.19
  -3   2  -7    9.45    0.78
   3   2   7    9.81    1.07
   3   2   7    9.92    0.75
   4  -2   7   -0.34    0.23
   4  -2   7    0.15    0.53
   4  -2   7    0.37    0.25
  -4  -2  -7    0.14    0.17
   4   2   7    0.44    0.41
   4   2   7   -0.05    0.19
  -4   2  -7    1.05    0.57
  -4   2  -7    0.12    0.26
   5  -2   7    5.54    1.06
   5  -2   7    4.91    0.80
   5  -2   7    4.70    0.57
  -5   2  -7    5.50    1.04
  -5   2  -7    6.21    0.70
   5   2   7    5.17    0.88
   6  -2   7    2.91    0.93
   6  -2   7    3.32    0.74
   6  -2   7    3.66    0.73
   6  -2   7    4.23    0.68
   6  -2   7    4.65    0.57
   6   2   7    4.17    0.87
  -6   2  -7    5.84    1.12
  -6   2  -7    5.44    0.72
   7  -2   7    5.03    1.13
   7  -2   7    5.83    0.86
   7  -2   7    5.22    0.96
   7  -2   7    5.86    0.91
   7   2   7    5.81    0.99
  -7   2  -7    7.36    0.84
  -7   2  -7    7.42    1.28
   8  -2   7    0.75    0.54
   8  -2   7    0.45    0.79
   8  -2   7   -0.48    0.39
   8  -2   7    0.30    0.51
  -8   2  -7    0.51    0.71
  -8   2  -7   -0.37    0.33
   8   2   7    0.43    0.51
   9  -2   7    0.31    0.55
   9  -2   7    0.60    0.55
  -9   2  -7    0.17    0.40
   9   2   7    0.29    0.58
  -9   2  -7   -0.18    0.63
 -10   2  -7    0.65    0.49
 -12  -3   7   -0.39    0.26
  12  -3  -7    0.84    0.60
 -12  -3   7    0.57    0.90
  12  -3  -7    1.75    1.09
  12   3  -7   -0.46    0.98
 -12   3   7   -0.04    0.38
  12   3  -7    0.78    0.75
 -11  -3   7    1.41    0.99
  11  -3  -7    2.50    1.07
 -11  -3   7    2.39    0.51
  11  -3  -7    2.21    0.72
 -11   3   7    2.84    0.60
  11   3  -7    1.91    0.95
  11   3  -7    3.46    1.46
  10  -3  -7    3.48    1.13
 -10  -3   7    2.73    1.13
  10  -3  -7    1.34    0.61
 -10  -3   7    1.39    0.42
 -10   3   7    2.03    0.51
  10   3  -7    2.70    1.08
  10   3  -7    3.77    0.84
  10   3  -7    0.89    0.73
   9  -3  -7   -0.29    0.36
   9  -3  -7   -0.46    0.55
  -9  -3   7    0.20    0.68
  -9  -3   7    0.23    0.30
   9   3  -7   -0.03    0.83
   9   3  -7   -0.18    0.47
  -9   3   7    0.05    0.32
   8  -3  -7   10.78    1.60
   8  -3  -7   10.92    1.19
  -8  -3   7    9.11    1.55
  -8  -3   7   10.84    1.00
   8   3  -7   12.17    2.04
  -8   3   7   11.22    1.01
   8   3  -7    9.99    1.29
  -7  -3   7    2.25    0.85
  -7  -3   7    1.24    0.38
   7  -3  -7    2.03    0.84
   7  -3  -7    2.06    0.54
   7   3  -7    2.77    1.16
   7   3  -7    1.74    0.66
  -7   3   7    1.08    0.40
  -6  -3   7    3.68    0.97
  -6  -3   7    2.66    0.48
   6  -3  -7    3.54    0.91
  -6  -3   7    3.31    0.46
   6  -3  -7    2.27    0.53
   6   3  -7    2.92    0.80
   6   3  -7    3.50    1.21
  -6   3   7    2.55    0.45
  -5  -3   7    0.14    0.28
  -5  -3   7    0.04    0.49
   5  -3  -7    0.29    0.32
  -5  -3   7    0.42    0.28
   5  -3  -7   -1.09    0.34
   5   3  -7   -0.10    0.55
   5   3  -7    0.02    0.80
  -5   3   7    0.45    0.27
  -4  -3   7    4.32    0.57
  -4  -3   7    3.97    0.93
  -4  -3   7    4.01    0.55
   4  -3  -7    6.04    1.04
   4   3  -7    5.86    1.01
   4   3  -7    3.24    1.21
  -3  -3   7   10.22    0.87
  -3  -3   7   11.03    1.42
  -3  -3   7   10.49    0.85
   3  -3  -7   10.83    1.29
  -3   3   7   10.77    0.69
   3   3  -7   10.77    1.84
   3   3  -7   10.70    1.30
  -2  -3   7   14.52    1.43
  -2  -3   7   15.64    1.14
  -2  -3   7   16.74    1.11
   2  -3  -7   16.65    1.43
   2   3  -7   20.57    2.49
  -2   3   7   16.45    1.04
   2   3  -7   16.70    1.46
   1  -3  -7   29.62    2.01
  -1  -3   7   29.18    1.73
  -1  -3   7   27.67    1.78
  -1  -3   7   28.08    2.17
   1   3  -7   26.89    2.06
  -1   3   7   29.69    1.73
   0  -3  -7   14.70    0.97
   0  -3   7   14.40    1.03
   0  -3  -7   14.13    1.27
   0  -3   7   14.35    1.13
   0  -3   7   15.77    1.47
   0  -3   7   14.19    1.77
   0   3  -7   14.54    1.39
   0   3   7   15.59    1.12
  -1  -3  -7    1.60    0.32
   1  -3   7    1.84    0.69
   1  -3   7    2.15    0.50
   1  -3   7    1.23    0.72
   1  -3   7    0.96    0.34
  -1   3  -7    0.75    0.53
   1   3   7    1.60    0.48
   2  -3   7   43.97    2.62
   2  -3   7   45.24    2.96
   2  -3   7   40.18    3.07
   2  -3   7   44.21    2.45
  -2  -3  -7   41.15    2.34
  -2   3  -7   44.39    2.53
   2   3   7   40.59    2.75
  -2   3  -7   39.49    2.81
   2   3   7   43.72    2.63
  -3  -3  -7    3.43    0.50
   3  -3   7    3.73    0.69
   3  -3   7    3.27    0.54
   3  -3   7    3.24    0.98
  -3   3  -7    3.77    0.63
  -3   3  -7    4.43    0.95
   3   3   7    3.36    0.71
   4  -3   7   32.46    1.94
   4  -3   7   29.18    2.55
   4  -3   7   30.54    2.16
  -4   3  -7   33.58    2.41
   4   3   7   32.53    2.21
  -4   3  -7   30.68    2.03
   5  -3   7    3.40    0.75
   5  -3   7    3.65    1.19
   5  -3   7    3.04    0.56
  -5   3  -7    4.54    0.96
  -5   3  -7    2.84    0.60
   5   3   7    2.71    0.74
   6  -3   7    0.96    0.46
   6  -3   7    1.51    0.91
   6  -3   7    1.39    0.62
  -6   3  -7    2.52    0.84
   6   3   7    1.76    0.66
  -6   3  -7    2.10    0.56
   7  -3   7    7.28    1.56
   7  -3   7    6.96    1.11
   7  -3   7    8.44    0.93
  -7   3  -7    7.36    0.99
   7   3   7    8.14    1.25
  -7   3  -7    8.49    1.39
   8  -3   7    4.18    1.42
   8  -3   7    4.02    0.95
  -8   3  -7    2.43    0.97
  -8   3  -7    3.77    0.79
   8   3   7    4.08    0.96
   9  -3   7    0.22    0.64
  -9   3  -7   -0.20    0.82
  -9   3  -7    0.62    0.52
   9   3   7    0.47    0.66
  10  -4  -7    2.37    0.74
  10  -4  -7    2.54    1.18
 -10  -4   7    2.19    1.09
 -10  -4   7    2.15    0.52
 -10   4   7    2.08    0.58
  10   4  -7    2.12    1.39
  10   4  -7    3.87    1.12
  10   4  -7    3.80    0.91
  -9  -4   7   -0.05    0.36
  -9  -4   7   -0.05    0.75
   9  -4  -7   -0.25    0.75
   9  -4  -7   -0.31    0.42
   9   4  -7    0.49    0.54
   9   4  -7   -1.60    0.85
  -9   4   7    1.30    0.48
  -8  -4   7    0.39    0.36
   8  -4  -7    1.19    0.85
   8  -4  -7    0.03    0.39
  -8  -4   7    1.92    0.92
  -8   4   7    0.79    0.44
   8   4  -7    2.16    0.78
   8   4  -7    0.18    1.15
   7  -4  -7   11.47    1.75
   7  -4  -7   11.00    1.20
  -7  -4   7   10.30    1.65
  -7  -4   7   10.30    1.08
   7   4  -7    9.56    2.12
  -7   4   7   10.45    1.03
   7   4  -7   13.38    1.61
  -6  -4   7    1.19    0.44
  -6  -4   7    1.59    0.78
   6  -4  -7    1.75    0.89
   6  -4  -7    1.15    0.47
   6   4  -7    1.77    0.81
   6   4  -7    2.00    1.24
   5  -4  -7    2.67    0.94
  -5  -4   7    2.35    0.82
   5  -4  -7    1.21    0.41
  -5  -4   7    0.77    0.36
   5   4  -7    0.82    1.08
   5   4  -7    1.77    0.90
  -4  -4   7    0.95    0.37
   4  -4  -7    0.60    0.32
  -4  -4   7    0.00    0.28
  -4  -4   7   -0.32    0.50
   4  -4  -7    0.32    0.63
   4   4  -7   -1.25    0.47
   4   4  -7    0.53    0.73
  -3  -4   7   19.06    1.34
  -3  -4   7   18.64    1.84
  -3  -4   7   19.11    1.29
   3  -4  -7   16.54    1.91
   3   4  -7   19.27    1.81
   3   4  -7   14.44    2.49
   2  -4  -7   -0.48    0.51
  -2  -4   7    0.93    0.39
  -2  -4   7    0.77    0.35
  -2  -4   7    0.20    0.52
   2   4  -7    0.64    0.68
   2   4  -7    1.27    0.97
   1  -4  -7    4.34    0.97
  -1  -4   7    4.86    0.66
   1  -4  -7    5.45    0.66
  -1  -4   7    4.56    0.66
  -1  -4   7    3.68    0.98
  -1   4   7    4.69    0.61
   1   4  -7    3.61    0.86
   0  -4   7   12.95    1.11
   0  -4   7   12.71    1.05
   0  -4   7   12.68    1.86
   0  -4   7   13.76    1.78
   0  -4  -7   13.22    1.56
   0  -4  -7   13.23    1.01
   0   4  -7   15.81    1.73
   0   4   7   13.08    1.08
   1  -4   7   10.16    1.00
  -1  -4  -7   11.07    0.91
   1  -4   7    8.90    1.61
   1  -4   7    9.57    1.06
   1  -4   7    9.36    1.48
  -1   4  -7    8.29    1.33
   1   4   7   11.61    1.01
   2  -4   7    2.64    1.04
   2  -4   7    1.08    0.46
   2  -4   7    1.52    0.47
   2  -4   7    1.00    0.72
  -2   4  -7    0.92    0.72
   2   4   7   -0.06    0.40
   3  -4   7    0.85    0.70
   3  -4   7   -0.26    0.40
   3  -4   7    0.75    0.41
   3  -4   7    1.13    1.01
   3   4   7    0.69    0.48
  -3   4  -7    0.88    0.72
   4  -4   7    7.76    0.93
   4  -4   7    7.37    1.58
   4  -4   7   10.10    1.24
  -4   4  -7    8.99    1.40
  -4   4  -7    8.82    1.09
   4   4   7    8.88    1.22
   5  -4   7    0.62    1.08
   5  -4   7    0.78    0.44
   5  -4   7    0.95    0.60
   5   4   7    0.41    0.59
  -5   4  -7    0.59    0.47
  -5   4  -7    0.77    0.71
   6  -4   7    6.64    0.88
   6  -4   7    6.80    1.60
   6  -4   7    6.26    1.10
  -6   4  -7    6.11    0.98
   6   4   7    6.69    1.19
  -6   4  -7    5.38    1.14
   7  -4   7    0.22    0.61
   7  -4   7    0.14    0.46
   7  -4   7    0.87    1.12
  -7   4  -7   -0.08    0.69
   7   4   7    1.16    0.66
  -7   4  -7   -0.65    0.51
  -8  -5   7    4.68    0.74
   8  -5  -7    4.28    0.87
  -8  -5   7    6.10    1.44
   8  -5  -7    1.87    1.20
   8   5  -7    4.34    1.61
   8   5  -7    5.60    1.16
   7  -5  -7    0.69    0.87
  -7  -5   7    0.71    0.79
  -7  -5   7    0.22    0.39
   7   5  -7    0.22    0.63
   7   5  -7    0.15    1.11
   6  -5  -7    7.49    1.65
  -6  -5   7    5.67    1.35
  -6  -5   7    6.68    0.91
   6   5  -7    6.39    1.35
   6   5  -7    6.16    2.03
  -5  -5   7    0.22    0.37
   5  -5  -7   -0.01    0.75
  -5  -5   7   -0.46    0.55
   5   5  -7    0.52    1.14
   5   5  -7   -0.65    0.76
   4  -5  -7   34.49    2.24
  -4  -5   7   31.10    2.83
   4  -5  -7   35.91    2.93
  -4  -5   7   32.71    2.17
   4   5  -7   36.84    2.83
   4   5  -7   30.83    4.07
  -3  -5   7    0.36    0.40
   3  -5  -7   -0.17    0.78
   3  -5  -7   -0.38    0.30
  -3  -5   7    0.33    0.55
   3   5  -7    1.18    1.24
   3   5  -7    1.56    0.93
   2  -5  -7   -0.19    0.66
   2  -5  -7   -0.33    0.35
  -2  -5   7    0.30    0.40
  -2  -5   7   -0.33    0.56
   2   5  -7    0.22    1.14
   2   5  -7    0.46    0.68
   1  -5  -7   -0.22    0.29
   1  -5  -7    0.30    0.65
  -1  -5   7    0.03    0.61
  -1  -5   7   -0.03    0.34
  -1  -5   7   -0.50    0.28
   1   5  -7   -0.29    0.71
   0  -5   7    0.50    0.72
   0  -5   7    0.42    0.41
   0  -5  -7   -0.51    0.31
   0  -5   7    0.38    0.45
   0   5  -7   -0.07    0.75
   1  -5   7    4.56    0.76
   1  -5   7    3.18    1.06
   1  -5   7    5.14    0.77
   1  -5   7    6.50    1.63
  -1   5  -7    4.83    1.22
   2  -5   7    0.68    0.48
   2  -5   7    0.45    0.82
   2  -5   7    0.41    1.10
   2  -5   7    0.26    0.39
   2   5   7   -0.25    0.37
  -2   5  -7   -0.61    0.67
   3  -5   7    2.09    0.70
   3  -5   7    2.74    0.65
   3  -5   7    1.14    0.85
   3  -5   7    2.01    1.17
  -3   5  -7    2.41    0.95
   3   5   7    0.01    0.53
   4  -5   7    0.38    1.11
   4  -5   7    0.27    0.53
   4  -5   7   -0.16    0.78
   4  -5   7   -0.54    0.39
   4   5   7   -0.34    0.44
  -4   5  -7    0.10    0.68
   5  -5   7    3.20    0.73
   5  -5   7    2.49    1.30
   5  -5   7    3.28    0.89
   5  -5   7    2.88    1.17
   5   5   7    3.83    0.93
  -5   5  -7    2.58    1.12
  -3  -6   7    0.84    0.87
   3  -6  -7    0.88    1.17
  -3  -6   7    0.68    0.53
   3  -6  -7    1.50    0.59
   3   6  -7    0.81    1.43
   3   6  -7   -1.29    0.85
   2  -6  -7    4.54    0.83
  -2  -6   7    2.41    0.66
  -2  -6   7    1.25    0.95
   2   6  -7    1.82    1.25
   2   6  -7    4.86    1.92
  -1  -6   7    3.02    1.17
  -1  -6   7    3.22    0.73
   1   6  -7    3.06    1.97
   1   6  -7    1.07    1.11
   0  -6   7    4.65    0.84
   0  -6   7    5.22    1.40
   0   6  -7    3.16    1.34
 -13   0   8    0.00    0.32
  13   0  -8   -1.53    0.73
  13   0  -8   -0.35    0.55
 -13   0   8    0.10    1.09
 -12   0   8    1.90    0.45
 -12   0   8    1.50    1.13
  12   0  -8    0.61    0.77
  12   0  -8    1.53    0.62
 -11   0   8    0.21    0.28
 -11   0   8    0.32    0.91
  11   0  -8    0.20    0.67
  10   0  -8    5.27    0.74
 -10   0   8    4.48    0.58
 -10   0   8    3.24    1.26
  10   0  -8    2.52    0.94
   9   0  -8    0.00    0.33
  -9   0   8   -0.30    0.20
  -9   0   8   -0.34    0.69
   9   0  -8    0.22    0.55
  -8   0   8    4.33    0.48
   8   0  -8    4.24    0.95
  -8   0   8    2.98    1.06
   7   0  -8   -0.05    0.19
  -7   0   8    0.08    0.20
   7   0  -8    0.07    0.47
  -7   0   8   -0.44    0.59
  -6   0   8    0.17    0.15
  -6   0   8   -0.13    0.13
  -6   0   8   -0.10    0.51
   6   0  -8    0.18    0.48
   6   0  -8    0.23    0.23
  -5   0   8   -0.17    0.46
   5   0  -8   -0.14    0.40
  -5   0   8    0.13    0.15
   5   0  -8    0.16    0.26
  -5   0   8   -0.11    0.13
  -4   0   8   35.82    1.95
   4   0  -8   38.11    2.09
   4   0  -8   36.54    2.36
  -4   0   8   39.95    2.61
  -4   0   8   36.33    2.05
  -3   0   8   -0.12    0.08
   3   0  -8    0.10    0.33
  -3   0   8    0.05    0.14
  -3   0   8   -0.11    0.37
   3   0  -8    0.07    0.22
   2   0  -8  263.67   13.39
  -2   0   8  264.69   13.26
   2   0  -8  263.52   13.34
  -2   0   8  254.20   13.28
  -2   0   8  264.71   13.54
  -1   0   8    0.35    0.30
   1   0  -8    0.01    0.24
  -1   0   8    0.00    0.22
  -1   0   8    0.07    0.21
   1   0  -8   -0.04    0.26
   0   0   8    2.86    0.47
   0   0   8    2.06    0.37
   0   0  -8    2.00    0.35
   0   0  -8    2.37    0.34
   0   0  -8    2.15    0.53
   0   0  -8    2.86    0.20
   0   0   8    2.43    0.43
   0   0   8    2.20    0.38
  -1   0  -8    0.09    0.18
  -1   0  -8   -0.24    0.11
   1   0   8    0.15    0.23
   1   0   8    0.02    0.18
  -1   0  -8   -0.14    0.07
  -1   0  -8    0.57    0.39
   1   0   8   -0.50    0.24
   1   0   8   -0.11    0.19
   2   0   8    5.56    0.45
  -2   0  -8    5.68    0.94
   2   0   8    5.55    0.61
  -2   0  -8    5.23    0.44
  -2   0  -8    5.89    0.39
   2   0   8    4.45    0.61
   2   0   8    6.14    0.74
   3   0   8    0.16    0.23
   3   0   8   -0.17    0.21
   3   0   8   -0.05    0.26
  -3   0  -8   -0.42    0.43
   3   0   8   -0.11    0.12
  -3   0  -8    0.03    0.13
   3   0   8    0.14    0.24
   3   0   8   -0.20    0.22
  -4   0  -8    0.91    0.22
   4   0   8    0.66    0.31
   4   0   8    0.85    0.35
   4   0   8    0.21    0.30
   4   0   8    1.48    0.45
  -4   0  -8    0.64    0.64
   5   0   8   -0.06    0.21
   5   0   8   -0.36    0.29
   5   0   8    0.83    0.46
  -5   0  -8    0.09    0.19
  -5   0  -8    0.22    0.46
   6   0   8   19.12    1.47
  -6   0  -8   14.82    2.00
   6   0   8   20.43    1.61
  -6   0  -8   19.80    1.27
   6   0   8   18.53    1.28
   7   0   8    0.55    0.43
  -7   0  -8    1.08    0.80
   7   0   8    0.02    0.53
   7   0   8   -0.66    0.40
  -8   0  -8   17.27    2.26
   8   0   8   17.57    1.64
   8   0   8   18.28    1.56
   9   0   8    0.19    0.54
  -9   0  -8    0.51    0.75
   9   0   8    0.48    0.60
  10   0   8    8.98    1.39
  10   0   8    6.92    1.06
 -10   0  -8    8.09    1.62
 -13  -1   8    4.91    1.72
  13  -1  -8    7.10    1.53
 -13  -1   8    8.05    0.87
  13  -1  -8    9.70    1.27
  13   1  -8    6.72    1.65
  13   1  -8    8.13    1.10
 -13   1   8    4.02    1.68
 -13   1   8    7.51    0.87
 -12  -1   8    1.18    1.07
  12  -1  -8    0.52    0.70
  12  -1  -8    0.12    0.45
 -12  -1   8   -0.28    0.28
  12   1  -8    0.69    0.88
 -12   1   8    0.23    2.21
  12   1  -8   -1.03    0.39
 -12   1   8   -0.03    0.33
  11  -1  -8    6.16    0.93
 -11  -1   8    5.88    1.51
  11  -1  -8    5.93    1.29
 -11  -1   8    6.38    0.73
  11   1  -8    7.11    1.43
 -11   1   8    3.08    1.45
  11   1  -8    4.94    0.92
 -11   1   8    7.57    0.78
  10  -1  -8    4.70    1.06
 -10  -1   8    2.71    1.07
 -10  -1   8    3.97    0.54
  10   1  -8    4.02    1.08
 -10   1   8    3.27    1.43
  10   1  -8    2.80    0.76
 -10   1   8    2.69    0.48
  -9  -1   8    0.18    0.23
   9  -1  -8   -0.49    0.54
  -9  -1   8   -0.05    0.65
  -9   1   8   -0.10    0.78
   9   1  -8    0.08    0.61
  -9   1   8    0.33    0.28
   9   1  -8    0.56    0.34
  -8  -1   8    5.74    0.58
  -8  -1   8    3.40    0.99
  -8  -1   8    5.23    0.44
   8  -1  -8    4.98    1.01
   8   1  -8    5.60    1.17
  -8   1   8    3.42    1.26
  -8   1   8    6.16    0.60
   8   1  -8    5.75    0.74
   7  -1  -8    0.01    0.46
  -7  -1   8    0.16    0.16
  -7  -1   8    0.12    0.54
  -7  -1   8   -0.11    0.17
  -7   1   8   -0.49    0.43
   7   1  -8    0.66    0.37
  -7   1   8    0.14    0.21
   7   1  -8   -0.33    0.50
  -6  -1   8    2.24    0.70
   6  -1  -8    2.00    0.61
  -6  -1   8    1.35    0.26
  -6  -1   8    1.39    0.27
   6   1  -8    1.61    0.70
  -6   1   8    1.46    0.27
   6   1  -8    2.53    0.52
  -6   1   8    0.72    0.73
  -5  -1   8   -0.12    0.41
  -5  -1   8    0.43    0.19
  -5  -1   8    0.09    0.17
   5  -1  -8   -0.26    0.37
   5  -1  -8    0.06    0.06
   5   1  -8   -0.46    0.28
  -5   1   8    0.19    0.14
   5   1  -8    0.12    0.52
  -5   1   8   -1.08    0.40
   4  -1  -8    1.24    0.20
   4  -1  -8    1.05    0.45
  -4  -1   8    1.44    0.55
  -4  -1   8    1.37    0.28
  -4  -1   8    1.04    0.21
   4   1  -8    0.15    0.51
   4   1  -8    1.00    0.38
  -4   1   8    1.43    0.19
  -4   1   8    1.93    0.72
   3  -1  -8    2.40    0.34
  -3  -1   8    1.98    0.37
  -3  -1   8    2.34    0.61
   3  -1  -8    3.01    0.52
  -3  -1   8    2.27    0.36
  -3  -1   8    1.77    0.24
   3   1  -8    2.07    0.49
  -3   1   8    2.07    0.35
  -3   1   8    0.93    0.60
   3   1  -8    1.28    0.61
   2  -1  -8    3.13    0.46
  -2  -1   8    2.87    0.27
  -2  -1   8    2.75    0.58
  -2  -1   8    2.42    0.38
  -2  -1   8    2.64    0.45
   2  -1  -8    3.84    0.49
   2   1  -8    1.57    0.67
  -2   1   8    1.89    0.65
   2   1  -8    3.81    0.60
  -2   1   8    2.79    0.40
  -2   1   8    3.51    0.43
   1  -1  -8   36.94    2.16
   1  -1  -8   34.17    1.78
   1  -1  -8   35.73    1.92
  -1  -1   8   37.93    2.23
  -1  -1   8   35.31    1.82
  -1  -1   8   31.62    2.00
  -1  -1   8   36.50    1.82
  -1  -1   8   35.14    2.05
  -1   1   8   35.75    2.04
  -1   1   8   34.08    1.99
   1   1  -8   39.12    2.23
  -1   1   8   33.87    1.98
   1   1  -8   33.01    2.35
  -1   1   8   32.80    2.27
   0  -1   8   14.65    0.77
   0  -1   8   15.71    1.06
   0  -1   8   15.97    1.14
   0  -1   8   14.20    1.01
   0  -1   8   14.15    0.77
   0   1   8   14.60    1.06
   0   1  -8   14.53    0.90
   0   1  -8   16.23    1.41
   0   1  -8   14.82    1.22
   0   1   8   15.28    0.97
   0   1   8   13.48    0.97
   1  -1   8    1.47    0.40
   1  -1   8    0.63    0.27
   1  -1   8    1.24    0.46
   1  -1   8    1.46    0.35
   1   1   8    0.97    0.36
   1   1   8    1.18    0.31
   1   1   8    0.86    0.25
  -1   1  -8    1.58    0.47
  -1   1  -8    1.49    0.26
   2  -1   8    0.23    0.31
   2  -1   8   -0.12    0.29
   2  -1   8    0.25    0.28
   2  -1   8    0.42    0.39
   2  -1   8   -0.09    0.24
  -2  -1  -8    0.10    0.07
  -2   1  -8    0.35    0.18
   2   1   8    0.42    0.24
   2   1   8    0.15    0.24
  -2   1  -8   -0.08    0.41
   2   1   8    0.02    0.31
   3  -1   8   18.08    1.42
   3  -1   8   19.62    1.48
   3  -1   8   20.05    1.36
   3  -1   8   17.73    1.33
   3  -1   8   19.33    1.31
  -3  -1  -8   19.31    1.06
   3   1   8   20.29    1.46
   3   1   8   19.50    1.25
  -3   1  -8   20.61    1.62
   3   1   8   20.46    1.27
  -3   1  -8   19.24    1.18
   4  -1   8    1.86    0.50
   4  -1   8    1.94    0.45
   4  -1   8    1.72    0.54
   4  -1   8    1.09    0.44
   4   1   8    1.08    0.34
  -4   1  -8    1.35    0.64
   4   1   8    1.66    0.51
  -4   1  -8    1.65    0.34
   4   1   8    2.12    0.40
   5  -1   8    2.54    0.61
   5  -1   8    3.57    0.57
   5  -1   8    3.43    0.78
   5  -1   8    2.86    0.68
  -5   1  -8    3.55    0.49
  -5   1  -8    3.60    0.88
   5   1   8    2.67    0.68
   5   1   8    2.90    0.50
   5   1   8    3.53    0.50
   6  -1   8    1.61    0.65
   6  -1   8    2.30    0.48
   6  -1   8    1.92    0.63
   6  -1   8    0.75    0.47
   6   1   8    2.21    0.47
   6   1   8    1.97    0.41
  -6   1  -8    1.65    0.78
   6   1   8    1.38    0.59
  -6   1  -8    1.57    0.39
   7  -1   8   15.83    1.49
   7  -1   8   18.14    1.28
   7  -1   8   14.69    1.53
  -7   1  -8   15.01    1.16
  -7   1  -8   16.50    2.02
   7   1   8   16.77    1.50
   7   1   8   15.79    1.23
   8  -1   8    9.24    1.30
   8  -1   8    6.88    1.07
  -8   1  -8    9.11    1.60
  -8   1  -8    7.50    0.91
   8   1   8    7.39    1.21
   9  -1   8   13.70    1.60
   9  -1   8   13.35    1.50
   9   1   8   12.64    1.64
  -9   1  -8   13.71    1.98
 -10   1  -8    3.68    1.20
  13  -2  -8    9.91    1.35
 -13  -2   8    8.10    0.93
 -13  -2   8    8.78    2.03
  13  -2  -8    7.42    1.61
 -13   2   8    5.17    1.93
  13   2  -8    9.19    1.38
 -13   2   8    7.44    0.93
  13   2  -8    9.30    1.92
 -12  -2   8    0.11    0.31
 -12  -2   8    1.06    1.01
  12  -2  -8   -0.25    0.43
  12  -2  -8    1.20    0.87
 -12   2   8    1.67    1.26
 -12   2   8    0.15    0.39
  12   2  -8   -0.41    0.84
  12   2  -8   -0.21    0.52
 -11  -2   8    1.84    0.46
  11  -2  -8    3.78    0.80
  11  -2  -8    1.81    0.95
 -11  -2   8    1.92    1.07
 -11   2   8    1.61    1.39
  11   2  -8    1.46    1.12
  11   2  -8    3.66    0.91
 -11   2   8    3.50    0.58
  10  -2  -8    2.86    0.99
  10  -2  -8    1.70    0.52
 -10  -2   8    1.59    0.39
 -10  -2   8    2.38    1.03
  10   2  -8    3.54    0.69
 -10   2   8    2.11    0.47
 -10   2   8    1.22    1.15
  10   2  -8    2.47    1.08
  -9  -2   8    0.23    0.68
   9  -2  -8    0.34    0.58
  -9  -2   8   -0.48    0.19
   9   2  -8    0.45    0.41
  -9   2   8    0.53    1.01
  -9   2   8    0.45    0.29
   9   2  -8    0.06    0.69
   8  -2  -8   18.45    1.96
  -8  -2   8   16.90    1.17
  -8  -2   8   18.66    1.94
  -8   2   8   18.49    1.21
   8   2  -8   18.67    1.47
  -8   2   8   13.65    2.42
   8   2  -8   20.03    2.35
  -7  -2   8    0.73    0.62
  -7  -2   8    0.50    0.21
  -7  -2   8    0.05    0.23
   7  -2  -8    0.73    0.60
  -7   2   8    0.08    0.84
   7   2  -8   -0.09    0.43
   7   2  -8    1.32    0.81
  -7   2   8    0.58    0.28
  -6  -2   8    2.57    0.81
  -6  -2   8    3.30    0.44
  -6  -2   8    2.57    0.38
   6  -2  -8    2.51    0.75
   6   2  -8    2.64    0.97
   6   2  -8    2.42    0.68
  -6   2   8    1.81    0.34
  -6   2   8    1.70    1.06
  -5  -2   8    3.63    0.45
   5  -2  -8    2.60    0.68
  -5  -2   8    4.53    0.49
  -5  -2   8    3.45    0.79
   5   2  -8    2.60    0.97
  -5   2   8    3.07    0.38
  -5   2   8    2.03    1.01
   5   2  -8    3.73    0.76
  -4  -2   8    0.58    0.48
  -4  -2   8    0.91    0.31
  -4  -2   8    0.06    0.20
  -4  -2   8    0.16    0.22
   4  -2  -8    0.52    0.39
  -4   2   8   -0.09    0.67
   4   2  -8    0.05    0.43
   4   2  -8   -0.24    0.58
  -3  -2   8    1.90    0.38
   3  -2  -8    2.58    0.56
  -3  -2   8    2.22    0.43
  -3  -2   8    3.14    0.72
  -3  -2   8    2.70    0.37
   3  -2  -8    2.67    0.36
   3   2  -8    2.94    0.63
  -3   2   8    1.46    0.81
   3   2  -8    2.49    0.89
  -2  -2   8    2.34    0.45
  -2  -2   8    2.97    0.37
  -2  -2   8    2.26    0.60
   2  -2  -8    2.92    0.53
  -2  -2   8    3.24    0.49
  -2   2   8    2.90    0.40
   2   2  -8    1.87    0.87
   2   2  -8    2.37    0.62
  -1  -2   8    0.87    0.23
   1  -2  -8    0.83    0.35
  -1  -2   8    1.23    0.35
  -1  -2   8    0.97    0.34
  -1  -2   8    1.11    0.49
   1   2  -8    1.33    0.79
   1   2  -8    0.84    0.47
  -1   2   8    1.23    0.34
   0  -2  -8   17.14    1.15
   0  -2   8   17.99    1.24
   0  -2   8   19.21    1.10
   0  -2   8   16.66    1.26
   0  -2   8   18.98    1.49
   0   2  -8   19.44    1.50
   0   2   8   18.55    1.25
  -1  -2  -8    3.54    0.32
   1  -2   8    3.04    0.78
   1  -2   8    3.71    0.72
   1  -2   8    3.37    0.39
   1  -2   8    4.37    0.62
   1  -2   8    2.68    0.51
  -1   2  -8    4.40    0.52
  -1   2  -8    2.95    0.65
   1   2   8    3.40    0.40
   1   2   8    3.63    0.59
   2  -2   8   15.23    0.98
   2  -2   8   16.63    1.38
  -2  -2  -8   16.00    0.94
   2  -2   8   16.40    1.68
   2  -2   8   14.92    1.20
   2   2   8   15.71    0.98
   2   2   8   15.45    1.23
  -2   2  -8   16.29    1.45
  -2   2  -8   15.18    1.08
   3  -2   8   19.46    1.18
   3  -2   8   22.57    1.82
   3  -2   8   19.26    1.45
   3  -2   8   19.72    1.58
  -3   2  -8   21.16    1.72
  -3   2  -8   18.91    1.30
   3   2   8   19.28    1.19
   3   2   8   18.26    1.47
   4  -2   8    4.28    0.46
   4  -2   8    3.32    0.62
   4  -2   8    2.59    0.80
   4  -2   8    3.60    0.69
  -4   2  -8    3.01    0.84
   4   2   8    3.92    0.76
   4   2   8    3.40    0.45
  -4   2  -8    5.68    0.65
   5  -2   8    1.63    0.33
   5  -2   8    3.02    0.89
   5  -2   8    2.33    0.59
   5  -2   8    1.02    0.47
  -5   2  -8    1.58    0.41
   5   2   8    2.45    0.64
  -5   2  -8    2.41    0.80
   6  -2   8    1.92    0.53
   6  -2   8    2.50    0.91
   6  -2   8    4.08    0.80
  -6   2  -8    2.44    0.81
   6   2   8    2.38    0.68
  -6   2  -8    1.68    0.49
   7  -2   8    0.10    0.76
   7  -2   8   -0.38    0.46
   7  -2   8   -0.19    0.44
   7  -2   8    1.38    0.63
  -7   2  -8   -0.26    0.51
   7   2   8    0.49    0.50
  -7   2  -8   -0.38    0.31
   8  -2   8    1.54    0.72
   8  -2   8    1.52    0.58
   8  -2   8    3.41    0.84
  -8   2  -8    3.95    1.09
   8   2   8    2.46    0.81
  -8   2  -8    3.40    0.62
   9  -2   8    0.35    0.64
   9  -2   8    0.71    0.65
   9   2   8    1.73    0.76
  -9   2  -8    0.57    0.49
  -9   2  -8    0.55    0.79
 -12  -3   8   -0.27    0.32
  12  -3  -8    0.31    0.84
  12  -3  -8    0.09    0.55
 -12  -3   8   -0.34    0.87
 -12   3   8   -0.43    0.37
  12   3  -8   -1.72    0.96
  12   3  -8   -0.67    0.70
  11  -3  -8    2.99    1.08
  11  -3  -8    1.96    0.72
 -11  -3   8    1.65    0.45
 -11  -3   8    0.90    0.95
 -11   3   8    1.49    0.50
  11   3  -8    1.87    0.68
  11   3  -8    1.74    0.84
  11   3  -8    1.99    1.37
  10  -3  -8    1.01    0.81
 -10  -3   8    0.80    0.84
 -10  -3   8    0.11    0.30
  10  -3  -8    0.76    0.56
  10   3  -8    0.62    1.04
  10   3  -8    0.72    0.53
 -10   3   8    0.35    0.33
   9  -3  -8    2.95    0.71
   9  -3  -8    3.49    1.02
  -9  -3   8    1.71    0.89
  -9  -3   8    2.44    0.50
  -9   3   8    3.16    0.56
   9   3  -8    1.10    1.02
   9   3  -8    3.94    0.82
   8  -3  -8    1.01    0.76
  -8  -3   8    0.53    0.70
   8  -3  -8    0.94    0.41
  -8  -3   8    0.65    0.33
   8   3  -8    0.55    0.81
  -8   3   8    0.90    0.38
   8   3  -8    0.78    0.57
   7  -3  -8   -0.17    0.34
  -7  -3   8    0.26    0.27
  -7  -3   8    0.45    0.61
   7  -3  -8    0.11    0.58
  -7   3   8    0.24    0.30
   7   3  -8    0.32    0.56
   7   3  -8   -0.32    0.70
   6  -3  -8   11.19    1.48
  -6  -3   8   11.09    1.59
  -6  -3   8   10.77    0.88
  -6  -3   8   11.31    0.85
   6   3  -8   10.57    1.92
  -6   3   8   10.75    0.85
   6   3  -8   11.56    1.42
  -5  -3   8    5.65    0.65
  -5  -3   8    5.65    1.11
  -5  -3   8    5.42    0.65
   5  -3  -8    5.90    1.08
   5   3  -8    4.50    0.99
   5   3  -8    5.52    1.50
  -4  -3   8    1.51    0.63
  -4  -3   8    1.75    0.41
  -4  -3   8    2.73    0.46
  -4  -3   8    0.86    0.33
   4  -3  -8    1.71    0.71
   4   3  -8    0.44    0.90
   4   3  -8    1.40    0.69
  -3  -3   8   18.57    1.31
  -3  -3   8   19.26    1.26
   3  -3  -8   19.92    1.63
  -3  -3   8   18.84    1.73
   3   3  -8   21.04    2.60
   3   3  -8   19.89    1.68
  -3   3   8   18.18    1.13
  -2  -3   8   18.06    1.20
   2  -3  -8   15.15    1.37
  -2  -3   8   14.48    1.50
  -2  -3   8   16.14    1.10
   2   3  -8   16.58    1.48
   2   3  -8   13.09    2.12
  -2   3   8   15.07    1.04
  -1  -3   8   93.13    4.96
   1  -3  -8   98.76    5.26
  -1  -3   8   92.72    5.51
  -1  -3   8   91.65    5.07
  -1   3   8   94.10    5.00
   1   3  -8   95.09    5.42
   0  -3  -8   14.79    1.22
   0  -3  -8   12.62    0.89
   0  -3   8   12.80    0.97
   0  -3   8   11.74    1.07
   0  -3   8   14.38    1.42
   0   3   8   14.76    1.09
   0   3  -8   13.22    1.51
   1  -3   8   11.60    1.66
   1  -3   8   12.11    1.35
   1  -3   8   12.32    1.20
  -1  -3  -8   12.78    0.96
   1  -3   8   12.45    0.95
   1   3   8   13.17    1.09
  -1   3  -8   15.23    1.60
   1   3   8   13.76    1.51
   2  -3   8   36.05    2.66
   2  -3   8   38.83    2.40
   2  -3   8   36.39    2.16
   2  -3   8   35.70    2.86
  -2   3  -8   34.43    2.60
  -2   3  -8   42.13    2.34
   2   3   8   37.89    2.39
   3  -3   8   13.95    1.78
   3  -3   8   14.93    1.39
   3  -3   8   12.46    0.99
   3  -3   8   14.60    1.50
  -3   3  -8   13.68    1.65
  -3   3  -8   13.45    1.12
   3   3   8   13.29    1.42
   4  -3   8    0.16    0.75
   4  -3   8   -0.21    0.27
   4  -3   8   -0.24    0.27
   4   3   8    0.00    0.42
  -4   3  -8   -0.39    0.35
  -4   3  -8   -0.68    0.52
   5  -3   8    6.40    1.35
   5  -3   8    4.51    0.63
   5  -3   8    5.60    0.88
  -5   3  -8    5.85    1.13
   5   3   8    4.82    0.93
  -5   3  -8    6.36    0.83
   6  -3   8    0.46    0.86
   6  -3   8   -0.17    0.43
   6   3   8   -0.50    0.43
  -6   3  -8   -0.11    0.63
  -6   3  -8    0.21    0.45
   7  -3   8    8.04    1.58
   7  -3   8    4.63    0.98
   7  -3   8    3.60    0.84
   7   3   8    7.71    1.21
  -7   3  -8    4.72    1.19
  -7   3  -8    6.53    0.95
   8  -3   8    3.44    0.93
   8  -3   8    1.53    0.63
   8   3   8    3.48    0.93
  -8   3  -8    2.35    0.67
  -8   3  -8    2.94    0.99
  10  -4  -8    0.61    0.58
 -10  -4   8    0.49    0.77
 -10  -4   8   -0.09    0.32
  10  -4  -8    0.06    0.76
  10   4  -8    0.64    0.65
  10   4  -8   -1.15    0.84
 -10   4   8   -0.16    0.41
   9  -4  -8    0.28    0.80
  -9  -4   8    1.14    0.86
  -9  -4   8    1.01    0.44
   9  -4  -8    1.21    0.60
   9   4  -8    0.38    1.14
  -9   4   8    0.00    0.38
   9   4  -8    1.76    0.72
  -8  -4   8    5.71    1.40
  -8  -4   8    4.86    0.72
   8  -4  -8    3.37    1.18
   8  -4  -8    5.01    0.88
   8   4  -8    4.51    1.03
   8   4  -8    6.03    1.76
  -8   4   8    6.03    0.74
  -7  -4   8    0.47    0.36
   7  -4  -8   -0.10    0.66
  -7  -4   8   -0.37    0.58
   7  -4  -8   -0.66    0.34
   7   4  -8    0.33    0.57
   7   4  -8   -1.64    0.79
  -6  -4   8    0.39    0.38
   6  -4  -8    0.41    0.43
   6  -4  -8    0.20    0.69
  -6  -4   8    0.68    0.67
   6   4  -8    0.27    1.03
   6   4  -8    0.53    0.63
   5  -4  -8   16.25    1.92
  -5  -4   8   18.05    1.28
  -5  -4   8   16.84    1.84
   5  -4  -8   17.67    1.31
   5   4  -8   14.89    1.84
   5   4  -8   17.25    2.71
   4  -4  -8    8.86    0.94
  -4  -4   8   10.57    0.91
  -4  -4   8   10.89    1.03
  -4  -4   8    9.60    1.54
   4  -4  -8   12.94    1.67
   4   4  -8   11.47    2.20
   4   4  -8   12.17    1.63
  -3  -4   8    5.59    0.72
  -3  -4   8    6.18    0.78
  -3  -4   8    5.24    1.11
   3  -4  -8    6.70    1.17
   3   4  -8    6.96    1.75
   3   4  -8    5.62    1.14
  -2  -4   8    9.04    1.45
  -2  -4   8   11.86    1.06
   2  -4  -8   10.86    1.40
  -2  -4   8   11.14    1.07
   2   4  -8   10.55    2.16
   2   4  -8   11.30    1.52
  -1  -4   8   10.70    0.98
   1  -4  -8   10.23    0.92
  -1  -4   8    7.75    0.94
   1  -4  -8    7.90    1.21
  -1  -4   8   10.41    1.54
   1   4  -8   10.08    1.44
   0  -4   8    1.63    0.78
   0  -4   8    3.06    0.56
   0  -4   8    1.92    0.52
   0   4   8    2.37    0.51
   0   4  -8    2.39    0.85
   1  -4   8    1.09    0.89
   1  -4   8    0.87    0.49
   1  -4   8    1.09    0.42
   1  -4   8    0.51    0.59
   1   4   8    0.61    0.44
  -1   4  -8   -0.64    0.51
   2  -4   8   -0.33    0.35
   2  -4   8   -0.84    0.68
   2  -4   8   -0.83    0.28
   2  -4   8   -0.26    0.54
   2   4   8    0.26    0.46
  -2   4  -8    0.34    0.69
   3  -4   8    7.67    1.61
   3  -4   8    6.94    1.35
   3  -4   8    5.64    0.78
   3  -4   8    7.60    1.05
  -3   4  -8    7.44    1.33
   3   4   8    9.01    1.17
   4  -4   8    8.63    1.54
   4  -4   8    9.42    0.98
   4  -4   8   12.33    2.00
   4  -4   8   12.77    1.37
  -4   4  -8   10.34    1.20
  -4   4  -8    8.74    1.50
   4   4   8   10.65    1.31
   5  -4   8    0.59    0.71
   5  -4   8    0.31    0.41
   5  -4   8    0.56    0.56
   5  -4   8    0.87    0.96
  -5   4  -8    0.34    0.70
   5   4   8    0.46    0.64
  -5   4  -8   -0.14    0.46
   6  -4   8   -0.05    0.62
   6  -4   8    0.05    0.52
   6  -4   8    2.46    1.23
   6   4   8    0.12    0.57
  -6   4  -8    0.22    0.69
  -6   4  -8    0.11    0.45
   7  -4   8    0.16    0.59
   7  -4   8    2.66    1.36
  -7   4  -8    1.76    0.70
  -7   4  -8   -0.10    0.82
   7   4   8    0.34    0.66
  -8  -5   8    1.61    0.95
  -8  -5   8    2.16    0.61
   8  -5  -8    3.11    1.38
   8   5  -8    3.72    0.95
   8   5  -8    2.27    1.44
   7  -5  -8    1.22    0.99
  -7  -5   8    0.70    0.84
  -7  -5   8    0.29    0.43
   7   5  -8    1.18    0.79
   7   5  -8    1.59    1.41
   6  -5  -8    7.88    1.64
  -6  -5   8    8.81    1.67
  -6  -5   8    7.10    0.92
   6   5  -8    8.45    1.53
   6   5  -8    5.14    1.88
  -5  -5   8    4.05    1.19
   5  -5  -8    3.82    1.26
  -5  -5   8    4.89    0.76
   5   5  -8    6.78    1.43
   5   5  -8    3.63    1.66
   4  -5  -8   10.67    1.67
  -4  -5   8    8.65    1.60
  -4  -5   8    7.00    0.91
   4   5  -8    3.76    1.70
   4   5  -8    8.54    1.61
   3  -5  -8    2.07    0.96
  -3  -5   8    1.65    0.52
   3  -5  -8    2.83    0.63
  -3  -5   8    2.19    1.00
   3   5  -8    2.58    1.10
   3   5  -8    0.02    1.31
  -2  -5   8    3.67    0.66
   2  -5  -8    2.88    0.59
  -2  -5   8    2.23    1.01
   2   5  -8    4.46    1.87
   2   5  -8    1.52    1.01
  -1  -5   8    6.21    0.84
  -1  -5   8    5.60    0.83
  -1  -5   8    7.87    1.51
   1   5  -8   13.87    2.74
   1   5  -8    5.27    1.28
   0  -5   8   -0.67    0.54
   0  -5   8    0.72    0.46
   0  -5   8    0.67    0.42
   0   5  -8   -1.57    0.61
   1  -5   8    3.72    0.68
   1  -5   8    4.78    0.81
   1  -5   8    3.28    1.20
  -1   5  -8    3.89    1.17
   2  -5   8    0.31    0.42
   2  -5   8    0.39    0.70
   2  -5   8    0.22    0.50
   2  -5   8    0.82    0.95
  -2   5  -8   -0.62    0.66
   3  -5   8    1.99    1.05
   3  -5   8   -0.17    0.42
   3  -5   8    0.41    0.56
   3  -5   8   -0.89    0.82
   3   5   8    0.77    0.56
  -3   5  -8    1.03    0.91
   4  -5   8    1.69    1.03
   4  -5   8    0.13    0.54
   4  -5   8    1.38    1.21
   4  -5   8    0.57    0.47
  -4   5  -8   -0.11    0.84
   4   5   8    0.41    0.56
  13   0  -9    5.92    0.99
 -13   0   9    4.42    0.66
  13   0  -9    4.02    1.30
 -13   0   9    0.57    1.10
 -12   0   9   -0.24    0.27
 -12   0   9    0.38    1.07
  12   0  -9    2.41    0.98
  11   0  -9   -0.26    0.66
 -11   0   9    0.20    0.26
 -11   0   9    2.12    1.20
  10   0  -9   -0.96    0.43
  10   0  -9    0.53    0.47
 -10   0   9   -0.06    0.26
 -10   0   9   -0.46    0.74
  -9   0   9   36.14    2.06
   9   0  -9   41.24    2.82
  -9   0   9   30.94    3.06
   8   0  -9    0.22    0.55
  -8   0   9   -0.10    0.21
  -8   0   9   -0.42    0.46
   8   0  -9    0.07    0.20
   7   0  -9  254.19   12.68
  -7   0   9  237.84   12.01
   7   0  -9  246.80   12.06
  -7   0   9  210.10   12.95
   6   0  -9    0.40    0.46
  -6   0   9    0.06    0.17
  -6   0   9    0.19    0.19
   6   0  -9   -0.03    0.26
  -6   0   9    0.11    0.54
  -5   0   9   22.37    1.33
   5   0  -9   21.67    1.72
  -5   0   9   19.88    1.87
   5   0  -9   22.68    1.38
  -5   0   9   21.81    1.23
  -4   0   9    0.07    0.11
  -4   0   9   -0.02    0.18
  -4   0   9    0.00    0.43
   4   0  -9    0.02    0.24
   4   0  -9   -0.19    0.37
   3   0  -9    2.34    0.55
  -2   0   9   -0.12    0.34
   2   0  -9   -0.25    0.25
   2   0  -9   -0.18    0.25
  -2   0   9    0.17    0.24
  -2   0   9    0.01    0.19
   1   0  -9   14.40    0.99
  -1   0   9   13.52    1.09
  -1   0   9   11.60    0.91
   1   0  -9   13.90    1.08
  -1   0   9   12.79    0.95
   0   0   9    0.08    0.21
   0   0  -9    0.02    0.08
   0   0  -9    0.13    0.34
   0   0   9    0.45    0.28
   0   0   9    0.42    0.30
   0   0   9   -0.11    0.22
   0   0  -9   -0.27    0.17
  -1   0  -9    3.04    0.31
   1   0   9    2.31    0.44
  -1   0  -9    2.55    0.65
  -1   0  -9    2.96    0.36
   1   0   9    3.91    0.61
  -1   0  -9    3.45    0.26
   1   0   9    3.35    0.45
   1   0   9    3.29    0.47
   2   0   9    0.01    0.23
  -2   0  -9   -0.04    0.11
  -2   0  -9   -0.27    0.40
   2   0   9    0.27    0.35
   2   0   9    0.13    0.16
   2   0   9    0.10    0.27
  -2   0  -9    0.18    0.19
   3   0   9   15.40    1.25
  -3   0  -9   14.71    0.87
  -3   0  -9   11.82    1.55
   3   0   9   16.32    1.15
   3   0   9   13.35    1.04
   4   0   9    0.41    0.41
   4   0   9    0.22    0.31
  -4   0  -9   -0.15    0.53
   4   0   9    0.11    0.35
  -5   0  -9    5.59    1.23
   5   0   9    6.02    0.81
   5   0   9    6.58    1.01
   5   0   9    8.52    0.84
   6   0   9   -0.54    0.33
   6   0   9    0.02    0.31
  -6   0  -9    0.25    0.68
   6   0   9   -0.27    0.31
   7   0   9    4.33    0.92
   7   0   9    4.01    0.77
  -7   0  -9    4.29    1.20
   8   0   9   -0.40    0.47
   8   0   9   -0.49    0.39
  -8   0  -9    0.15    0.62
   9   0   9   32.34    2.46
  -9   0  -9   27.67    2.76
   9   0   9   30.28    2.24
 -13  -1   9    2.27    1.32
 -13  -1   9   -0.31    0.27
  13  -1  -9    0.48    0.53
  13  -1  -9    0.42    0.94
 -13   1   9    0.17    1.09
  13   1  -9    0.00    0.95
 -13   1   9    0.32    0.38
 -12  -1   9    0.81    1.04
  12  -1  -9    3.71    1.09
  12  -1  -9    1.65    0.66
 -12  -1   9    1.57    0.43
  12   1  -9    3.70    1.21
 -12   1   9    1.59    0.46
 -12   1   9   -0.24    1.03
  12   1  -9    1.13    0.67
  11  -1  -9    3.53    1.04
 -11  -1   9    3.49    1.29
 -11  -1   9    3.57    0.54
  11   1  -9    3.13    0.76
 -11   1   9    4.08    0.57
  11   1  -9    2.96    1.06
 -11   1   9    1.84    1.32
 -10  -1   9   -0.54    0.67
 -10  -1   9    0.17    0.27
  10  -1  -9   -0.39    0.58
  10   1  -9    0.33    0.57
 -10   1   9    0.42    0.29
 -10   1   9    0.49    0.93
  -9  -1   9   22.94    2.40
  -9  -1   9   23.93    1.47
   9  -1  -9   26.37    2.15
  -9   1   9   15.23    2.58
  -9   1   9   22.85    1.46
   9   1  -9   26.32    1.63
   9   1  -9   25.55    2.26
   8  -1  -9    4.53    0.95
  -8  -1   9    2.64    0.41
  -8  -1   9    2.81    0.37
  -8  -1   9    2.27    0.94
   8   1  -9    2.62    0.90
  -8   1   9    2.67    0.40
   8   1  -9    2.48    0.55
  -8   1   9    2.19    1.05
  -7  -1   9    0.50    0.21
  -7  -1   9    1.33    0.75
  -7  -1   9    0.80    0.24
   7  -1  -9    0.73    0.61
  -7   1   9    0.45    0.25
   7   1  -9    0.77    0.44
   7   1  -9    0.48    0.64
  -7   1   9    0.62    0.79
   6  -1  -9   32.59    2.24
  -6  -1   9   30.71    1.77
  -6  -1   9   36.72    2.57
  -6  -1   9   33.38    1.82
  -6   1   9   21.99    2.51
   6   1  -9   31.07    2.03
  -6   1   9   33.67    1.77
   6   1  -9   32.53    2.46
  -5  -1   9    6.28    1.09
  -5  -1   9    5.55    0.46
   5  -1  -9    5.84    0.90
  -5  -1   9    5.61    0.58
   5  -1  -9    5.37    0.41
  -5   1   9    4.32    1.11
   5   1  -9    5.64    0.75
  -5   1   9    5.98    0.44
   5   1  -9    6.43    1.15
   4  -1  -9    0.95    0.23
  -4  -1   9   -0.18    0.36
  -4  -1   9    0.65    0.18
  -4  -1   9    0.57    0.29
   4  -1  -9    0.54    0.41
  -4  -1   9    0.59    0.24
  -4   1   9    0.40    0.56
  -4   1   9    0.57    0.12
   4   1  -9    0.65    0.37
   4   1  -9    0.27    0.51
  -4   1   9    0.74    0.26
  -3  -1   9    1.58    0.37
  -3  -1   9    1.28    0.31
   3  -1  -9    1.58    0.42
  -3  -1   9    0.99    0.19
  -3  -1   9    1.22    0.52
   3  -1  -9    1.71    0.33
   3   1  -9    1.79    0.47
  -3   1   9    0.98    0.28
   3   1  -9    1.55    0.62
  -3   1   9    0.76    0.62
  -2  -1   9    9.00    0.72
   2  -1  -9    7.26    0.71
  -2  -1   9    8.31    0.61
   2  -1  -9    8.18    0.69
  -2  -1   9    8.30    0.69
  -2  -1   9    8.13    0.90
  -2  -1   9    8.04    0.49
   2   1  -9    9.81    0.88
   2   1  -9    9.06    1.18
  -2   1   9    7.94    0.64
  -2   1   9    5.32    1.01
   1  -1  -9    0.62    0.35
   1  -1  -9    0.10    0.16
   1  -1  -9    0.26    0.07
  -1  -1   9    0.16    0.21
  -1  -1   9    0.21    0.07
  -1  -1   9    0.15    0.31
  -1  -1   9    0.09    0.17
  -1  -1   9    0.13    0.07
   1   1  -9   -0.06    0.34
  -1   1   9    0.08    0.21
  -1   1   9   -0.12    0.34
  -1   1   9    0.30    0.24
  -1   1   9    0.12    0.16
  -1   1   9   -0.20    0.26
   1   1  -9    0.43    0.50
   0  -1   9    1.27    0.31
   0  -1   9    1.10    0.41
   0  -1   9    1.11    0.31
   0   1   9    0.95    0.35
   0   1   9    1.23    0.33
   0   1   9    1.05    0.32
   0   1  -9    1.15    0.25
   0   1  -9    1.61    0.52
   0   1  -9    0.98    0.56
   0   1   9    0.92    0.36
   1  -1   9   17.40    1.24
   1  -1   9   15.93    1.16
   1  -1   9   16.26    1.14
  -1   1  -9   16.99    1.00
   1   1   9   15.91    1.09
   1   1   9   15.44    1.21
  -1   1  -9   17.04    1.42
   1   1   9   14.41    1.07
   2  -1   9    9.69    1.10
   2  -1   9   12.45    0.99
   2  -1   9   11.49    0.93
   2  -1   9   11.24    1.04
   2  -1   9   11.70    0.99
   2   1   9   11.36    1.04
  -2   1  -9   12.16    0.80
  -2   1  -9   10.34    1.32
   2   1   9   12.31    0.89
   2   1   9   11.59    0.87
   3  -1   9    2.98    0.52
   3  -1   9    2.69    0.52
   3  -1   9    3.27    0.64
   3  -1   9    2.38    0.62
   3  -1   9    1.62    0.49
  -3   1  -9    2.68    0.39
   3   1   9    3.20    0.46
  -3   1  -9    0.48    0.58
   3   1   9    2.20    0.42
   3   1   9    2.54    0.61
   4  -1   9    3.92    0.65
   4  -1   9    4.51    0.80
   4  -1   9    4.04    0.69
   4  -1   9    4.00    0.65
   4  -1   9    5.11    0.81
  -4   1  -9    4.64    0.54
   4   1   9    3.96    0.55
   4   1   9    4.91    0.83
  -4   1  -9    3.61    0.93
   4   1   9    4.20    0.58
   5  -1   9    0.67    0.38
   5  -1   9    0.92    0.48
   5  -1   9    0.65    0.42
   5   1   9   -0.44    0.30
  -5   1  -9    1.13    0.69
   5   1   9    0.85    0.33
   5   1   9    0.39    0.48
  -5   1  -9    0.72    0.30
   6  -1   9    1.86    0.50
   6  -1   9    2.03    0.64
   6  -1   9    1.20    0.62
  -6   1  -9    2.60    0.91
   6   1   9    1.60    0.50
   6   1   9    2.21    0.45
   6   1   9    0.69    0.59
  -6   1  -9    1.99    0.49
   7  -1   9   11.80    1.35
   7  -1   9   13.01    1.09
   7  -1   9   10.49    1.41
   7   1   9   12.71    1.53
   7   1   9   13.22    1.34
  -7   1  -9   12.48    1.78
   8  -1   9    9.88    1.37
   8  -1   9    9.71    1.25
   8   1   9    7.90    1.27
  -8   1  -9    8.07    1.50
   9  -1   9    5.59    1.03
   9  -1   9    6.24    1.19
  -9   1  -9    7.13    1.46
   9   1   9    7.80    1.26
 -13  -2   9   10.53    1.06
 -13   2   9   11.34    1.12
 -12  -2   9    2.54    1.25
 -12  -2   9   -0.03    0.27
  12  -2  -9    0.49    0.55
  12  -2  -9    1.41    0.91
 -12   2   9    0.71    0.39
  12   2  -9    1.50    1.14
 -12   2   9    0.37    1.21
  12   2  -9    1.57    0.75
 -11  -2   9    1.81    1.09
  11  -2  -9    2.57    0.99
 -11  -2   9    1.50    0.41
  11  -2  -9    1.27    0.58
 -11   2   9    1.27    0.42
 -11   2   9    1.72    1.33
  11   2  -9    1.25    0.72
  11   2  -9    0.73    0.86
  10  -2  -9    0.94    0.72
  10  -2  -9    0.26    0.48
 -10  -2   9    0.26    0.30
 -10  -2   9    0.94    0.87
  10   2  -9    0.89    0.45
 -10   2   9    0.20    1.02
  10   2  -9   -0.25    0.72
 -10   2   9    1.08    0.38
  -9  -2   9    0.59    0.74
  -9  -2   9    0.93    0.32
   9  -2  -9    1.56    0.73
   9   2  -9    1.68    0.89
  -9   2   9   -0.79    0.75
   9   2  -9    1.20    0.49
  -9   2   9    0.71    0.31
  -8  -2   9    0.46    0.65
   8  -2  -9    0.21    0.60
  -8  -2   9    0.15    0.25
   8   2  -9    0.04    0.42
   8   2  -9   -0.45    0.62
  -8   2   9    0.46    0.29
  -8   2   9    0.73    0.98
  -7  -2   9    5.70    1.16
  -7  -2   9    4.37    0.51
  -7  -2   9    4.86    0.55
   7  -2  -9    5.47    1.02
   7   2  -9    4.34    0.83
  -7   2   9    5.62    0.56
   7   2  -9    5.33    1.29
  -7   2   9    2.88    1.28
   6  -2  -9    1.48    0.61
  -6  -2   9    1.04    0.32
  -6  -2   9    1.06    0.55
  -6  -2   9    0.72    0.27
  -6   2   9    0.31    0.86
  -6   2   9    0.94    0.27
   6   2  -9    0.63    0.59
   6   2  -9    0.45    0.74
  -5  -2   9    1.00    0.30
   5  -2  -9    1.59    0.55
  -5  -2   9    0.91    0.28
  -5  -2   9    0.98    0.53
   5   2  -9    0.73    0.55
  -5   2   9    1.40    0.87
  -5   2   9    1.09    0.23
   5   2  -9    1.12    0.79
  -4  -2   9    0.83    0.27
   4  -2  -9    1.09    0.48
  -4  -2   9    1.13    0.32
  -4  -2   9    1.43    0.39
  -4  -2   9    1.52    0.64
  -4   2   9    2.16    1.02
   4   2  -9    1.49    0.56
   4   2  -9    2.39    0.94
  -3  -2   9    0.91    0.54
  -3  -2   9    1.33    0.27
   3  -2  -9    1.63    0.45
  -3  -2   9    0.90    0.31
   3  -2  -9    1.34    0.31
  -3  -2   9    0.89    0.34
  -3   2   9    0.39    0.64
   3   2  -9    1.45    0.54
   3   2  -9    1.47    0.80
  -2  -2   9   23.67    1.58
  -2  -2   9   24.22    1.41
  -2  -2   9   25.45    1.88
  -2  -2   9   24.48    1.57
   2  -2  -9   25.68    1.62
  -2   2   9   23.99    1.50
   2   2  -9   23.42    2.22
   2   2  -9   26.39    1.85
  -1  -2   9   19.44    1.15
   1  -2  -9   19.12    1.28
  -1  -2   9   20.04    1.35
  -1  -2   9   20.35    1.63
  -1  -2   9   19.17    1.33
  -1   2   9   20.39    1.31
   1   2  -9   19.68    1.58
   1   2  -9   16.94    2.11
   0  -2   9   13.74    1.30
   0  -2   9   13.42    1.12
   0  -2   9   15.04    0.91
   0  -2   9   15.58    1.14
   0   2  -9   15.34    1.37
   0   2   9   15.43    1.15
   1  -2   9   29.56    1.98
   1  -2   9   26.61    1.92
   1  -2   9   32.44    1.72
   1  -2   9   31.36    2.28
   1  -2   9   34.33    2.23
  -1   2  -9   28.50    2.19
   1   2   9   32.56    1.79
  -1   2  -9   30.25    1.84
   1   2   9   32.84    2.01
   2  -2   9   18.75    1.44
   2  -2   9   19.86    1.62
   2  -2   9   19.11    1.41
   2  -2   9   19.03    1.73
   2  -2   9   19.49    1.15
   2   2   9   18.64    1.47
  -2   2  -9   21.33    1.76
  -2   2  -9   22.90    1.35
   2   2   9   19.50    1.22
   3  -2   9    1.58    0.28
   3  -2   9    1.23    0.48
   3  -2   9    1.40    0.49
   3  -2   9    1.72    0.57
   3  -2   9    1.96    0.77
   3   2   9    1.38    0.54
  -3   2  -9    1.32    0.65
  -3   2  -9    1.51    0.41
   3   2   9    1.54    0.33
   4  -2   9    6.87    1.18
   4  -2   9    6.39    1.00
   4  -2   9    6.19    0.84
   4  -2   9    6.57    0.91
  -4   2  -9    5.60    1.12
  -4   2  -9    5.81    0.74
   4   2   9    6.60    0.98
   5  -2   9    3.86    0.81
   5  -2   9    3.35    0.74
   5  -2   9    3.83    0.70
   5  -2   9    1.68    0.81
  -5   2  -9    2.65    0.84
  -5   2  -9    3.83    0.59
   5   2   9    3.03    0.76
   6  -2   9    0.51    0.52
   6  -2   9    0.61    0.44
  -6   2  -9   -0.01    0.33
  -6   2  -9    0.68    0.73
   6   2   9   -0.67    0.37
   7  -2   9    1.19    0.65
   7  -2   9    2.74    0.67
   7   2   9    1.83    0.71
  -7   2  -9    1.06    0.81
  -7   2  -9    2.05    0.53
   8  -2   9    0.21    0.52
   8  -2   9    0.59    0.60
  -8   2  -9   -1.24    0.56
   8   2   9    0.21    0.57
 -12  -3   9    2.15    0.53
  12  -3  -9    2.94    0.84
  12  -3  -9    0.96    0.94
 -12   3   9    2.17    0.53
 -11  -3   9    0.00    0.35
  11  -3  -9    0.92    0.56
 -11  -3   9   -0.35    0.76
  11  -3  -9    1.44    0.93
  11   3  -9   -1.21    0.99
  11   3  -9    1.45    0.55
 -11   3   9    0.61    0.37
  10  -3  -9    0.10    0.71
 -10  -3   9   -0.59    0.70
 -10  -3   9    0.12    0.33
  10  -3  -9    0.44    0.47
  10   3  -9    0.60    0.51
 -10   3   9    0.36    0.33
  10   3  -9   -0.43    0.73
  -9  -3   9    0.14    0.64
   9  -3  -9   -0.05    0.71
  -9  -3   9    0.41    0.33
   9  -3  -9   -0.28    0.36
  -9   3   9   -0.25    0.29
   9   3  -9   -0.25    0.41
   9   3  -9    0.24    0.87
   8  -3  -9    0.80    0.72
  -8  -3   9    1.08    0.36
  -8  -3   9   -0.10    0.65
   8  -3  -9    0.83    0.46
   8   3  -9    0.29    0.98
  -8   3   9    0.41    0.33
   8   3  -9    0.52    0.57
  -7  -3   9    1.56    0.81
  -7  -3   9    1.24    0.39
   7  -3  -9    2.04    0.84
   7   3  -9    1.74    1.03
   7   3  -9    1.91    0.77
  -7   3   9    1.09    0.34
   6  -3  -9    5.93    1.09
  -6  -3   9    6.35    0.70
  -6  -3   9    5.59    1.20
  -6  -3   9    4.92    0.65
   6   3  -9    8.21    1.74
   6   3  -9    5.31    1.09
  -6   3   9    6.21    0.62
  -5  -3   9    1.09    0.39
  -5  -3   9    1.76    0.42
   5  -3  -9    2.36    0.72
  -5  -3   9    1.43    0.37
  -5  -3   9    1.00    0.69
   5   3  -9    1.45    0.66
   5   3  -9    0.88    0.96
   4  -3  -9    6.16    0.96
  -4  -3   9    3.82    0.98
  -4  -3   9    2.99    0.53
  -4  -3   9    5.66    0.70
  -4  -3   9    4.86    0.64
   4   3  -9    5.57    1.47
   4   3  -9    4.86    1.01
   3  -3  -9    1.45    0.61
  -3  -3   9    1.70    0.45
  -3  -3   9    2.50    0.49
  -3  -3   9    2.56    0.82
  -3  -3   9    2.84    0.43
   3   3  -9    2.95    1.23
   3   3  -9    2.48    0.76
  -2  -3   9    0.71    0.32
  -2  -3   9    1.38    0.69
  -2  -3   9    0.77    0.37
  -2  -3   9    0.94    0.40
   2  -3  -9    1.03    0.51
   2   3  -9   -0.24    0.81
   2   3  -9    0.73    0.58
  -2   3   9    0.68    0.30
  -1  -3   9    0.27    0.54
   1  -3  -9    0.42    0.43
  -1  -3   9    0.40    0.36
  -1  -3   9    0.23    0.28
  -1   3   9    0.36    0.30
   1   3  -9    1.40    1.11
   1   3  -9    1.59    0.68
   0  -3   9   27.86    1.68
   0  -3   9   31.68    1.90
   0  -3   9   26.34    2.17
   0   3   9   28.26    1.81
   0   3  -9   25.89    2.13
   1  -3   9   -0.51    0.55
   1  -3   9   -0.39    0.33
   1  -3   9   -0.50    0.22
   1  -3   9   -0.26    0.72
   1   3   9    0.02    0.31
  -1   3  -9    0.66    0.62
   2  -3   9   66.15    4.08
   2  -3   9   62.79    3.70
   2  -3   9   60.44    4.19
   2  -3   9   62.17    3.45
  -2   3  -9   65.35    4.04
   2   3   9   63.62    3.72
   3  -3   9    9.94    1.62
   3  -3   9   12.24    0.97
   3  -3   9   11.58    1.29
   3  -3   9   15.20    1.53
   3   3   9   14.45    1.30
  -3   3  -9   16.23    1.21
  -3   3  -9   12.20    1.58
   4  -3   9    0.12    0.61
   4  -3   9    1.69    0.98
   4  -3   9    1.00    0.53
   4  -3   9    0.33    0.31
  -4   3  -9    1.00    0.46
  -4   3  -9   -0.02    0.62
   4   3   9    0.92    0.55
   5  -3   9    0.10    0.46
   5  -3   9    0.45    0.59
   5  -3   9    0.34    0.87
   5  -3   9   -0.03    0.41
  -5   3  -9    0.17    0.40
  -5   3  -9    1.30    0.79
   5   3   9    0.17    0.49
   6  -3   9   -0.08    0.78
   6  -3   9    1.81    0.66
   6  -3   9    0.97    0.59
   6   3   9    2.21    0.76
  -6   3  -9    0.36    0.72
  -6   3  -9    1.23    0.53
   7  -3   9    0.03    0.52
   7  -3   9   -0.27    0.56
  -7   3  -9    0.95    0.51
  -7   3  -9   -0.18    0.77
   7   3   9    1.28    0.70
  10  -4  -9    0.52    0.54
  10  -4  -9   -0.14    0.76
 -10  -4   9    0.83    0.90
 -10  -4   9   -0.47    0.32
 -10   4   9    0.66    0.44
  10   4  -9    0.24    0.57
  10   4  -9    0.50    1.17
   9  -4  -9    0.29    0.48
  -9  -4   9    0.13    0.35
   9  -4  -9   -0.83    0.71
  -9  -4   9   -0.25    0.68
  -9   4   9    0.76    0.41
   9   4  -9   -2.32    0.80
   9   4  -9    0.72    0.60
  -8  -4   9   -0.14    0.33
   8  -4  -9    0.01    0.72
   8  -4  -9   -0.67    0.42
  -8  -4   9    0.59    0.81
   8   4  -9    0.01    1.01
   8   4  -9    1.52    0.76
  -8   4   9    0.64    0.37
   7  -4  -9    7.08    1.40
  -7  -4   9    6.19    1.38
   7  -4  -9    5.38    0.86
  -7  -4   9    6.38    0.79
   7   4  -9    3.15    1.44
   7   4  -9    8.35    1.38
   6  -4  -9   -0.21    0.28
  -6  -4   9    0.53    0.36
  -6  -4   9    0.48    0.66
  -6  -4   9   -0.09    0.30
   6  -4  -9   -0.49    0.58
   6   4  -9   -1.22    0.80
   6   4  -9    0.06    0.78
   5  -4  -9    0.88    0.38
  -5  -4   9    0.94    0.74
  -5  -4   9    0.29    0.33
   5  -4  -9    0.10    0.58
  -5  -4   9    1.26    0.45
  -5  -4   9    0.07    0.30
   5   4  -9    0.34    1.15
   5   4  -9    0.33    0.78
   4  -4  -9    6.77    1.22
  -4  -4   9    3.75    0.62
  -4  -4   9    4.61    0.65
  -4  -4   9    4.42    1.07
   4   4  -9    4.70    1.52
   4   4  -9    4.52    1.12
  -3  -4   9    0.44    0.63
  -3  -4   9    0.33    0.38
  -3  -4   9    0.07    0.32
   3  -4  -9   -0.10    0.54
   3   4  -9    0.44    0.73
   3   4  -9    0.27    0.99
  -2  -4   9    5.49    0.79
  -2  -4   9    5.38    1.17
   2  -4  -9    4.85    1.03
  -2  -4   9    2.94    0.56
   2   4  -9    5.22    1.63
   2   4  -9    4.79    1.08
  -1  -4   9    0.11    0.58
  -1  -4   9    0.34    0.39
  -1  -4   9    0.64    0.36
   1   4  -9   -0.03    0.64
   1   4  -9   -0.24    1.10
   0  -4   9    0.45    0.69
   0  -4   9    0.59    0.41
   0  -4   9    0.14    0.34
   0   4  -9   -0.39    0.56
   0   4   9    0.58    0.38
   1  -4   9    1.31    0.44
   1  -4   9    1.07    0.74
   1  -4   9    0.90    0.48
   1  -4   9    1.48    1.03
   1   4   9    1.43    0.52
  -1   4  -9    0.25    0.71
   2  -4   9    3.25    0.58
   2  -4   9    1.89    0.82
   2  -4   9    2.04    1.05
   2  -4   9    2.87    0.72
   2   4   9    1.91    0.61
  -2   4  -9    1.60    0.89
   3  -4   9    1.77    0.97
   3  -4   9   -0.16    0.33
   3  -4   9    0.73    0.79
   3  -4   9    0.46    0.39
   3   4   9    1.20    0.59
  -3   4  -9    1.13    0.81
   4  -4   9    0.75    0.77
   4  -4   9    1.91    1.16
   4  -4   9    1.18    0.44
   4  -4   9    0.63    0.59
   4   4   9    0.78    0.62
  -4   4  -9    2.47    0.99
   5  -4   9    8.71    1.60
   5  -4   9    8.78    1.31
   5  -4   9    8.22    1.75
  -5   4  -9    9.25    1.54
  -5   4  -9    8.92    1.20
   5   4   9    8.01    1.30
   6  -4   9    1.34    0.94
   6  -4   9    1.06    1.11
   6  -4   9    0.64    0.66
  -6   4  -9    1.56    0.63
  -6   4  -9   -0.09    0.84
   6   4   9    1.14    0.68
  -7  -5   9    0.49    0.45
  -7  -5   9    0.16    0.72
   7  -5  -9    0.22    0.80
   7   5  -9    0.64    1.36
   7   5  -9    0.66    0.85
  -6  -5   9    3.89    0.72
  -6  -5   9    4.70    1.28
   6  -5  -9    4.53    1.29
   6   5  -9    5.74    1.95
   6   5  -9    3.92    1.23
  -5  -5   9    2.66    1.02
   5  -5  -9    2.33    1.03
  -5  -5   9    2.95    0.61
  -5  -5   9    4.39    0.73
   5   5  -9    2.73    1.12
   5   5  -9    1.11    1.37
  -4  -5   9    4.03    1.18
  -4  -5   9    1.82    0.53
   4  -5  -9    2.07    1.00
   4   5  -9    4.87    1.79
   4   5  -9    2.55    1.16
  -3  -5   9    3.67    1.17
  -3  -5   9    4.94    0.77
   3   5  -9    3.85    1.78
   3   5  -9    3.58    1.20
  -2  -5   9    0.26    0.67
  -2  -5   9    0.03    0.40
  -2  -5   9    0.12    0.38
   2   5  -9   -0.83    0.73
   2   5  -9   -1.35    1.03
  -1  -5   9   -0.04    0.39
  -1  -5   9    0.24    0.76
  -1  -5   9    0.33    0.44
   1   5  -9   -1.48    0.62
   1   5  -9    2.05    1.56
   0  -5   9    5.53    1.43
   0  -5   9    6.00    0.89
   0  -5   9    7.01    0.87
   0   5  -9    6.07    1.39
   1  -5   9    3.91    0.80
   1  -5   9    5.56    0.82
   1  -5   9    5.08    1.33
  -1   5  -9    4.25    1.21
   2  -5   9    4.98    0.81
   2  -5   9    7.10    1.78
   2  -5   9    6.99    1.52
   2  -5   9    6.96    1.09
  -2   5  -9    5.81    1.44
   3  -5   9    1.53    0.55
   3  -5   9    2.23    1.08
   3  -5   9    1.46    1.40
   3  -5   9    1.81    0.73
  -3   5  -9    1.15    0.94
   3   5   9    1.29    0.63
 -13   0  10    0.04    0.32
 -13   0  10    0.59    1.07
  13   0 -10    0.26    0.76
 -12   0  10   21.38    1.39
  12   0 -10   21.88    2.49
 -12   0  10   15.50    2.77
 -11   0  10    0.09    0.27
 -11   0  10   -0.05    0.69
  11   0 -10    0.04    0.63
  10   0 -10    9.25    1.56
 -10   0  10   13.12    0.93
 -10   0  10   10.55    2.02
   9   0 -10    0.01    0.54
  -9   0  10    0.04    0.77
  -9   0  10   -0.10    0.20
   8   0 -10   -0.07    0.54
  -8   0  10   -0.11    0.18
  -8   0  10    0.51    0.70
   7   0 -10    0.09    0.27
  -7   0  10    0.20    0.19
  -7   0  10    0.37    0.22
  -7   0  10   -0.32    0.62
   7   0 -10    0.01    0.46
  -6   0  10   14.18    1.90
  -6   0  10   16.65    0.98
  -6   0  10   15.29    1.07
   6   0 -10   17.00    1.15
   6   0 -10   18.58    1.54
  -5   0  10   -0.48    0.46
  -5   0  10   -0.12    0.11
   5   0 -10    0.23    0.43
  -5   0  10    0.11    0.19
   5   0 -10    0.01    0.25
   4   0 -10   16.01    1.32
  -4   0  10   14.88    0.80
  -4   0  10   12.45    1.39
   4   0 -10   14.83    1.06
  -4   0  10   14.35    0.99
  -3   0  10   -0.26    0.16
  -3   0  10    0.23    0.44
  -3   0  10    0.08    0.16
   3   0 -10    0.13    0.35
   3   0 -10   -0.24    0.24
   2   0 -10   24.25    1.66
  -2   0  10   29.10    1.91
  -2   0  10   25.46    1.60
  -2   0  10   24.60    1.56
   2   0 -10   24.88    1.69
   1   0 -10   -0.51    0.25
  -1   0  10    0.12    0.22
   1   0 -10   -0.06    0.24
  -1   0  10   -0.60    0.28
  -1   0  10    0.17    0.26
   0   0 -10    5.48    0.36
   0   0  10    5.66    0.70
   0   0 -10    4.75    0.51
   0   0  10    3.80    0.63
   0   0  10    6.02    0.65
   0   0 -10    4.94    0.79
   0   0  10    5.14    0.62
  -1   0 -10   -0.18    0.41
  -1   0 -10    0.11    0.11
   1   0  10    0.40    0.28
   1   0  10    0.58    0.31
   1   0  10   -0.07    0.22
   1   0  10   -0.10    0.31
   2   0  10    7.58    0.85
   2   0  10    9.48    0.80
  -2   0 -10   10.02    1.33
   2   0  10    8.86    1.03
  -3   0 -10   -0.22    0.52
   3   0  10   -0.44    0.27
   3   0  10    0.13    0.41
   3   0  10   -0.34    0.24
   4   0  10    9.29    1.16
  -4   0 -10    8.93    1.46
   4   0  10   10.44    0.89
   4   0  10    9.58    1.02
   5   0  10   -0.34    0.31
   5   0  10    0.07    0.48
  -5   0 -10    0.41    0.73
   5   0  10   -0.03    0.31
   6   0  10   -0.37    0.37
  -6   0 -10    0.67    0.70
   6   0  10   -0.37    0.47
   6   0  10   -0.31    0.31
   7   0  10    0.63    0.52
   7   0  10   -0.78    0.43
  -7   0 -10    0.64    0.78
   8   0  10   19.74    2.07
   8   0  10   18.61    1.61
  -8   0 -10   21.11    2.56
  -9   0 -10    0.03    0.78
   9   0  10    0.12    0.56
   9   0  10   -0.91    0.54
  13  -1 -10   -0.07    0.46
 -13  -1  10    1.34    1.15
  13  -1 -10   -1.25    0.56
 -13  -1  10   -0.38    0.28
  13   1 -10   -1.04    0.82
 -13   1  10    1.26    1.28
 -13   1  10    0.63    0.40
 -12  -1  10    0.34    0.99
 -12  -1  10    0.54    0.37
  12  -1 -10    1.10    0.82
 -12   1  10    0.86    0.36
 -12   1  10    0.48    1.20
  12   1 -10    1.44    0.98
  11  -1 -10   -0.04    0.60
 -11  -1  10   -0.34    0.76
 -11  -1  10    0.48    0.32
 -11   1  10    0.62    0.33
 -11   1  10    0.10    0.92
  11   1 -10   -0.24    0.59
  10  -1 -10    0.07    0.65
 -10  -1  10    0.14    0.76
 -10  -1  10    0.04    0.25
  10   1 -10    0.56    0.74
 -10   1  10    1.06    1.10
 -10   1  10    0.02    0.26
  -9  -1  10    1.16    0.33
   9  -1 -10    1.51    0.76
  -9  -1  10    3.22    1.09
  -9   1  10    1.39    0.33
  -9   1  10    2.68    1.21
   9   1 -10    1.64    0.44
   9   1 -10    0.95    0.81
  -8  -1  10    0.50    0.73
  -8  -1  10    0.83    0.25
   8  -1 -10    1.82    0.70
  -8  -1  10    1.18    0.31
  -8   1  10    0.81    0.28
   8   1 -10    1.00    0.43
   8   1 -10   -0.66    0.54
  -8   1  10    1.30    0.85
  -7  -1  10   17.25    1.84
  -7  -1  10   17.16    1.10
   7  -1 -10   17.94    1.83
  -7  -1  10   16.89    1.08
   7   1 -10   16.92    1.36
   7   1 -10   20.89    1.87
  -7   1  10   17.42    1.08
  -6  -1  10    1.23    0.72
  -6  -1  10    2.03    0.31
  -6  -1  10    1.97    0.34
   6  -1 -10    0.94    0.55
   6   1 -10    1.99    0.56
  -6   1  10    0.65    0.77
   6   1 -10    2.52    0.80
  -6   1  10    1.66    0.27
  -5  -1  10    8.22    0.61
  -5  -1  10   10.04    1.39
   5  -1 -10   10.19    1.15
  -5  -1  10   10.27    0.75
   5  -1 -10    8.49    0.62
  -5   1  10    8.85    0.57
  -5   1  10    8.70    1.59
   5   1 -10   10.17    1.04
   5   1 -10   10.05    1.38
   4  -1 -10    3.57    0.65
  -4  -1  10    3.28    0.33
   4  -1 -10    3.79    0.45
  -4  -1  10    3.06    0.47
  -4  -1  10    3.74    0.83
  -4  -1  10    4.10    0.59
   4   1 -10    3.52    0.63
  -4   1  10    3.52    0.49
  -4   1  10    2.44    0.93
   4   1 -10    4.57    0.95
  -3  -1  10   21.07    1.59
  -3  -1  10   17.43    0.99
  -3  -1  10   17.75    1.23
   3  -1 -10   17.73    1.27
   3  -1 -10   19.36    1.21
  -3  -1  10   17.78    1.20
   3   1 -10   20.66    1.42
   3   1 -10   20.85    1.72
  -3   1  10   16.38    1.17
  -3   1  10   13.84    1.64
  -2  -1  10    6.29    0.36
   2  -1 -10    6.67    0.61
  -2  -1  10    7.71    0.99
  -2  -1  10    5.41    0.68
   2  -1 -10    6.94    0.77
  -2  -1  10    5.17    0.63
  -2  -1  10    6.03    0.37
   2   1 -10    4.84    0.93
  -2   1  10    4.73    0.93
   2   1 -10    7.18    0.90
  -2   1  10    5.89    0.64
   1  -1 -10   25.24    1.44
  -1  -1  10   29.36    1.88
  -1  -1  10   23.73    1.66
  -1  -1  10   25.97    1.64
   1  -1 -10   28.26    1.83
  -1   1  10   26.62    1.62
  -1   1  10   25.69    1.62
   1   1 -10   27.06    2.02
   1   1 -10   27.85    1.88
  -1   1  10   26.34    1.69
   0  -1  10    6.38    0.81
   0  -1  10    5.37    0.65
   0  -1 -10    7.18    0.97
   0  -1  10    5.38    0.70
   0   1 -10    6.23    0.97
   0   1  10    3.56    0.62
   0   1 -10    6.93    0.95
   0   1  10    6.16    0.76
   0   1  10    6.05    0.63
   0   1  10    6.12    0.66
   1  -1  10    2.10    0.42
   1  -1  10    2.81    0.56
   1  -1  10    2.71    0.55
   1   1  10    1.92    0.41
  -1   1 -10    2.39    0.69
   1   1  10    2.07    0.52
  -1   1 -10    4.05    0.81
  -1   1 -10    2.30    0.35
   1   1  10    1.93    0.41
   2  -1  10   15.57    1.17
   2  -1  10   16.49    1.22
   2  -1  10   14.76    1.18
  -2   1 -10   16.18    1.52
   2   1  10   14.67    1.11
   2   1  10   15.42    1.30
   2   1  10   15.96    1.13
  -2   1 -10   16.44    1.02
   3  -1  10    2.67    0.61
   3  -1  10    1.24    0.52
   3  -1  10    2.00    0.46
   3  -1  10    1.72    0.52
   3  -1  10    2.22    0.48
   3   1  10    1.01    0.39
   3   1  10    1.49    0.38
  -3   1 -10    1.77    0.35
  -3   1 -10    1.21    0.67
   3   1  10    2.88    0.65
   4  -1  10    9.14    1.14
   4  -1  10    8.85    0.96
   4  -1  10    8.60    1.03
   4   1  10    9.35    1.19
   4   1  10    9.34    0.90
  -4   1 -10    8.31    1.34
   4   1  10   10.49    0.88
   5  -1  10    0.03    0.43
   5  -1  10    0.47    0.43
   5  -1  10    0.48    0.37
   5   1  10   -0.13    0.33
   5   1  10    0.45    0.56
   5   1  10    0.20    0.30
  -5   1 -10   -0.59    0.55
   6  -1  10    0.54    0.38
   6  -1  10    1.21    0.62
   6  -1  10    1.12    0.58
   6   1  10    0.52    0.44
   6   1  10    1.18    0.47
  -6   1 -10    1.93    0.96
   7  -1  10    1.02    0.68
   7  -1  10    0.84    0.43
   7  -1  10    1.08    0.56
  -7   1 -10    1.82    0.87
   7   1  10    0.25    0.59
   8  -1  10    0.37    0.62
   8  -1  10    1.43    0.66
  -8   1 -10    0.01    0.77
   8   1  10    1.24    0.69
  12  -2 -10    1.61    0.65
 -12  -2  10    0.41    0.39
  12  -2 -10    0.60    0.77
 -12  -2  10    1.98    1.12
 -12   2  10    0.04    1.14
  12   2 -10    0.34    0.72
 -12   2  10    1.05    0.43
  12   2 -10    1.36    1.14
  11  -2 -10   -0.44    0.76
  11  -2 -10    0.64    0.55
 -11  -2  10    0.32    1.19
 -11  -2  10    0.28    0.31
  11   2 -10   -0.41    0.73
 -11   2  10    1.49    0.41
 -11   2  10    0.12    1.01
  11   2 -10    0.65    0.44
  10  -2 -10    3.90    1.07
 -10  -2  10    4.81    0.60
 -10  -2  10    4.46    1.31
  10   2 -10    6.32    0.88
 -10   2  10    0.08    1.06
 -10   2  10    4.69    0.61
  10   2 -10    7.42    1.56
  -9  -2  10    1.68    0.38
  -9  -2  10    1.31    0.83
   9  -2 -10    1.02    0.73
  -9   2  10    1.16    0.34
   9   2 -10    1.86    0.55
   9   2 -10    1.93    0.96
  -9   2  10    1.02    1.11
  -8  -2  10    7.08    0.70
   8  -2 -10    7.50    1.23
  -8  -2  10    9.21    1.59
   8   2 -10    5.94    1.42
  -8   2  10    7.17    0.70
   8   2 -10    8.81    1.12
  -8   2  10    3.26    1.45
  -7  -2  10   -0.28    0.22
  -7  -2  10    1.06    0.29
  -7  -2  10    0.78    0.70
   7  -2 -10    0.99    0.60
   7   2 -10    0.27    0.52
  -7   2  10    0.28    0.24
   7   2 -10    0.86    0.83
  -7   2  10    0.22    0.84
  -6  -2  10    1.69    0.75
   6  -2 -10    1.19    0.63
  -6  -2  10    0.94    0.29
  -6  -2  10    1.11    0.32
  -6   2  10    0.94    0.24
   6   2 -10    1.66    0.97
   6   2 -10    0.98    0.62
  -6   2  10   -0.06    0.79
   5  -2 -10    0.82    0.52
  -5  -2  10    1.57    0.31
  -5  -2  10    1.23    0.69
  -5  -2  10    2.11    0.40
   5   2 -10    1.18    0.60
   5   2 -10    1.79    0.93
  -5   2  10    0.57    0.84
  -4  -2  10    7.28    0.59
   4  -2 -10    7.30    0.94
  -4  -2  10    6.55    0.79
  -4  -2  10    7.57    0.75
  -4  -2  10    7.32    1.18
   4   2 -10    8.25    1.51
   4   2 -10    7.60    1.04
  -4   2  10    4.09    1.21
  -3  -2  10    9.25    0.90
   3  -2 -10    8.02    0.70
  -3  -2  10    8.05    1.19
  -3  -2  10    9.04    0.78
   3  -2 -10    8.75    0.96
  -3  -2  10    8.98    0.63
   3   2 -10   10.33    1.21
   3   2 -10    7.45    1.43
  -3   2  10    4.55    1.16
  -2  -2  10    4.30    0.60
   2  -2 -10    3.91    0.60
   2  -2 -10    3.65    0.62
  -2  -2  10    4.13    0.84
  -2  -2  10    4.88    0.65
  -2  -2  10    3.30    0.39
   2   2 -10    4.52    1.19
  -2   2  10    4.20    0.58
   2   2 -10    4.79    0.86
  -1  -2  10   21.74    1.71
  -1  -2  10   20.31    1.45
  -1  -2  10   20.22    1.42
  -1  -2  10   20.71    1.20
   1   2 -10   24.52    2.17
  -1   2  10   21.02    1.41
   1   2 -10   18.70    1.66
   0  -2  10   73.68    4.09
   0  -2  10   71.80    3.77
   0  -2  10   70.58    4.04
   0  -2  10   75.98    4.33
   0   2  10   75.67    4.09
   0   2 -10   71.14    4.31
   1  -2  10    0.28    0.37
   1  -2  10    0.63    0.44
   1  -2  10    0.65    0.19
   1  -2  10    0.92    0.40
  -1   2 -10    0.55    0.30
   1   2  10    0.48    0.32
   1   2  10    0.09    0.34
  -1   2 -10    1.66    0.65
   1   2  10    0.75    0.29
   2  -2  10    6.91    1.03
   2  -2  10    5.21    0.84
   2  -2  10    6.18    1.08
   2  -2  10    7.02    0.86
   2   2  10    6.73    0.66
   2   2  10    7.14    0.78
  -2   2 -10    7.08    1.14
  -2   2 -10    7.43    0.77
   2   2  10    7.04    0.95
   3  -2  10    2.49    0.81
   3  -2  10    1.46    0.50
   3  -2  10    2.51    0.67
   3  -2  10    1.27    0.53
  -3   2 -10    0.09    0.57
  -3   2 -10    3.34    0.53
   3   2  10    2.36    0.65
   3   2  10    2.23    0.46
   3   2  10    3.31    0.67
   4  -2  10    0.07    0.42
   4  -2  10    0.43    0.42
   4  -2  10    0.53    0.48
   4  -2  10   -0.39    0.56
  -4   2 -10    0.53    0.34
  -4   2 -10    1.01    0.61
   4   2  10    0.01    0.43
   5  -2  10    7.31    1.04
   5  -2  10    6.73    0.93
  -5   2 -10    7.16    0.83
   5   2  10    5.37    0.99
  -5   2 -10    6.06    1.26
   6  -2  10    1.19    0.52
   6  -2  10    1.21    0.62
  -6   2 -10    0.71    0.79
  -6   2 -10    1.51    0.75
   6   2  10    0.89    0.65
   7  -2  10    1.69    0.55
   7  -2  10    0.49    0.60
   7   2  10    1.52    0.73
  -7   2 -10    1.11    0.88
   8  -2  10    2.76    0.84
  -8   2 -10    1.52    0.94
   8   2  10    3.74    0.99
 -11  -3  10   11.21    2.07
 -11  -3  10   12.08    1.15
  11  -3 -10   12.22    1.92
  11  -3 -10   15.54    1.60
 -11   3  10   12.33    1.17
  11   3 -10   15.67    2.52
  11   3 -10   13.02    1.52
 -10  -3  10    2.19    1.12
  10  -3 -10    1.86    0.93
  10  -3 -10    3.27    0.78
 -10  -3  10    2.13    0.48
  10   3 -10    3.27    1.29
  10   3 -10    3.43    0.84
 -10   3  10    3.04    0.56
  -9  -3  10    0.54    0.37
  -9  -3  10   -0.12    0.69
   9  -3 -10    0.89    0.52
   9  -3 -10    0.02    0.68
   9   3 -10    1.70    0.67
   9   3 -10    0.23    0.90
  -9   3  10    0.12    0.31
  -8  -3  10   15.13    2.06
   8  -3 -10   13.12    1.77
  -8  -3  10   11.11    0.95
   8   3 -10   11.37    2.14
  -8   3  10   11.66    0.93
   8   3 -10   14.72    1.64
  -7  -3  10    2.74    0.99
  -7  -3  10    3.86    0.53
   7  -3 -10    3.82    1.03
  -7  -3  10    4.06    0.56
  -7   3  10    3.13    0.47
   7   3 -10    3.71    0.98
   7   3 -10    3.93    1.32
  -6  -3  10    1.94    0.41
  -6  -3  10    2.97    0.92
   6  -3 -10    1.57    0.79
  -6  -3  10    1.84    0.41
   6   3 -10    0.75    0.97
   6   3 -10    2.20    0.84
  -5  -3  10    4.11    0.55
  -5  -3  10    3.46    0.60
  -5  -3  10    5.42    1.11
  -5  -3  10    3.81    0.59
   5  -3 -10    4.96    0.99
   5   3 -10    3.42    0.93
   5   3 -10    4.38    1.41
  -4  -3  10    0.52    0.33
   4  -3 -10    0.51    0.49
  -4  -3  10    0.22    0.28
  -4  -3  10    0.58    0.38
  -4  -3  10    1.43    0.71
   4   3 -10    0.59    0.96
   4   3 -10    0.91    0.70
   3  -3 -10   24.22    1.96
  -3  -3  10   27.53    1.81
  -3  -3  10   27.57    2.26
  -3  -3  10   28.73    1.83
  -3  -3  10   28.78    1.68
   3   3 -10   30.02    2.20
   3   3 -10   24.19    3.03
  -2  -3  10    1.45    0.44
  -2  -3  10    0.40    0.29
  -2  -3  10    0.39    0.57
  -2  -3  10    1.09    0.44
  -2   3  10    1.15    0.36
   2   3 -10    2.72    1.20
   2   3 -10    1.21    0.67
  -1  -3  10   -0.25    0.32
  -1  -3  10   -0.04    0.31
  -1  -3  10   -0.26    0.47
  -1  -3  10   -0.14    0.25
   1   3 -10   -0.33    0.47
  -1   3  10    0.18    0.31
   1   3 -10   -0.10    0.85
   0  -3  10    2.73    0.60
   0  -3  10    3.12    0.62
   0  -3  10    3.47    0.89
   0  -3  10    2.53    0.43
   0   3 -10    2.27    0.78
   0   3  10    2.59    0.58
   1  -3  10    6.69    0.95
   1  -3  10   10.38    1.43
   1  -3  10    8.87    0.75
   1  -3  10    9.40    1.09
   1   3  10    9.94    1.07
  -1   3 -10    9.28    1.35
   2  -3  10    0.98    0.68
   2  -3  10    0.72    0.49
   2  -3  10    1.02    0.49
   2  -3  10    0.35    0.70
   2  -3  10    1.69    0.36
   2   3  10   -0.07    0.41
  -2   3 -10    1.33    0.74
   3  -3  10    0.14    0.45
   3  -3  10    1.05    0.69
   3  -3  10    0.62    0.46
   3  -3  10    0.63    0.76
  -3   3 -10    0.18    0.35
  -3   3 -10   -0.86    0.56
   3   3  10    0.80    0.57
   4  -3  10   10.87    1.32
   4  -3  10   11.63    1.62
   4  -3  10    9.11    1.18
   4   3  10    9.27    1.27
  -4   3 -10   13.89    1.28
  -4   3 -10   12.98    1.71
   5  -3  10    1.07    0.63
   5  -3  10    1.45    0.95
   5  -3  10    1.64    0.61
   5   3  10    0.31    0.59
  -5   3 -10    1.21    0.84
  -5   3 -10    1.61    0.58
   6  -3  10    1.25    0.60
   6  -3  10    1.67    0.70
  -6   3 -10    1.08    0.84
  -6   3 -10    0.95    0.49
   6   3  10    1.17    0.68
   7  -3  10    1.02    0.57
   7  -3  10    0.17    0.56
  -7   3 -10    1.27    0.95
   7   3  10    2.15    0.86
  -7   3 -10    1.21    0.55
  10  -4 -10    1.22    0.66
 -10  -4  10    0.56    0.46
  10  -4 -10    0.58    0.94
 -10  -4  10    1.56    0.99
  10   4 -10    2.36    0.77
  10   4 -10    0.22    1.31
   9  -4 -10    3.36    1.15
  -9  -4  10    1.43    0.91
  -9  -4  10    1.66    0.51
   9  -4 -10    2.46    0.73
   9   4 -10    3.60    0.96
   9   4 -10    1.97    1.45
  -8  -4  10   -0.01    0.65
  -8  -4  10    0.74    0.41
   8  -4 -10    0.93    0.75
   8  -4 -10    0.65    0.46
   8   4 -10    2.59    0.98
   8   4 -10    1.52    1.06
   7  -4 -10    1.88    0.83
  -7  -4  10    0.09    0.33
   7  -4 -10   -0.12    0.33
  -7  -4  10    0.11    0.65
   7   4 -10    0.83    1.09
   7   4 -10    0.23    0.80
   6  -4 -10    3.51    0.66
  -6  -4  10    3.78    0.61
  -6  -4  10    3.33    0.57
   6  -4 -10    3.56    1.07
  -6  -4  10    3.88    1.15
   6   4 -10    3.92    1.50
   6   4 -10    3.65    1.11
  -5  -4  10   -0.12    0.33
  -5  -4  10    0.77    0.40
   5  -4 -10    0.56    0.63
  -5  -4  10    0.16    0.31
  -5  -4  10    0.42    0.58
   5  -4 -10    0.10    0.36
   5   4 -10    1.39    1.23
   5   4 -10    1.92    0.91
  -4  -4  10    4.56    0.71
  -4  -4  10    4.01    0.62
  -4  -4  10    5.07    1.17
   4  -4 -10    4.75    1.10
  -4  -4  10    5.09    0.76
   4   4 -10    5.03    1.20
   4   4 -10    6.86    1.80
  -3  -4  10    0.24    0.64
  -3  -4  10    0.64    0.41
  -3  -4  10    0.21    0.39
  -3  -4  10    0.02    0.30
   3   4 -10   -0.33    0.63
   3   4 -10    1.39    1.24
  -2  -4  10    0.11    0.41
  -2  -4  10   -0.16    0.34
  -2  -4  10    0.37    0.68
  -2  -4  10   -0.20    0.33
   2   4 -10    0.54    1.13
   2   4 -10   -0.65    0.58
  -1  -4  10    0.82    0.69
  -1  -4  10    0.14    0.34
  -1  -4  10   -0.13    0.36
   1   4 -10    2.88    1.32
   1   4 -10    0.34    0.73
   0  -4  10    9.81    1.63
   0  -4  10    9.53    1.12
   0  -4  10    8.67    0.91
   0   4 -10   11.18    1.57
   0   4  10    7.61    1.03
   1  -4  10    9.99    1.60
   1  -4  10    9.75    1.17
   1  -4  10    9.78    0.97
  -1   4 -10   12.45    1.69
   1   4  10   10.20    1.16
   2  -4  10    0.79    0.55
   2  -4  10    0.98    0.72
   2  -4  10   -0.21    0.86
   2  -4  10    0.34    0.37
  -2   4 -10    0.28    0.76
   2   4  10    1.54    0.53
   3  -4  10   16.97    1.21
   3  -4  10   14.63    1.59
   3  -4  10   15.89    2.08
   3  -4  10   15.16    2.22
  -3   4 -10   12.47    1.85
   3   4  10   13.75    1.52
   4  -4  10    3.86    1.23
   4  -4  10    2.60    0.76
   4  -4  10    3.98    1.40
   4   4  10    3.28    0.82
  -4   4 -10    3.56    1.13
   5  -4  10   -0.17    0.48
   5  -4  10    0.85    0.67
   5  -4  10   -0.48    0.86
   5  -4  10    1.69    0.98
   5   4  10    0.88    0.63
  -5   4 -10    1.60    0.97
  -5   4 -10    1.28    0.62
   7  -5 -10    0.87    1.00
  -7  -5  10   -0.18    0.42
  -7  -5  10   -1.39    0.52
   7   5 -10   -0.75    1.14
   7   5 -10    1.85    0.89
  -6  -5  10    1.16    0.94
   6  -5 -10    0.71    1.00
  -6  -5  10    1.89    0.56
   6   5 -10    0.83    1.01
   6   5 -10    0.57    1.26
  -5  -5  10    5.72    1.43
  -5  -5  10    7.59    0.92
  -5  -5  10    8.17    0.98
   5   5 -10    5.07    1.42
   5   5 -10    5.28    2.06
  -4  -5  10    0.06    0.40
  -4  -5  10   -0.19    0.43
  -4  -5  10    0.31    0.71
   4   5 -10   -0.50    0.96
   4   5 -10   -0.31    1.07
  -3  -5  10    3.47    1.17
  -3  -5  10    2.35    0.58
   3   5 -10    4.40    1.83
   3   5 -10    1.77    1.15
  -2  -5  10    1.70    1.01
  -2  -5  10    0.83    0.45
  -2  -5  10    1.40    0.49
   2   5 -10    0.80    0.98
   2   5 -10    3.44    1.73
  -1  -5  10    1.37    0.95
  -1  -5  10    0.67    0.45
  -1  -5  10    0.10    0.47
   1   5 -10   -1.23    0.75
   1   5 -10   -0.27    1.26
   0  -5  10    6.21    1.44
   0  -5  10    4.73    0.85
   0  -5  10    5.24    0.78
   0   5 -10    4.43    1.23
   0   5 -10    4.18    2.02
   1  -5  10    1.08    0.48
   1  -5  10   -0.46    0.36
   1  -5  10   -0.91    0.63
  -1   5 -10    0.40    0.86
   2  -5  10   -0.28    0.76
   2  -5  10   -0.35    0.38
   2  -5  10    0.49    0.49
  -2   5 -10   -0.18    0.74
  13   0 -11   -0.38    0.77
 -13   0  11    0.46    0.35
 -13   0  11    0.33    0.96
 -12   0  11   -0.34    0.26
  12   0 -11    0.02    0.74
 -12   0  11   -0.92    0.81
 -11   0  11    0.83    1.04
  11   0 -11    0.06    0.67
 -11   0  11    0.87    0.35
 -10   0  11   -0.21    0.20
 -10   0  11    0.32    0.89
  10   0 -11   -0.20    0.62
  -9   0  11   11.82    2.12
  -9   0  11   15.92    1.03
   9   0 -11   16.99    1.91
  -8   0  11   -0.04    0.20
   8   0 -11    0.43    0.62
  -8   0  11    0.83    0.78
   7   0 -11   30.52    2.39
  -7   0  11   31.50    1.74
  -7   0  11   28.71    2.71
   7   0 -11   33.50    1.90
  -7   0  11   30.35    1.83
  -6   0  11    0.23    0.24
  -6   0  11    0.21    0.67
   6   0 -11   -0.12    0.33
   6   0 -11   -0.28    0.40
  -6   0  11    0.04    0.14
   5   0 -11   32.88    2.21
  -5   0  11   29.58    1.83
  -5   0  11   30.75    1.64
  -5   0  11   29.55    2.50
   5   0 -11   32.62    1.90
   4   0 -11    0.01    0.39
   4   0 -11    0.11    0.29
  -4   0  11    0.00    0.47
  -4   0  11   -0.15    0.19
   3   0 -11    5.78    0.79
  -3   0  11    5.01    0.61
   3   0 -11    5.56    0.72
  -3   0  11    5.98    0.98
  -3   0  11    4.88    0.65
  -2   0  11   -0.57    0.20
  -2   0  11    0.03    0.22
  -2   0  11   -0.43    0.37
   2   0 -11   -0.37    0.31
   2   0 -11    0.33    0.34
  -1   0  11   29.46    1.94
  -1   0  11   33.38    2.18
   1   0 -11   34.17    2.18
   1   0 -11   33.43    1.94
  -1   0  11   33.26    2.00
   0   0  11    1.36    0.37
   0   0  11    0.78    0.37
   0   0  11    1.23    0.36
   0   0 -11    1.24    0.57
   1   0  11    2.07    0.55
   1   0  11    2.70    0.50
  -1   0 -11    2.48    0.73
   1   0  11    2.75    0.52
  -2   0 -11   -0.41    0.49
   2   0  11   -0.32    0.24
   2   0  11    0.24    0.41
   2   0  11    0.39    0.33
   3   0  11   15.49    1.14
   3   0  11   13.21    1.14
  -3   0 -11   15.08    1.78
   3   0  11   12.40    1.39
   4   0  11    0.51    0.48
   4   0  11   -0.29    0.28
  -4   0 -11    0.22    0.62
   4   0  11   -0.31    0.36
   5   0  11    1.27    0.59
   5   0  11    0.02    0.41
   5   0  11    1.10    0.43
  -5   0 -11    1.06    0.75
   6   0  11   -0.62    0.35
   6   0  11   -0.05    0.37
  -6   0 -11   -0.29    0.56
   6   0  11   -0.26    0.46
  -7   0 -11    4.10    1.21
   7   0  11    2.98    0.76
   7   0  11    3.30    0.91
  -8   0 -11    1.23    0.93
   8   0  11   -0.47    0.43
   8   0  11   -0.31    0.61
 -13  -1  11   -0.54    0.27
  13  -1 -11   -0.07    0.53
  13  -1 -11   -0.05    0.72
 -13  -1  11   -0.28    0.88
 -13   1  11    0.73    1.26
  13   1 -11   -0.35    0.85
 -13   1  11   -0.63    0.30
 -12  -1  11    0.86    0.37
  12  -1 -11   -0.45    0.64
 -12  -1  11   -0.48    0.79
  12   1 -11    1.42    0.91
 -12   1  11    0.26    0.33
 -12   1  11    1.90    1.27
 -11  -1  11    2.17    0.46
  11  -1 -11    4.79    1.18
 -11  -1  11    5.47    1.64
 -11   1  11    1.24    1.24
  11   1 -11    4.12    1.18
 -11   1  11    2.78    0.49
 -10  -1  11    4.76    1.41
  10  -1 -11    8.16    1.40
 -10  -1  11    6.97    0.70
  10   1 -11    6.78    1.38
 -10   1  11    3.25    1.41
 -10   1  11    6.68    0.69
  -9  -1  11    1.02    0.85
  -9  -1  11    0.21    0.24
   9  -1 -11   -0.06    0.54
  -9   1  11   -0.18    0.22
   9   1 -11    0.31    0.41
  -9   1  11   -0.13    0.84
   9   1 -11    0.74    0.74
  -8  -1  11   27.73    1.59
  -8  -1  11   23.33    2.44
  -8  -1  11   25.41    1.59
   8  -1 -11   29.42    2.22
  -8   1  11   19.49    2.80
   8   1 -11   27.61    1.83
  -8   1  11   28.68    1.58
   8   1 -11   29.90    2.43
   7  -1 -11    6.59    1.09
  -7  -1  11    5.68    0.55
  -7  -1  11    5.86    1.28
  -7  -1  11    6.15    0.62
  -7   1  11    5.45    0.52
   7   1 -11    7.02    0.90
  -7   1  11    3.34    1.23
   7   1 -11    5.72    1.16
  -6  -1  11   27.78    1.69
  -6  -1  11   28.99    1.59
   6  -1 -11   29.20    2.11
  -6  -1  11   28.14    2.38
   6   1 -11   30.76    1.96
  -6   1  11   29.30    1.55
  -6   1  11   19.51    2.38
   6   1 -11   28.24    2.31
  -5  -1  11    3.77    0.93
  -5  -1  11    3.10    0.35
  -5  -1  11    3.46    0.49
   5  -1 -11    3.58    0.74
   5   1 -11    3.07    0.91
  -5   1  11    2.67    0.46
   5   1 -11    3.73    0.69
  -5   1  11    1.83    0.96
  -4  -1  11    1.56    0.44
  -4  -1  11    1.14    0.34
   4  -1 -11    1.48    0.34
   4  -1 -11    1.17    0.47
  -4  -1  11    1.30    0.20
  -4  -1  11    1.95    0.66
   4   1 -11    1.97    0.75
  -4   1  11    1.18    0.73
   4   1 -11    1.28    0.54
  -4   1  11    0.89    0.32
  -3  -1  11    3.75    0.58
  -3  -1  11    4.85    0.60
   3  -1 -11    4.09    0.60
  -3  -1  11    4.70    0.31
  -3  -1  11    4.50    0.88
   3  -1 -11    4.75    0.65
  -3   1  11    3.65    0.54
   3   1 -11    3.91    0.75
  -3   1  11    3.70    0.93
   3   1 -11    5.20    0.99
  -2  -1  11   17.59    1.21
   2  -1 -11   16.76    1.22
  -2  -1  11   16.61    1.39
   2  -1 -11   17.09    1.06
  -2  -1  11   14.76    1.11
  -2   1  11   14.24    1.08
   2   1 -11   15.76    1.32
   2   1 -11   15.36    1.62
  -2   1  11   10.06    1.45
   1  -1 -11    5.50    0.85
  -1  -1  11    5.43    0.83
  -1  -1  11    3.87    0.59
  -1  -1  11    5.25    0.68
   1   1 -11    5.41    0.88
  -1   1  11    3.92    0.79
   1   1 -11    5.44    0.97
  -1   1  11    5.86    0.73
  -1   1  11    5.14    0.64
  -1   1  11    5.51    0.65
   0  -1  11    0.07    0.30
   0  -1 -11   -0.35    0.33
   0  -1  11   -0.14    0.26
   0  -1  11    0.25    0.37
   0   1 -11   -0.06    0.49
   0   1  11    0.35    0.36
   0   1  11    0.45    0.28
   0   1 -11    0.23    0.47
   0   1  11   -0.15    0.24
   1  -1  11    2.61    0.57
  -1  -1 -11    2.83    0.80
   1  -1  11    2.91    0.52
   1  -1  11    1.97    0.50
  -1   1 -11    2.52    0.38
  -1   1 -11    2.92    0.81
  -1   1 -11    2.18    0.71
   1   1  11    3.45    0.53
   1   1  11    3.04    0.62
   1   1  11    1.78    0.42
   2  -1  11    5.45    0.72
  -2  -1 -11    3.18    0.95
   2  -1  11    6.08    0.81
   2  -1  11    5.75    0.75
  -2   1 -11    5.75    1.03
   2   1  11    6.22    0.73
   2   1  11    4.51    0.64
   2   1  11    4.28    0.78
   3  -1  11    2.47    0.60
   3  -1  11    3.03    0.70
   3  -1  11    2.71    0.53
   3   1  11    2.99    0.56
   3   1  11    4.22    0.78
  -3   1 -11    2.53    0.87
   3   1  11    2.28    0.49
   4  -1  11    7.61    0.87
   4  -1  11    4.11    0.77
   4  -1  11    5.08    0.94
   4   1  11    5.29    0.91
   4   1  11    5.64    0.72
  -4   1 -11    3.64    1.03
   4   1  11    5.87    0.72
   5  -1  11    6.80    0.99
   5  -1  11    6.83    0.88
   5  -1  11    9.67    1.26
   5   1  11    5.92    0.78
   5   1  11    7.03    0.83
   5   1  11    8.48    1.20
  -5   1 -11    4.87    1.19
   6  -1  11   -0.78    0.42
   6  -1  11   -0.34    0.31
   6  -1  11   -0.29    0.44
   6   1  11   -0.93    0.43
  -6   1 -11    0.51    0.79
   7  -1  11    7.45    1.06
   7  -1  11    4.11    0.84
   7  -1  11    5.74    1.11
   7   1  11    5.93    1.12
  -7   1 -11    2.62    1.11
  -8  -1 -11    3.54    1.20
   8  -1  11    2.13    0.84
   8  -1  11    2.61    0.78
  -8   1 -11    1.12    0.97
   8   1  11    2.41    0.85
 -12  -2  11    1.44    1.05
 -12  -2  11    1.02    0.44
  12  -2 -11    2.79    0.78
  12  -2 -11    1.76    1.00
  12   2 -11    1.05    1.03
 -12   2  11    1.76    0.47
  12   2 -11    2.00    0.85
 -12   2  11    1.58    1.49
 -11  -2  11    3.88    1.42
 -11  -2  11    3.17    0.53
  11  -2 -11    2.84    1.03
 -11   2  11    3.05    0.55
 -11   2  11    1.60    1.30
  11   2 -11    2.23    1.15
 -10  -2  11   -0.03    0.24
  10  -2 -11   -0.28    0.62
 -10  -2  11    1.51    1.01
  10   2 -11    0.72    0.45
 -10   2  11    0.65    0.33
 -10   2  11    1.14    1.19
  10   2 -11    0.72    0.81
  -9  -2  11    2.83    1.14
   9  -2 -11    1.96    0.85
  -9  -2  11    3.21    0.49
   9   2 -11    4.37    0.79
  -9   2  11    2.36    1.37
   9   2 -11    3.81    1.24
  -9   2  11    2.39    0.45
   8  -2 -11    0.16    0.58
  -8  -2  11   -0.30    0.59
  -8  -2  11    0.35    0.30
  -8   2  11    0.92    0.28
   8   2 -11    0.88    0.63
  -8   2  11    0.87    1.09
   8   2 -11    0.20    0.78
   7  -2 -11    1.00    0.64
  -7  -2  11    2.70    0.45
  -7  -2  11    1.89    0.38
  -7  -2  11    2.61    0.94
  -7   2  11    1.90    0.32
   7   2 -11    1.09    0.90
  -7   2  11    1.38    1.21
   7   2 -11    1.93    0.72
  -6  -2  11    0.14    0.53
  -6  -2  11    0.08    0.25
  -6  -2  11    0.01    0.22
   6  -2 -11    0.21    0.44
   6   2 -11   -0.95    0.55
  -6   2  11    0.58    0.92
   6   2 -11   -0.13    0.53
  -5  -2  11   14.20    1.54
  -5  -2  11   12.85    0.89
   5  -2 -11   15.62    1.32
  -5  -2  11   12.98    1.02
   5   2 -11   17.90    2.19
  -5   2  11    9.09    1.85
   5   2 -11   12.44    1.41
  -4  -2  11    4.63    0.66
  -4  -2  11    3.93    0.92
  -4  -2  11    4.18    0.45
  -4  -2  11    3.59    0.58
   4  -2 -11    4.98    0.80
   4   2 -11    3.62    0.80
  -4   2  11    2.33    0.99
   4   2 -11    5.34    1.26
  -3  -2  11   -0.14    0.45
  -3  -2  11   -0.13    0.25
   3  -2 -11    0.08    0.29
  -3  -2  11    0.29    0.19
  -3  -2  11    0.56    0.37
   3  -2 -11    0.15    0.35
  -3   2  11    0.51    0.75
   3   2 -11   -1.46    0.48
   3   2 -11   -0.22    0.48
   2  -2 -11    9.21    0.97
  -2  -2  11    8.71    0.91
  -2  -2  11    8.36    1.22
  -2  -2  11    7.96    0.85
  -2  -2  11    7.28    0.55
  -2   2  11    7.57    0.82
   2   2 -11    8.37    1.17
   2   2 -11    5.91    1.29
  -1  -2  11   26.31    1.83
  -1  -2  11   28.32    2.10
  -1  -2  11   26.40    1.80
  -1  -2  11   28.12    1.52
  -1   2  11   28.39    1.82
   1   2 -11   28.61    2.54
   1   2 -11   29.88    2.15
   0  -2  11    6.91    0.84
   0  -2  11    6.87    1.04
   0  -2  11    7.98    0.89
   0   2 -11    6.24    1.34
   0   2  11    5.95    0.74
   0   2  11    6.35    0.86
   0   2 -11    6.85    1.10
   1  -2  11    0.23    0.36
   1  -2  11    0.60    0.47
   1  -2  11    0.48    0.40
   1   2  11    0.37    0.43
   1   2  11    0.13    0.25
  -1   2 -11    1.00    0.65
   1   2  11    1.20    0.40
   2  -2  11    1.04    0.54
   2  -2  11    1.22    0.51
   2  -2  11    1.71    0.50
   2   2  11   -0.05    0.42
  -2   2 -11    1.07    0.38
  -2   2 -11    0.12    0.44
   2   2  11    0.61    0.31
   2   2  11    0.67    0.37
   3  -2  11   13.74    1.64
   3  -2  11   14.07    1.36
   3  -2  11   13.53    1.32
   3  -2  11   13.25    1.39
   3   2  11   14.26    1.14
   3   2  11   14.63    1.35
  -3   2 -11   13.44    1.06
  -3   2 -11   11.98    1.66
   4  -2  11    0.73    0.47
   4  -2  11    2.94    0.71
  -4   2 -11    2.37    0.91
  -4   2 -11    2.86    0.63
   4   2  11    1.75    0.67
   4   2  11    2.03    0.50
   5  -2  11    0.60    0.48
   5  -2  11   -0.01    0.47
  -5   2 -11    0.62    0.78
   5   2  11    0.66    0.61
   6  -2  11   -0.64    0.46
   6  -2  11    0.10    0.41
  -6   2 -11   -1.37    0.54
   6   2  11   -0.12    0.54
   7  -2  11    0.45    0.56
   7  -2  11    1.21    0.71
  -7   2 -11    1.62    0.90
   7   2  11    0.52    0.62
 -11  -3  11    1.30    0.97
  11  -3 -11   -0.11    0.50
 -11  -3  11    0.66    0.37
  11  -3 -11   -0.43    0.80
  11   3 -11    0.92    1.17
 -11   3  11    0.25    0.40
  11   3 -11    1.11    0.52
  10  -3 -11    1.86    0.67
 -10  -3  11    0.49    0.81
 -10  -3  11    0.35    0.34
  10  -3 -11    0.20    0.75
  10   3 -11    0.62    0.97
  10   3 -11    2.37    0.70
  -9  -3  11    0.08    0.33
  -9  -3  11   -0.36    0.63
   9  -3 -11    1.43    0.88
   9   3 -11    1.72    0.68
   9   3 -11    1.39    1.02
   8  -3 -11    1.76    0.81
  -8  -3  11    2.30    0.99
  -8  -3  11    1.87    0.42
   8   3 -11    1.51    1.18
   8   3 -11    2.68    0.86
  -7  -3  11    6.91    0.76
  -7  -3  11    8.43    1.58
  -7  -3  11    7.54    0.78
   7  -3 -11    6.67    1.16
   7   3 -11   12.57    2.16
   7   3 -11    6.73    1.24
  -6  -3  11   -0.04    0.26
   6  -3 -11    0.47    0.50
  -6  -3  11   -0.22    0.23
  -6  -3  11    0.00    0.54
   6   3 -11   -0.69    0.66
   6   3 -11   -0.01    0.86
  -5  -3  11    0.16    0.34
  -5  -3  11    0.36    0.29
  -5  -3  11    0.13    0.28
   5  -3 -11   -0.11    0.51
  -5  -3  11   -0.63    0.49
   5   3 -11    0.34    0.69
   5   3 -11   -0.86    0.74
   4  -3 -11    5.27    0.94
  -4  -3  11    5.79    1.19
  -4  -3  11    6.56    0.79
  -4  -3  11    5.59    0.64
  -4  -3  11    6.00    0.82
   4   3 -11    4.62    1.04
   4   3 -11    5.00    1.47
  -3  -3  11   -0.22    0.25
  -3  -3  11   -0.10    0.30
  -3  -3  11   -0.24    0.35
  -3  -3  11    0.28    0.54
   3   3 -11   -0.65    0.72
   3   3 -11    0.47    0.65
  -2  -3  11   10.00    1.05
  -2  -3  11   11.32    1.52
  -2  -3  11    6.49    0.71
  -2  -3  11    8.60    0.98
   2   3 -11    9.38    1.35
   2   3 -11    9.99    1.90
  -2   3  11    9.10    0.83
  -1  -3  11   28.21    2.20
  -1  -3  11   24.61    1.73
  -1  -3  11   25.18    1.50
  -1  -3  11   24.85    1.75
   1   3 -11   26.32    2.12
  -1   3  11   22.14    1.64
   1   3 -11   23.78    2.96
   0  -3  11    7.36    0.92
   0  -3  11    6.09    1.13
   0  -3  11    5.88    0.60
   0  -3  11    5.76    0.87
   0   3 -11    6.04    1.16
   0   3 -11    9.05    1.89
   0   3  11    6.19    0.82
   1  -3  11    4.75    1.07
   1  -3  11    3.10    0.70
   1  -3  11    3.43    0.46
   1  -3  11    4.01    0.75
  -1   3 -11    3.82    1.00
   1   3  11    2.95    0.66
   2  -3  11   -0.36    0.37
   2  -3  11    0.62    0.65
   2  -3  11    0.44    0.48
   2   3  11    0.11    0.47
  -2   3 -11   -0.15    0.63
   3  -3  11   11.78    1.41
   3  -3  11   16.73    2.08
   3  -3  11   12.50    1.38
   3  -3  11   15.48    1.82
  -3   3 -11   13.85    1.82
  -3   3 -11   15.55    1.41
   3   3  11   13.52    1.50
   4  -3  11    1.11    0.56
   4  -3  11    1.05    0.59
   4  -3  11    1.99    1.07
  -4   3 -11    1.52    0.54
  -4   3 -11    0.82    0.85
   4   3  11    1.90    0.71
   5  -3  11   -0.40    0.48
   5  -3  11    0.33    0.49
  -5   3 -11    0.08    0.45
   5   3  11   -0.90    0.61
  -5   3 -11    0.12    0.75
   6  -3  11    0.22    0.49
   6  -3  11    2.23    0.72
   6   3  11    1.17    0.73
  -6   3 -11    0.94    0.84
  -9  -4  11    0.95    0.46
   9  -4 -11   -0.08    0.74
  -9  -4  11   -0.18    0.61
   9  -4 -11    0.59    0.49
   9   4 -11    0.22    1.15
   9   4 -11    0.95    0.64
   8  -4 -11    1.92    0.95
  -8  -4  11    2.88    1.07
  -8  -4  11    1.23    0.44
   8  -4 -11    2.40    0.72
   8   4 -11    0.86    1.08
   8   4 -11    2.07    0.92
   7  -4 -11    0.51    0.44
   7  -4 -11    0.79    0.76
  -7  -4  11    0.39    0.34
  -7  -4  11    0.66    0.76
   7   4 -11   -0.21    0.79
   7   4 -11    1.53    1.16
   6  -4 -11    0.59    0.80
  -6  -4  11    1.41    0.45
  -6  -4  11    0.19    0.69
  -6  -4  11    0.47    0.35
   6  -4 -11    0.61    0.45
   6   4 -11    1.53    1.33
   6   4 -11    0.58    0.90
  -5  -4  11   -0.89    0.55
  -5  -4  11    0.21    0.31
   5  -4 -11   -0.22    0.59
  -5  -4  11   -0.64    0.28
  -5  -4  11    0.08    0.39
   5   4 -11   -0.28    1.03
   5   4 -11    0.11    0.83
  -4  -4  11    2.34    0.60
  -4  -4  11    1.71    0.90
  -4  -4  11    2.50    0.56
  -4  -4  11    1.76    0.46
   4   4 -11    2.13    1.36
   4   4 -11    0.72    0.87
  -3  -4  11    6.33    0.76
  -3  -4  11    6.20    0.90
  -3  -4  11    5.29    0.81
  -3  -4  11    7.17    1.44
   3   4 -11    7.80    2.01
   3   4 -11    6.42    1.30
  -2  -4  11   11.46    0.98
  -2  -4  11   12.87    1.84
  -2  -4  11   12.43    1.30
  -2  -4  11   12.79    1.31
   2   4 -11   11.68    1.66
   2   4 -11   12.64    2.41
  -1  -4  11    6.21    0.94
  -1  -4  11    6.57    0.98
  -1  -4  11    6.60    0.75
  -1  -4  11    8.70    1.51
   1   4 -11    6.10    1.29
   1   4 -11    8.08    2.08
   0  -4  11   -0.20    0.60
   0  -4  11    0.33    0.45
   0  -4  11    0.00    0.43
   0  -4  11    0.33    0.35
   0   4 -11   -0.89    1.23
   0   4 -11   -0.85    0.58
   1  -4  11   28.18    2.04
   1  -4  11   25.73    2.01
   1  -4  11   27.89    2.49
   1  -4  11   25.19    1.71
   1   4  11   27.49    1.98
  -1   4 -11   29.83    2.49
   2  -4  11    0.39    0.50
   2  -4  11    2.05    0.69
   2  -4  11    0.40    0.85
   2   4  11    0.68    0.51
  -2   4 -11    1.69    0.90
   3  -4  11   24.30    2.98
   3  -4  11   31.11    2.25
   3  -4  11   28.23    2.17
   3  -4  11   27.69    2.55
  -3   4 -11   28.23    2.58
   3   4  11   28.39    2.17
   4  -4  11    7.76    1.19
   4  -4  11    9.68    1.91
   4  -4  11    8.81    1.27
   4  -4  11   10.13    1.65
   4   4  11    8.19    1.29
  -4   4 -11    9.29    1.64
  -6  -5  11   -0.31    0.71
  -6  -5  11    0.06    0.44
   6   5 -11   -1.12    1.13
   6   5 -11   -1.17    0.90
  -5  -5  11   -0.46    0.75
  -5  -5  11    0.90    0.48
  -5  -5  11    0.69    0.46
   5   5 -11   -0.70    0.89
   5   5 -11    1.13    1.36
  -4  -5  11   12.58    1.41
  -4  -5  11   15.68    2.26
  -4  -5  11   14.21    1.29
   4   5 -11   14.39    2.15
   4   5 -11   11.90    2.73
  -3  -5  11    2.24    0.71
  -3  -5  11    2.76    0.58
  -3  -5  11    0.93    0.97
  -3  -5  11    1.77    0.68
   3   5 -11    2.34    1.16
   3   5 -11    1.99    1.66
  -2  -5  11   -0.04    0.49
  -2  -5  11   -0.31    0.66
  -2  -5  11   -0.07    0.35
  -2  -5  11    0.12    0.39
   2   5 -11    0.39    1.32
   2   5 -11   -1.62    0.46
  -1  -5  11    0.01    0.39
  -1  -5  11   -0.20    0.68
  -1  -5  11    0.01    0.38
  -1  -5  11   -0.63    0.42
   1   5 -11   -1.09    1.13
   1   5 -11   -0.60    0.84
   0  -5  11   -0.13    0.40
   0  -5  11   -0.66    0.47
   0  -5  11    0.36    0.87
   0   5 -11   -0.18    0.85
   0   5 -11    1.52    1.45
   1  -5  11   -0.53    0.37
   1  -5  11    0.19    0.60
   1  -5  11   -0.59    0.78
  -1   5 -11    0.21    0.96
 -13   0  12   -0.49    0.25
  13   0 -12   -0.22    0.81
 -13   0  12    1.86    1.44
 -12   0  12    6.60    1.79
  12   0 -12    8.66    1.61
 -12   0  12    6.62    0.74
 -11   0  12    0.42    0.99
  11   0 -12    0.42    0.68
 -11   0  12    0.21    0.26
 -10   0  12    9.88    2.05
 -10   0  12   11.89    0.89
  10   0 -12   13.43    1.78
  -9   0  12   -0.18    0.20
   9   0 -12    0.60    0.65
  -9   0  12    0.44    0.90
   8   0 -12   26.06    2.11
  -8   0  12   23.01    1.48
  -8   0  12   22.53    2.46
  -7   0  12   -0.04    0.18
  -7   0  12   -0.55    0.59
   7   0 -12    0.02    0.53
  -7   0  12   -0.28    0.23
   6   0 -12   27.53    1.66
  -6   0  12   23.74    2.37
   6   0 -12   24.41    1.98
  -6   0  12   25.68    1.59
  -6   0  12   25.17    1.40
   5   0 -12    0.21    0.34
  -5   0  12    0.93    0.71
  -5   0  12   -0.13    0.22
   5   0 -12    0.33    0.42
   4   0 -12    0.83    0.48
   4   0 -12    0.42    0.35
  -4   0  12    0.70    0.66
  -4   0  12    0.67    0.30
  -3   0  12    0.09    0.48
  -3   0  12    0.05    0.24
  -3   0  12   -0.08    0.21
   3   0 -12   -0.26    0.33
   3   0 -12    0.02    0.38
   2   0 -12   18.81    1.51
  -2   0  12   20.71    1.70
   2   0 -12   21.19    1.43
  -2   0  12   20.35    1.42
  -2   0  12   20.50    1.38
  -1   0  12    0.48    0.42
   1   0 -12    0.45    0.51
  -1   0  12   -0.09    0.26
  -1   0  12   -0.03    0.25
   0   0  12    2.30    0.46
   0   0  12    3.43    0.56
   0   0 -12    2.49    0.68
   0   0  12    1.73    0.49
   1   0  12   -0.26    0.30
   1   0  12   -0.33    0.34
  -1   0 -12   -0.77    0.45
   1   0  12   -0.02    0.29
   2   0  12   10.95    1.00
   2   0  12   12.03    1.05
   2   0  12   12.72    1.34
  -2   0 -12   12.25    1.54
   3   0  12    0.49    0.38
   3   0  12    0.31    0.39
   3   0  12    0.31    0.48
  -3   0 -12   -0.55    0.43
   4   0  12    3.43    0.86
  -4   0 -12    5.38    1.16
   4   0  12    3.93    0.71
   4   0  12    4.16    0.66
   5   0  12    0.82    0.45
   5   0  12    0.15    0.34
   5   0  12    0.31    0.53
  -5   0 -12   -0.37    0.68
   6   0  12    0.15    0.52
   6   0  12    0.95    0.45
   6   0  12    0.79    0.57
  -6   0 -12    0.61    0.85
  -7   0 -12    0.35    0.83
   7   0  12    0.27    0.48
   7   0  12    0.75    0.69
 -12  -1  12   -0.71    0.78
 -12  -1  12   -0.08    0.28
  12  -1 -12    0.85    0.82
 -12   1  12    0.12    1.05
  12   1 -12   -0.21    0.75
 -12   1  12    0.39    0.33
 -11  -1  12    1.78    1.13
  11  -1 -12    1.96    0.96
 -11  -1  12    1.50    0.41
  11   1 -12    2.37    1.04
 -11   1  12    1.80    0.43
 -11   1  12    1.01    1.21
 -10  -1  12   -0.17    0.26
 -10  -1  12    0.21    0.83
  10  -1 -12   -0.91    0.54
 -10   1  12   -0.01    0.98
  10   1 -12    0.20    0.66
 -10   1  12    0.55    0.31
  -9  -1  12    4.37    0.56
   9  -1 -12    7.01    1.29
  -9  -1  12    6.89    1.54
  -9   1  12    5.12    0.57
   9   1 -12    7.40    1.39
  -9   1  12    4.30    1.43
  -8  -1  12   16.25    1.05
   8  -1 -12   16.88    1.84
  -8  -1  12   15.67    1.09
  -8  -1  12   12.06    1.97
   8   1 -12   14.63    1.92
   8   1 -12   18.70    1.37
  -8   1  12   16.13    1.03
  -7  -1  12   11.37    0.79
  -7  -1  12   11.80    1.79
  -7  -1  12   10.55    0.85
   7  -1 -12   11.75    1.44
   7   1 -12   10.01    1.54
  -7   1  12   11.83    0.75
  -7   1  12    7.58    1.66
   7   1 -12   13.05    1.30
  -6  -1  12   23.83    1.39
   6  -1 -12   26.53    1.95
  -6  -1  12   27.62    2.32
  -6  -1  12   23.82    1.54
   6   1 -12   24.53    2.13
  -6   1  12   18.58    2.52
   6   1 -12   25.35    1.78
  -5  -1  12    0.21    0.16
   5  -1 -12    0.58    0.47
  -5  -1  12   -0.53    0.42
  -5  -1  12    0.63    0.29
  -5   1  12   -0.06    0.64
   5   1 -12    0.64    0.62
  -5   1  12    0.27    0.26
   5   1 -12    0.44    0.44
   4  -1 -12    1.46    0.49
   4  -1 -12    0.77    0.33
  -4  -1  12    0.48    0.31
  -4  -1  12   -0.14    0.31
  -4  -1  12    0.73    0.59
  -4  -1  12    0.30    0.13
  -4   1  12    0.11    0.65
   4   1 -12    0.81    0.62
   4   1 -12    1.00    0.50
  -4   1  12    0.77    0.31
   3  -1 -12   13.24    1.05
  -3  -1  12   12.17    1.00
  -3  -1  12   12.86    1.08
   3  -1 -12   13.52    1.06
  -3  -1  12   14.32    1.44
  -3   1  12   10.52    1.54
   3   1 -12   14.41    1.61
   3   1 -12   14.68    1.29
  -3   1  12   10.93    0.95
   2  -1 -12    2.17    0.58
  -2  -1  12    2.26    0.50
  -2  -1  12    2.54    0.68
  -2  -1  12    2.19    0.47
   2   1 -12    2.36    0.73
  -2   1  12    2.76    0.49
  -2   1  12    1.16    0.64
   2   1 -12    2.27    0.63
   1  -1 -12   36.48    2.24
  -1  -1  12   30.10    2.04
  -1  -1  12   32.53    2.01
  -1  -1  12   31.77    2.22
   1   1 -12   33.25    2.30
  -1   1  12   29.70    1.96
  -1   1  12   33.56    2.09
   1   1 -12   33.35    2.35
  -1   1  12   31.85    1.98
   0  -1  12   29.73    1.96
   0  -1 -12   27.46    2.05
   0  -1  12   26.79    1.83
   0  -1  12   27.00    1.79
   0   1 -12   24.12    2.73
   0   1  12   27.11    1.76
   0   1  12   26.82    1.75
   0   1  12   28.20    1.90
   0   1 -12   27.69    2.13
  -1  -1 -12    3.54    0.88
   1  -1  12    5.73    0.81
   1  -1  12    4.30    0.71
   1  -1  12    4.83    0.70
   1   1  12    5.32    0.68
   1   1  12    5.13    0.83
  -1   1 -12    3.97    0.96
   1   1  12    3.84    0.61
   2  -1  12    7.13    0.91
   2  -1  12    7.17    0.85
  -2  -1 -12    7.46    1.26
   2   1  12    7.35    0.82
   2   1  12    5.83    0.93
  -2   1 -12    5.66    1.13
   2   1  12    5.03    0.72
   3  -1  12    1.42    0.47
  -3  -1 -12    1.01    0.76
   3  -1  12    0.34    0.45
   3   1  12    0.93    0.55
   3   1  12    0.47    0.35
   3   1  12    0.92    0.39
  -3   1 -12    1.96    0.83
   4  -1  12   -0.46    0.42
   4  -1  12    1.07    0.54
   4  -1  12    0.16    0.38
  -4  -1 -12    1.68    0.91
   4   1  12    0.66    0.40
   4   1  12    0.76    0.40
   4   1  12    1.28    0.63
  -4   1 -12   -0.06    0.63
  -5  -1 -12    3.50    1.12
   5  -1  12    2.98    0.63
   5  -1  12    2.92    0.83
   5  -1  12    2.33    0.66
  -5   1 -12    1.55    0.89
   5   1  12    1.90    0.74
   5   1  12    3.37    0.61
   5   1  12    2.16    0.59
   6  -1  12    4.75    1.01
  -6  -1 -12    4.19    1.27
   6  -1  12    3.94    0.86
   6  -1  12    4.10    0.74
  -6   1 -12    4.38    1.21
   6   1  12    2.15    0.81
   7  -1  12    0.17    0.62
   7  -1  12   -0.09    0.50
  -7  -1 -12    0.62    0.88
  -7   1 -12   -0.28    0.60
   7   1  12    0.79    0.63
 -12  -2  12    0.15    0.93
  12  -2 -12   -0.16    0.69
  12  -2 -12   -0.54    0.48
 -12  -2  12    0.05    0.34
 -12   2  12   -0.09    0.32
 -12   2  12   -1.61    0.89
  12   2 -12    1.07    1.10
 -11  -2  12    2.50    0.50
  11  -2 -12    2.57    1.01
 -11  -2  12    3.34    1.31
 -11   2  12    1.81    1.41
  11   2 -12    2.42    1.13
 -11   2  12    2.76    0.50
 -10  -2  12    4.66    1.44
 -10  -2  12    5.77    0.67
  10  -2 -12    6.78    1.30
 -10   2  12    5.43    0.65
 -10   2  12    3.38    1.63
  10   2 -12    5.98    1.52
  10   2 -12    6.41    0.94
  -9  -2  12    3.61    0.54
   9  -2 -12    3.36    0.94
  -9  -2  12    3.28    1.21
   9   2 -12    3.76    1.25
  -9   2  12    3.28    1.49
   9   2 -12    4.78    0.90
   8  -2 -12    3.39    0.95
  -8  -2  12    2.97    0.45
  -8  -2  12    3.82    0.51
  -8  -2  12    2.14    0.91
   8   2 -12    3.28    1.11
  -8   2  12    1.67    1.21
   8   2 -12    3.31    0.82
  -7  -2  12    2.77    0.42
  -7  -2  12    2.25    0.44
  -7  -2  12    2.48    0.99
   7  -2 -12    2.73    0.82
  -7   2  12    1.32    1.13
   7   2 -12    3.21    0.90
   7   2 -12    4.74    1.31
  -6  -2  12   11.04    0.93
  -6  -2  12   15.13    1.89
   6  -2 -12   12.13    1.43
  -6  -2  12   12.07    0.83
   6   2 -12   11.58    1.83
  -6   2  12    8.44    1.88
   6   2 -12   12.33    1.42
   5  -2 -12   -0.12    0.41
  -5  -2  12    0.81    0.33
  -5  -2  12   -0.08    0.19
  -5  -2  12    0.06    0.36
  -5  -2  12    0.17    0.55
   5   2 -12    0.49    0.78
  -5   2  12    1.09    0.98
   5   2 -12   -0.78    0.46
  -4  -2  12    1.30    0.26
  -4  -2  12    1.64    0.42
   4  -2 -12    1.15    0.50
  -4  -2  12    1.03    0.46
  -4  -2  12    1.51    0.70
  -4   2  12    1.14    0.80
   4   2 -12    1.00    0.84
   4   2 -12    0.43    0.57
  -3  -2  12    0.09    0.27
  -3  -2  12   -0.06    0.15
  -3  -2  12   -0.12    0.53
  -3  -2  12    0.44    0.34
   3   2 -12    0.58    0.56
   3   2 -12    1.47    0.85
  -3   2  12    0.48    0.65
  -2  -2  12    2.75    0.54
  -2  -2  12    3.16    0.85
  -2  -2  12    2.69    0.31
  -2  -2  12    2.47    0.58
   2  -2 -12    2.99    0.63
   2   2 -12    2.98    1.02
  -2   2  12    2.97    0.56
   2   2 -12    3.63    0.86
  -1  -2  12    3.26    0.65
  -1  -2  12    5.34    1.01
  -1  -2  12    5.52    0.73
   1  -2 -12    5.64    0.89
   1   2 -12    4.41    1.20
  -1   2  12    3.34    0.66
   1   2 -12    4.42    0.96
   0  -2  12    0.76    0.58
   0  -2  12    1.23    0.42
   0  -2  12    2.43    0.54
   0   2  12    2.24    0.49
   0   2  12    2.06    0.55
   0   2 -12    1.00    0.82
   0   2 -12    0.98    0.67
   1  -2  12   20.35    1.52
   1  -2  12   19.13    1.64
   1  -2  12   17.82    1.41
   1   2  12   18.94    1.57
   1   2  12   18.19    1.37
  -1   2 -12   20.25    1.83
  -1   2 -12   22.89    2.43
   1   2  12   18.99    1.30
   2  -2  12    1.42    0.50
   2  -2  12    0.94    0.60
   2  -2  12    1.52    0.55
  -2   2 -12   -0.23    0.62
   2   2  12    1.40    0.45
   2   2  12    1.36    0.57
  -2   2 -12    1.19    0.42
   3  -2  12    0.63    0.50
   3  -2  12   -0.03    0.37
   3   2  12    1.09    0.41
   3   2  12    0.34    0.60
  -3   2 -12    0.53    0.58
   4  -2  12    0.12    0.41
   4  -2  12    0.81    0.51
   4   2  12   -0.11    0.30
  -4   2 -12   -0.03    0.51
   4   2  12   -0.25    0.55
   5  -2  12    5.81    1.02
   5  -2  12    5.19    0.87
   5   2  12    5.10    1.05
  -5   2 -12    8.86    1.56
   6  -2  12    4.23    0.91
   6  -2  12    5.26    0.89
   6   2  12    4.66    1.05
  -6   2 -12    3.52    1.16
 -11  -3  12    0.51    0.86
 -11  -3  12   -0.36    0.29
  11  -3 -12   -0.26    0.48
  11  -3 -12   -0.05    0.84
  11   3 -12    1.12    0.51
  11   3 -12   -0.38    1.09
  10  -3 -12    0.91    0.86
  10  -3 -12   -0.23    0.50
 -10  -3  12    1.25    1.04
 -10  -3  12    0.19    0.32
  10   3 -12    0.31    0.95
 -10   3  12   -1.61    0.88
  10   3 -12    0.71    0.52
   9  -3 -12    0.28    0.69
  -9  -3  12   -0.40    0.63
  -9  -3  12   -0.27    0.28
   9   3 -12   -0.04    0.54
  -9   3  12   -0.24    0.95
   9   3 -12   -0.64    1.52
   8  -3 -12    0.99    0.69
  -8  -3  12    1.38    0.41
  -8  -3  12    1.11    0.88
   8   3 -12   -0.62    0.89
   8   3 -12    0.55    0.80
  -7  -3  12    2.72    1.05
  -7  -3  12    2.53    0.46
   7  -3 -12    1.78    0.82
  -7  -3  12    2.12    0.47
   7   3 -12    1.05    1.03
   7   3 -12    1.38    0.88
  -6  -3  12    0.94    0.34
  -6  -3  12    0.27    0.66
   6  -3 -12    1.66    0.73
  -6  -3  12    0.39    0.29
   6   3 -12    0.50    0.92
   6   3 -12   -0.25    0.75
  -5  -3  12    0.73    0.39
  -5  -3  12    1.37    0.35
  -5  -3  12    1.98    0.84
   5  -3 -12    0.96    0.64
  -5  -3  12    0.34    0.40
   5   3 -12    0.56    1.05
   5   3 -12    2.00    0.85
  -4  -3  12    0.56    0.35
  -4  -3  12    0.62    0.40
  -4  -3  12    0.44    0.62
  -4  -3  12    0.05    0.24
   4   3 -12   -0.25    0.57
   4   3 -12   -0.10    0.91
  -3  -3  12    4.46    0.76
  -3  -3  12    4.86    1.14
  -3  -3  12    5.49    0.79
  -3  -3  12    6.10    0.61
   3   3 -12    4.27    1.46
   3   3 -12    6.28    1.14
  -2  -3  12   -0.13    0.32
  -2  -3  12    0.64    0.27
  -2  -3  12    0.53    0.44
  -2  -3  12    1.26    0.70
   2   3 -12   -0.16    0.59
   2   3 -12    0.28    0.97
  -1  -3  12    1.33    0.49
  -1  -3  12    0.95    0.28
  -1  -3  12    0.69    0.63
  -1  -3  12    1.04    0.47
  -1   3  12    0.65    0.44
   1   3 -12   -0.16    0.85
   1   3 -12    0.92    0.70
   0  -3  12   -0.37    0.58
   0  -3  12    0.29    0.40
   0  -3  12   -0.13    0.38
   0   3  12    0.28    0.39
   0   3 -12   -1.83    0.81
   0   3 -12    1.12    0.70
   1  -3  12    4.22    0.77
   1  -3  12    3.95    0.77
   1  -3  12    3.85    0.97
  -1   3 -12    3.09    0.99
  -1   3 -12    5.21    1.57
   1   3  12    4.07    0.78
   2  -3  12    5.70    0.94
   2  -3  12    5.30    0.87
   2  -3  12    6.56    1.25
  -2   3 -12    6.01    1.27
   2   3  12    6.93    1.02
   3  -3  12    7.35    1.06
   3  -3  12    8.40    1.17
  -3   3 -12    9.12    1.55
   3   3  12    8.65    1.20
   4  -3  12    0.40    0.50
   4  -3  12    0.62    0.47
  -4   3 -12   -0.30    0.76
   4   3  12    1.04    0.66
   5  -3  12    2.01    0.71
   5  -3  12    2.39    0.79
  -5   3 -12    1.30    0.89
   5   3  12    0.74    0.71
   9  -4 -12    1.22    0.99
  -9  -4  12    1.85    1.05
  -9  -4  12    0.93    0.48
   9  -4 -12    2.39    0.77
   9   4 -12    0.52    1.21
   9   4 -12    3.66    0.96
   8  -4 -12    1.20    0.58
   8  -4 -12    1.39    0.91
  -8  -4  12    1.56    0.47
  -8  -4  12    0.03    0.73
   8   4 -12    2.59    0.97
   8   4 -12    1.63    1.26
  -7  -4  12   -0.37    0.65
   7  -4 -12    0.41    0.41
   7  -4 -12    0.08    0.74
  -7  -4  12    0.08    0.33
   7   4 -12   -1.01    0.73
   7   4 -12    1.57    1.43
  -6  -4  12   -0.47    0.26
  -6  -4  12   -0.17    0.33
  -6  -4  12    0.10    0.68
   6   4 -12    1.14    1.33
   6   4 -12   -1.42    0.72
  -5  -4  12    1.48    0.48
  -5  -4  12    2.84    1.08
  -5  -4  12    1.97    0.47
  -5  -4  12    1.58    0.52
   5   4 -12    1.13    0.96
   5   4 -12    1.42    1.30
  -4  -4  12    0.31    0.40
  -4  -4  12    1.08    0.84
  -4  -4  12    0.72    0.49
  -4  -4  12    0.09    0.33
   4   4 -12   -0.50    0.72
   4   4 -12    3.04    1.46
  -3  -4  12   -0.76    0.33
  -3  -4  12    0.45    0.42
  -3  -4  12    0.35    0.35
  -3  -4  12    0.95    0.81
   3   4 -12   -0.38    0.50
   3   4 -12    0.35    1.04
  -2  -4  12    3.85    1.20
  -2  -4  12    3.27    0.53
  -2  -4  12    2.38    0.62
  -2  -4  12    2.47    0.64
   2   4 -12    3.05    1.54
   2   4 -12    2.81    1.00
  -1  -4  12    1.36    0.55
  -1  -4  12    0.14    0.76
  -1  -4  12    0.09    0.30
  -1  -4  12    1.31    0.57
   1   4 -12    1.13    1.32
   1   4 -12    0.31    0.70
   0  -4  12   -0.04    0.41
   0  -4  12    0.35    0.73
   0  -4  12    1.71    0.62
   0   4 -12    0.54    0.81
   0   4 -12    2.93    1.48
   1  -4  12   -0.61    0.45
   1  -4  12   -0.24    0.39
   1  -4  12   -0.34    0.61
   1   4  12   -0.01    0.69
  -1   4 -12    0.18    0.77
  -1   4 -12    0.51    1.36
   2  -4  12    0.23    0.57
   2  -4  12    0.23    0.49
   2  -4  12    0.02    0.70
   2   4  12    0.72    0.54
  -2   4 -12   -0.06    0.70
   3  -4  12    8.93    1.64
   3  -4  12    8.98    1.29
   3  -4  12    9.05    1.25
   3   4  12    7.99    1.23
  -3   4 -12    9.20    1.66
  -5  -5  12    0.15    0.41
  -5  -5  12   -1.21    0.34
  -5  -5  12    0.35    0.91
   5   5 -12   -0.81    1.01
   5   5 -12    2.08    1.71
  -4  -5  12    0.96    0.95
  -4  -5  12    1.56    0.64
  -4  -5  12    0.53    0.45
   4   5 -12   -0.63    1.36
   4   5 -12    0.53    1.13
  -3  -5  12    0.01    0.53
  -3  -5  12    0.39    0.85
  -3  -5  12   -0.71    0.36
  -3  -5  12   -0.16    0.41
   3   5 -12   -1.82    0.75
   3   5 -12   -0.03    1.17
  -2  -5  12   -0.42    0.42
  -2  -5  12    0.35    0.86
  -2  -5  12    0.43    0.54
  -2  -5  12   -0.04    0.38
   2   5 -12    0.59    0.98
   2   5 -12   -0.60    1.22
  -1  -5  12   -0.25    0.75
  -1  -5  12    0.37    0.44
  -1  -5  12   -0.45    0.42
  -1  -5  12    0.49    0.49
   1   5 -12   -0.49    0.93
   1   5 -12    0.57    1.64
 -12   0  13    0.74    1.09
  12   0 -13   -0.61    0.67
 -12   0  13   -0.02    0.29
 -11   0  13   -0.03    0.90
  11   0 -13    0.00    0.73
 -11   0  13   -0.06    0.26
 -10   0  13    0.25    0.26
 -10   0  13   -0.21    0.85
  10   0 -13    0.33    0.66
  -9   0  13    2.55    0.38
   9   0 -13    2.37    0.86
  -9   0  13    0.16    0.86
   8   0 -13    0.57    0.61
  -8   0  13   -0.21    0.20
  -8   0  13    0.07    0.19
  -8   0  13    0.21    0.78
   7   0 -13   36.86    2.61
  -7   0  13   35.84    2.05
  -7   0  13   30.84    2.95
  -7   0  13   35.30    2.09
  -6   0  13   -0.03    0.26
  -6   0  13   -0.01    0.68
   6   0 -13    0.83    0.62
   5   0 -13    0.99    0.41
  -5   0  13    0.64    0.77
   5   0 -13    1.52    0.61
  -5   0  13    1.09    0.35
  -4   0  13    0.16    0.59
  -4   0  13   -0.28    0.23
   4   0 -13    0.29    0.45
   4   0 -13   -0.03    0.34
  -3   0  13    1.79    0.42
  -3   0  13    1.66    0.48
  -3   0  13    1.20    0.65
   3   0 -13    0.91    0.45
   3   0 -13    1.49    0.51
  -2   0  13    0.10    0.35
  -2   0  13    0.36    0.47
  -2   0  13   -0.10    0.26
   2   0 -13    0.18    0.40
  -1   0  13    0.88    0.38
  -1   0  13    0.52    0.46
  -1   0  13    0.89    0.39
   1   0 -13    0.96    0.55
   0   0 -13    2.21    0.72
   0   0  13    1.86    0.46
   0   0  13    2.57    0.53
   1   0  13    4.57    0.70
  -1   0 -13    7.46    1.22
   1   0  13    4.95    0.88
   1   0  13    6.14    0.81
   2   0  13    0.10    0.38
   2   0  13    0.12    0.35
   2   0  13   -0.52    0.42
  -2   0 -13   -0.53    0.58
   3   0  13    7.81    0.97
  -3   0 -13    7.47    1.40
   3   0  13   10.27    1.03
   3   0  13    8.24    1.18
   4   0  13   -0.06    0.48
   4   0  13   -0.30    0.31
  -4   0 -13    0.58    0.75
   4   0  13   -0.04    0.37
   5   0  13    2.50    0.81
   5   0  13    2.35    0.57
  -5   0 -13    0.53    0.75
   5   0  13    0.82    0.58
   6   0  13   -0.47    0.57
   6   0  13   -0.71    0.40
  -6   0 -13    0.47    0.84
  12  -1 -13   -0.05    0.72
 -12  -1  13    0.48    0.34
 -12  -1  13   -0.75    0.73
 -12   1  13   -0.33    0.98
  12   1 -13   -0.23    0.73
 -12   1  13   -0.56    0.29
 -11  -1  13    3.52    1.41
 -11  -1  13    4.86    0.60
  11  -1 -13    5.48    1.24
 -11   1  13    1.65    1.26
  11   1 -13    4.84    1.31
 -11   1  13    4.92    0.61
 -10  -1  13    1.18    0.87
  10  -1 -13    1.74    0.87
 -10  -1  13    0.86    0.31
 -10   1  13    0.66    0.31
  10   1 -13    1.79    0.93
 -10   1  13    0.78    1.07
  -9  -1  13   -0.06    0.22
  -9  -1  13   -0.51    0.67
   9  -1 -13    0.48    0.69
   9   1 -13    0.85    0.79
  -9   1  13    0.26    0.88
  -8  -1  13    3.82    0.53
   8  -1 -13    2.87    0.86
  -8  -1  13    2.45    1.06
  -8  -1  13    3.89    0.46
   8   1 -13    5.52    1.19
  -8   1  13    2.51    1.21
  -7  -1  13    0.31    0.25
  -7  -1  13    0.41    0.70
  -7  -1  13    0.01    0.18
   7  -1 -13    0.20    0.48
   7   1 -13   -0.69    0.66
   7   1 -13   -0.96    0.44
  -7   1  13   -0.31    0.74
  -6  -1  13   46.87    2.51
  -6  -1  13   50.93    3.55
  -6  -1  13   47.65    2.72
   6  -1 -13   49.41    3.10
  -6   1  13   39.89    3.62
   6   1 -13   49.59    2.94
  -5  -1  13    1.62    0.41
  -5  -1  13    1.48    0.78
   5  -1 -13    0.99    0.52
   5   1 -13    1.00    0.71
  -5   1  13    1.21    0.38
   5   1 -13    1.07    0.52
  -5   1  13    0.43    0.79
  -4  -1  13    3.19    0.60
   4  -1 -13    4.16    0.70
  -4  -1  13    3.75    0.56
  -4  -1  13    3.84    0.94
  -4   1  13    2.03    0.93
   4   1 -13    3.34    0.85
   4   1 -13    4.90    0.86
  -4   1  13    2.40    0.48
  -3  -1  13   -0.22    0.32
  -3  -1  13    0.59    0.53
  -3  -1  13    0.27    0.25
   3  -1 -13    0.69    0.40
   3   1 -13    0.37    0.45
   3   1 -13   -0.65    0.52
  -3   1  13    0.16    0.62
  -3   1  13   -0.26    0.22
  -2  -1  13    8.29    1.17
  -2  -1  13    7.55    0.91
  -2  -1  13    7.28    0.84
   2  -1 -13    9.41    1.05
  -2   1  13    8.23    0.87
   2   1 -13    9.42    1.17
  -2   1  13    4.12    0.99
   2   1 -13    8.88    1.23
  -1  -1  13   -0.22    0.24
  -1  -1  13    0.06    0.43
   1  -1 -13    0.47    0.49
  -1  -1  13   -0.28    0.20
  -1   1  13    0.32    0.31
  -1   1  13    0.71    0.37
  -1   1  13    0.67    0.42
   1   1 -13    0.10    0.49
   0  -1  13   56.05    3.45
   0  -1  13   61.15    3.54
   0  -1 -13   62.60    3.79
   0  -1  13   65.56    3.66
   0   1  13   55.82    3.41
   0   1 -13   65.69    3.92
   0   1  13   59.28    3.42
   0   1  13   60.72    3.60
  -1  -1 -13   14.21    1.66
   1  -1  13   11.11    1.13
   1  -1  13   11.24    1.16
   1   1  13   11.68    1.00
   1   1  13   10.69    1.09
  -1   1 -13   11.48    1.53
   1   1  13   12.07    1.34
   2  -1  13    0.77    0.48
   2  -1  13    1.86    0.51
  -2  -1 -13    2.64    0.88
   2   1  13    1.32    0.45
   2   1  13    1.91    0.53
  -2   1 -13    2.27    0.84
   2   1  13    1.31    0.61
   3  -1  13   -0.46    0.30
  -3  -1 -13    1.02    0.78
   3  -1  13    0.28    0.44
   3   1  13    0.31    0.36
   3   1  13    0.03    0.37
  -3   1 -13    0.37    0.70
   3   1  13    0.41    0.53
  -4  -1 -13    5.39    1.32
   4  -1  13    4.75    0.80
   4  -1  13    5.17    0.89
   4   1  13    5.89    0.81
   4   1  13    4.21    0.70
   4   1  13    5.64    1.05
  -4   1 -13    4.54    1.20
   5  -1  13    6.50    0.95
  -5  -1 -13    9.29    1.72
   5  -1  13    9.84    1.37
   5  -1  13    9.07    1.17
   5   1  13    7.06    0.90
   5   1  13    8.59    1.32
  -5   1 -13   10.43    1.70
   6  -1  13    0.34    0.60
   6  -1  13    0.03    0.50
  -6  -1 -13    1.49    0.90
   6  -1  13   -0.28    0.53
  -6   1 -13   -0.95    0.67
   6   1  13    0.68    0.70
 -11  -2  13    0.39    0.31
  11  -2 -13    2.84    1.14
 -11  -2  13    0.21    0.87
 -11   2  13    0.33    1.14
  11   2 -13   -0.67    0.73
 -10  -2  13    0.93    0.38
  10  -2 -13    1.03    0.79
 -10  -2  13    2.74    1.22
  10   2 -13    1.18    1.00
 -10   2  13   -0.16    1.10
  -9  -2  13    0.30    0.28
  -9  -2  13    1.03    0.90
   9  -2 -13    0.38    0.64
   9   2 -13    2.05    1.09
   9   2 -13    1.95    0.66
  -9   2  13   -0.10    1.08
   8  -2 -13   -0.60    0.49
  -8  -2  13    0.09    0.21
  -8  -2  13   -0.37    0.21
  -8  -2  13   -0.51    0.63
   8   2 -13    0.39    0.80
  -8   2  13    1.02    1.11
   8   2 -13    0.69    0.62
  -7  -2  13    2.25    0.39
   7  -2 -13    1.30    0.69
  -7  -2  13    2.15    0.96
  -7  -2  13    2.58    0.47
   7   2 -13    2.93    0.87
  -7   2  13    1.60    1.20
   7   2 -13    3.33    1.13
  -6  -2  13    0.70    0.26
  -6  -2  13    0.80    0.41
  -6  -2  13    1.60    0.83
   6  -2 -13    1.83    0.66
   6   2 -13   -0.42    0.55
   6   2 -13    1.23    0.94
  -6   2  13    0.13    0.87
  -5  -2  13    0.59    0.42
  -5  -2  13    0.12    0.19
   5  -2 -13    0.75    0.86
  -5  -2  13    1.03    0.75
  -5  -2  13    0.36    0.37
  -5   2  13    0.42    0.80
   5   2 -13    2.56    0.98
   5   2 -13   -0.39    0.51
  -4  -2  13   19.13    1.79
  -4  -2  13   17.56    1.27
  -4  -2  13   17.59    1.35
  -4  -2  13   15.33    0.98
  -4   2  13   11.34    1.95
   4   2 -13   17.13    1.59
   4   2 -13   19.51    2.28
  -3  -2  13    0.13    0.37
  -3  -2  13    0.54    0.35
  -3  -2  13    0.08    0.55
  -3   2  13    0.63    0.79
   3   2 -13   -1.05    0.66
   3   2 -13   -0.02    0.54
   2  -2 -13   11.28    1.33
  -2  -2  13   10.99    1.13
  -2  -2  13   13.28    1.60
  -2  -2  13   10.60    1.17
   2   2 -13   11.07    1.73
   2   2 -13   12.66    1.53
  -2   2  13   10.95    0.99
  -1  -2  13   17.02    1.40
  -1  -2  13   19.34    1.50
   1  -2 -13   23.25    1.68
  -1  -2  13   19.30    1.71
   1   2 -13   18.27    2.22
   1   2 -13   21.25    1.84
  -1   2  13   18.07    1.38
  -1   2  13   18.06    1.48
   0  -2  13    1.24    0.46
   0  -2  13    0.63    0.38
   0  -2  13    0.47    0.58
   0  -2 -13    1.01    0.56
   0   2  13    0.75    0.38
   0   2  13    1.26    0.53
   0   2 -13    0.36    0.59
   1  -2  13    8.21    1.17
  -1  -2 -13    5.77    1.17
   1  -2  13    4.67    0.84
   1  -2  13    7.77    0.95
   1   2  13    6.18    0.81
  -1   2 -13    7.89    1.33
   1   2  13    7.10    0.99
   2  -2  13    2.19    0.59
   2  -2  13    1.58    0.60
   2   2  13    2.65    0.56
   2   2  13    1.09    0.59
  -2   2 -13    2.78    0.96
   3  -2  13    1.04    0.53
   3  -2  13    3.20    0.74
   3   2  13    2.01    0.73
   3   2  13    1.89    0.52
  -3   2 -13    1.73    0.89
   4  -2  13    7.26    1.10
   4  -2  13    5.50    0.90
   4   2  13    7.13    0.90
  -4   2 -13    7.62    1.53
   4   2  13    7.21    1.18
   5  -2  13    0.49    0.56
   5  -2  13    0.33    0.49
  -5   2 -13   -1.36    0.69
   5   2  13   -0.37    0.53
   6  -2  13   -0.11    0.45
   6  -2  13    0.76    0.64
   6   2  13    1.16    0.76
  -6   2 -13   -0.72    0.75
  10  -3 -13   -1.24    0.54
 -10  -3  13    0.01    0.32
 -10  -3  13   -0.32    0.78
  10   3 -13   -0.44    0.84
 -10   3  13    0.87    1.36
  10   3 -13    1.32    0.60
  -9  -3  13    1.60    0.44
   9  -3 -13    2.54    0.98
  -9  -3  13    3.52    1.12
   9   3 -13    3.80    0.91
   9   3 -13    3.23    1.34
  -9   3  13    0.44    1.27
   8  -3 -13    0.39    0.63
  -8  -3  13    0.39    0.32
  -8  -3  13    0.78    0.85
   8   3 -13   -0.13    0.74
   8   3 -13    0.95    1.14
  -7  -3  13    3.69    0.54
  -7  -3  13    3.05    1.13
  -7  -3  13    3.75    0.60
   7  -3 -13    3.52    0.96
   7   3 -13    3.28    1.14
   7   3 -13    3.36    1.38
  -6  -3  13    2.11    0.41
  -6  -3  13    1.74    0.47
  -6  -3  13    1.04    0.80
   6   3 -13    0.23    0.85
   6   3 -13    2.13    1.15
  -5  -3  13    2.00    0.51
  -5  -3  13    0.96    0.33
  -5  -3  13    1.42    0.53
  -5  -3  13    0.60    0.73
   5   3 -13    1.48    1.18
   5   3 -13    1.36    0.84
  -4  -3  13    0.26    0.38
  -4  -3  13    0.61    0.44
  -4  -3  13   -0.50    0.20
  -4  -3  13   -0.26    0.55
   4   3 -13    0.55    0.69
   4   3 -13    0.21    0.97
  -3  -3  13    0.75    0.40
  -3  -3  13    0.39    0.68
  -3  -3  13    0.11    0.38
  -3  -3  13    0.46    0.25
   3   3 -13   -0.05    0.60
   3   3 -13   -0.42    0.97
  -2  -3  13    8.21    1.02
  -2  -3  13    9.25    1.52
  -2  -3  13    8.26    1.02
   2   3 -13    7.40    1.36
   2   3 -13    7.18    1.68
  -1  -3  13    0.33    0.42
  -1  -3  13    0.29    0.59
  -1  -3  13    0.69    0.47
   1   3 -13    1.37    0.78
   1   3 -13    1.11    0.98
  -1   3  13    1.00    0.50
   0  -3  13   10.57    1.17
   0  -3  13    9.58    1.48
   0  -3  13   10.42    1.19
   0   3 -13    8.22    1.40
   0   3 -13    9.32    1.99
   0   3  13    8.49    1.11
   1  -3  13    0.27    0.58
   1  -3  13    0.71    0.48
   1  -3  13    0.15    0.44
  -1   3 -13   -0.18    0.69
   1   3  13    0.33    0.47
   2  -3  13    1.44    0.57
   2  -3  13    0.29    0.51
   2   3  13    0.84    0.56
  -2   3 -13   -0.18    0.70
   3  -3  13    1.00    0.57
   3  -3  13    1.10    0.59
  -3   3 -13    1.45    0.91
   3   3  13    1.55    0.79
   4  -3  13   -0.18    0.55
   4  -3  13   -0.20    0.48
   4   3  13   -0.97    0.43
  -4   3 -13   -0.58    0.74
  -8  -4  13    0.05    0.83
   8  -4 -13    0.54    0.55
  -8  -4  13    0.72    0.39
   8   4 -13   -0.38    0.81
   8   4 -13    0.91    1.12
  -7  -4  13   13.58    1.13
  -7  -4  13   13.88    2.21
   7   4 -13   18.09    2.87
   7   4 -13   15.44    2.07
  -6  -4  13    1.47    0.45
  -6  -4  13    3.13    0.62
  -6  -4  13    3.73    1.25
   6   4 -13    6.18    1.92
   6   4 -13    4.34    1.31
  -5  -4  13    0.29    0.79
  -5  -4  13    0.52    0.42
  -5  -4  13    0.48    0.36
  -5  -4  13   -0.28    0.34
   5   4 -13    1.63    1.45
   5   4 -13   -1.25    0.81
  -4  -4  13   12.02    1.92
  -4  -4  13   10.86    1.24
  -4  -4  13   11.59    1.25
  -4  -4  13   12.20    0.99
   4   4 -13   11.77    2.39
   4   4 -13   13.49    1.88
  -3  -4  13    1.67    0.97
  -3  -4  13    1.27    0.40
  -3  -4  13    1.74    0.60
  -3  -4  13    2.31    0.59
   3   4 -13    1.66    1.40
   3   4 -13    0.97    0.87
  -2  -4  13    5.13    0.86
  -2  -4  13    2.88    0.71
  -2  -4  13    4.88    1.30
   2   4 -13    4.77    1.73
   2   4 -13    3.62    1.14
  -1  -4  13    0.15    0.81
  -1  -4  13    0.60    0.50
  -1  -4  13   -1.22    0.37
   1   4 -13    0.67    1.27
   1   4 -13   -0.65    0.60
   0  -4  13    2.58    0.71
   0  -4  13    5.20    0.94
   0  -4  13    3.51    1.13
   0   4 -13    3.51    1.16
   0   4 -13    1.26    1.37
   1  -4  13   12.19    1.87
   1  -4  13   10.12    1.36
   1  -4  13   13.36    1.47
  -1   4 -13   10.85    2.46
  -1   4 -13   10.53    1.84
   2  -4  13   -0.13    0.78
   2  -4  13    0.28    0.53
   2  -4  13    1.60    0.64
  -2   4 -13   -0.12    0.79
   2   4  13    0.12    0.53
 -12   0  14    2.25    0.46
 -12   0  14    1.79    1.31
  12   0 -14    1.60    1.02
 -11   0  14   -0.25    0.93
  11   0 -14   -0.79    0.59
 -11   0  14   -0.34    0.28
 -10   0  14    2.40    1.29
  10   0 -14    4.96    1.19
  -9   0  14   -1.11    0.70
   9   0 -14    0.23    0.63
  -8   0  14    1.70    1.05
   8   0 -14    2.00    0.77
  -8   0  14    2.09    0.43
  -7   0  14   -0.22    0.67
   7   0 -14    0.07    0.52
  -7   0  14    0.08    0.25
   6   0 -14    0.02    0.51
  -6   0  14    0.26    0.71
  -6   0  14    0.12    0.28
   5   0 -14   -0.17    0.49
   5   0 -14   -0.48    0.32
  -5   0  14   -0.16    0.59
  -5   0  14    0.33    0.32
  -4   0  14   -0.18    0.25
   4   0 -14   -0.27    0.42
  -4   0  14   -0.19    0.60
   4   0 -14    0.38    0.41
   3   0 -14   -0.46    0.31
  -3   0  14   -0.35    0.32
  -3   0  14   -0.58    0.24
  -3   0  14    0.58    0.63
  -2   0  14    1.46    0.43
  -2   0  14    0.96    0.61
  -2   0  14    0.60    0.41
   2   0 -14    0.87    0.52
  -1   0  14   -0.26    0.34
   1   0 -14    0.40    0.51
  -1   0  14    0.15    0.32
   0   0 -14    8.61    1.25
   0   0  14    8.06    0.94
   0   0  14    7.61    0.91
   1   0  14    0.02    0.33
   1   0  14    0.07    0.37
  -1   0 -14   -0.31    0.55
   2   0  14    7.59    0.92
   2   0  14    7.31    0.98
   2   0  14    8.05    1.17
  -2   0 -14    7.02    1.30
   3   0  14   -0.35    0.36
  -3   0 -14   -0.67    0.67
   3   0  14    0.45    0.41
   3   0  14   -0.18    0.46
  -4   0 -14    2.93    1.09
   4   0  14    2.77    0.68
   4   0  14    1.07    0.70
   4   0  14    3.90    0.71
  -5   0 -14   -0.32    0.71
   5   0  14   -0.14    0.54
   5   0  14    0.59    0.42
   5   0  14   -0.26    0.40
  -6   0 -14   13.10    2.12
   6   0  14   12.08    1.66
   6   0  14   11.05    1.29
 -12  -1  14    0.41    1.03
 -12  -1  14    0.31    0.36
  12  -1 -14   -0.33    0.69
 -12   1  14   -0.58    1.12
  12   1 -14    0.23    0.81
 -11  -1  14    3.84    1.50
  11  -1 -14    2.73    1.08
 -11  -1  14    4.39    0.57
  11   1 -14    4.40    1.24
 -11   1  14    1.57    1.33
 -10  -1  14    7.15    1.76
 -10  -1  14    6.39    0.66
  10  -1 -14    6.34    1.36
  10   1 -14    6.90    1.49
 -10   1  14    5.70    1.82
  -9  -1  14    0.81    0.88
  -9  -1  14    0.57    0.27
   9  -1 -14   -0.69    0.58
  -9  -1  14   -0.13    0.21
   9   1 -14    0.30    0.80
  -9   1  14    0.91    0.97
   8  -1 -14    8.40    1.27
  -8  -1  14    5.56    1.44
  -8  -1  14    6.07    0.62
  -8  -1  14    6.52    0.72
   8   1 -14    7.26    1.40
  -8   1  14    5.43    1.64
   7  -1 -14   -0.10    0.46
  -7  -1  14    0.56    0.31
  -7  -1  14    0.60    0.76
   7   1 -14    0.88    0.80
   7   1 -14   -0.54    0.52
  -7   1  14    0.64    0.92
   6  -1 -14    1.47    0.62
  -6  -1  14    1.71    0.90
  -6  -1  14    1.41    0.40
   6   1 -14    0.19    0.67
   6   1 -14   -0.15    0.52
  -6   1  14    0.19    0.31
  -6   1  14    0.76    0.93
  -5  -1  14   19.59    1.92
  -5  -1  14   18.33    1.26
  -5   1  14   12.12    2.04
  -5   1  14   14.28    1.19
   5   1 -14   16.92    1.48
   5   1 -14   18.33    1.98
  -4  -1  14    0.23    0.37
  -4  -1  14    0.03    0.57
  -4  -1  14    0.51    0.34
   4   1 -14   -0.39    0.45
  -4   1  14    0.49    0.32
   4   1 -14   -0.24    0.53
  -4   1  14    0.63    0.78
  -3  -1  14    3.65    0.64
   3  -1 -14    4.98    0.79
  -3  -1  14    6.04    0.81
  -3  -1  14    5.79    1.10
  -3   1  14    5.18    0.71
  -3   1  14    3.38    0.97
   3   1 -14    6.08    0.98
   3   1 -14    7.23    1.13
  -2  -1  14    4.60    0.75
  -2  -1  14    4.07    0.89
  -2  -1  14    4.33    0.67
   2  -1 -14    4.76    0.83
   2   1 -14    5.20    1.00
  -2   1  14    3.74    0.63
  -1  -1  14    0.74    0.52
  -1  -1  14    0.37    0.36
  -1  -1  14   -0.03    0.41
   1  -1 -14    0.79    0.55
  -1   1  14    0.07    0.31
   1   1 -14    1.39    0.66
  -1   1  14    0.08    0.39
   0  -1  14    5.23    0.77
   0  -1 -14    7.39    1.14
   0  -1  14    5.81    0.86
   0   1  14    4.56    0.72
   0   1  14    7.16    0.83
   0   1 -14    6.22    1.15
   0   1  14    6.25    0.95
   1  -1  14    6.90    0.90
  -1  -1 -14    8.40    1.31
   1  -1  14    5.52    0.88
   1   1  14    4.52    0.88
   1   1  14    5.19    0.77
  -1   1 -14    5.69    1.19
   1   1  14    6.36    0.82
  -2  -1 -14    0.34    0.74
   2  -1  14    0.31    0.37
   2  -1  14    1.26    0.51
   2   1  14   -0.22    0.48
   2   1  14    0.58    0.44
   2   1  14    0.16    0.36
  -2   1 -14    0.25    0.69
   3  -1  14    1.29    0.56
  -3  -1 -14    1.19    0.85
   3  -1  14    0.88    0.51
   3   1  14    1.11    0.45
  -3   1 -14    2.26    0.96
   3   1  14    0.36    0.40
   3   1  14    0.09    0.55
   4  -1  14    1.37    0.60
  -4  -1 -14   -0.21    0.64
   4  -1  14    0.27    0.44
   4   1  14   -0.07    0.53
  -4   1 -14    0.85    0.86
   4   1  14   -0.05    0.36
   5  -1  14    0.59    0.53
  -5  -1 -14    0.85    0.85
   5  -1  14   -0.12    0.48
  -5   1 -14   -0.32    0.76
   5   1  14   -0.67    0.49
 -11  -2  14   -0.24    0.30
  11  -2 -14    0.49    0.75
 -11  -2  14    0.42    1.00
  11   2 -14   -0.17    0.84
 -11   2  14    1.03    1.35
 -10  -2  14    0.98    0.35
  10  -2 -14    0.24    0.65
 -10  -2  14    2.43    1.25
  10   2 -14    0.26    0.87
 -10   2  14   -0.08    1.21
  -9  -2  14    1.09    0.35
  -9  -2  14    2.68    1.19
   9  -2 -14    1.01    0.72
   9   2 -14    1.96    1.18
   9   2 -14    0.52    0.66
  -9   2  14    1.36    1.37
  -8  -2  14    0.75    0.30
  -8  -2  14    0.67    0.87
   8  -2 -14    0.36    0.57
  -8  -2  14    1.09    0.37
   8   2 -14    1.43    1.01
  -8   2  14    0.97    1.18
   8   2 -14    0.86    0.76
  -7  -2  14   15.41    1.15
  -7  -2  14   18.33    2.34
  -7  -2  14   13.54    0.96
   7  -2 -14   15.83    1.72
   7   2 -14   16.45    1.75
  -7   2  14    9.23    2.06
  -6  -2  14   16.51    2.12
  -6  -2  14   15.77    1.18
   6   2 -14   18.58    2.35
   6   2 -14   15.41    1.68
  -6   2  14    9.18    1.97
  -5  -2  14    9.76    1.56
  -5  -2  14    6.37    0.92
  -5  -2  14    8.11    0.91
   5   2 -14    9.16    1.68
  -5   2  14    4.94    1.44
   5   2 -14    9.17    1.27
  -4  -2  14   -0.15    0.28
  -4  -2  14    0.57    0.67
  -4  -2  14    0.26    0.38
   4   2 -14   -0.38    0.51
  -4   2  14    0.03    0.74
   4   2 -14    0.79    0.83
  -3  -2  14    0.76    0.71
  -3  -2  14   -0.16    0.31
  -3  -2  14    0.63    0.43
   3   2 -14   -0.64    0.53
   3   2 -14    0.07    0.82
  -2  -2  14    2.74    0.66
  -2  -2  14    3.49    0.96
  -2  -2  14    3.41    0.63
   2   2 -14    3.65    0.95
   2   2 -14    2.46    1.02
   1  -2 -14   -0.51    0.43
  -1  -2  14    0.01    0.54
  -1  -2  14   -0.58    0.34
  -1  -2  14    0.57    0.40
  -1   2  14    0.25    0.42
   1   2 -14   -0.16    0.62
  -1   2  14   -0.35    0.32
   0  -2  14   40.83    2.75
   0  -2 -14   42.18    2.79
   0  -2  14   39.76    2.47
   0  -2  14   36.28    2.50
   0   2 -14   40.06    2.91
   0   2  14   36.22    2.38
   0   2  14   34.08    2.48
  -1  -2 -14    0.47    0.58
   1  -2  14   -0.66    0.33
   1  -2  14    0.25    0.39
   1   2  14    0.24    0.48
   1   2  14    0.13    0.35
  -1   2 -14   -0.64    0.53
  -2  -2 -14    0.89    0.72
   2  -2  14    0.89    0.48
   2  -2  14    0.66    0.51
  -2   2 -14    1.07    0.86
   2   2  14   -0.33    0.58
   2   2  14    0.76    0.43
  -3  -2 -14   -0.08    0.69
   3  -2  14    0.19    0.49
   3  -2  14   -0.16    0.44
  -3   2 -14   -0.52    0.64
   3   2  14    0.40    0.44
   3   2  14   -0.05    0.50
  -4  -2 -14    0.60    0.76
   4  -2  14    0.91    0.57
   4  -2  14    0.64    0.48
  -4   2 -14    0.91    0.88
   4   2  14   -0.45    0.56
   5  -2  14    0.93    0.54
   5  -2  14    2.54    0.83
  -5  -2 -14    2.39    1.06
   5   2  14    2.42    0.87
  -5   2 -14    1.03    0.99
 -10  -3  14   -0.14    0.32
 -10  -3  14   -0.68    0.75
  10  -3 -14   -0.41    0.64
  10   3 -14    1.71    0.65
  10   3 -14    0.04    0.94
 -10   3  14   -0.12    1.28
  -9  -3  14    0.31    0.84
  -9  -3  14    0.87    0.38
   9  -3 -14    1.81    0.86
   9   3 -14    1.51    0.81
  -9   3  14    1.91    1.54
   9   3 -14    2.96    1.38
  -8  -3  14    5.65    1.49
  -8  -3  14    6.56    0.70
   8   3 -14    5.54    1.22
   8   3 -14    5.95    1.59
  -7  -3  14   -0.23    0.24
  -7  -3  14   -0.38    0.32
  -7  -3  14    0.22    0.80
   7   3 -14   -0.57    0.93
   7   3 -14   -1.12    0.75
  -6  -3  14    0.27    0.32
  -6  -3  14    0.49    0.68
  -6  -3  14    0.28    0.26
   6   3 -14   -0.68    0.75
   6   3 -14    0.09    0.77
  -5  -3  14    1.29    0.49
  -5  -3  14    0.40    0.45
  -5  -3  14    0.36    0.79
   5   3 -14    1.61    1.23
   5   3 -14    1.37    0.85
  -4  -3  14    0.09    0.36
  -4  -3  14    0.17    0.69
  -4  -3  14    0.51    0.40
   4   3 -14   -0.14    0.83
   4   3 -14   -0.02    0.73
  -3  -3  14    0.45    0.43
  -3  -3  14   -0.02    0.75
  -3  -3  14    0.27    0.41
   3   3 -14   -0.07    0.67
   3   3 -14   -0.06    0.97
  -2  -3  14    0.44    0.73
  -2  -3  14    1.05    0.48
  -2  -3  14    1.41    0.55
   2   3 -14   -0.07    0.85
   2   3 -14    1.24    0.79
  -1  -3  14    2.59    0.65
  -1  -3  14    2.67    0.70
  -1  -3  14    1.42    0.75
   1   3 -14    1.24    0.98
   1   3 -14    3.90    1.08
   0  -3  14    2.95    0.97
   0  -3  14    2.33    0.63
   0  -3  14    2.13    0.60
   0   3  14    1.21    0.58
   0   3 -14    1.62    0.87
   1  -3  14    2.84    0.72
   1  -3  14    3.19    0.76
  -1   3 -14    3.25    1.08
   1   3  14    2.56    0.77
   2  -3  14    8.62    1.14
   2  -3  14    7.07    1.09
  -2   3 -14    6.77    1.47
   2   3  14    6.04    1.06
   3  -3  14    1.69    0.69
   3  -3  14    1.45    0.65
   3   3  14    1.76    0.78
  -3   3 -14    2.24    1.03
  -7  -4  14    0.40    0.95
  -7  -4  14    1.13    0.43
   7   4 -14   -1.38    0.88
   7   4 -14    0.50    1.24
  -6  -4  14    0.24    0.38
  -6  -4  14   -0.62    0.70
  -6  -4  14    0.22    0.33
   6   4 -14   -1.06    0.86
   6   4 -14   -0.86    0.95
  -5  -4  14    0.04    0.74
  -5  -4  14    0.21    0.38
  -5  -4  14    0.07    0.45
  -5  -4  14    0.08    0.48
   5   4 -14   -0.87    0.90
   5   4 -14    0.78    1.30
  -4  -4  14    2.20    1.06
  -4  -4  14    1.57    0.66
  -4  -4  14    2.06    0.61
   4   4 -14    1.01    1.04
   4   4 -14    1.29    1.34
  -3  -4  14    0.68    0.94
  -3  -4  14    2.37    0.69
  -3  -4  14    1.39    0.58
   3   4 -14    3.06    1.15
   3   4 -14    0.96    1.29
  -2  -4  14    0.69    0.89
  -2  -4  14   -0.21    0.46
  -2  -4  14    0.42    0.48
   2   4 -14   -0.30    1.10
   2   4 -14    0.23    0.81
  -1  -4  14    0.08    0.50
  -1  -4  14    0.65    0.49
  -1  -4  14   -0.29    0.66
   1   4 -14   -0.06    1.10
   1   4 -14    0.24    0.80
   0  -4  14    0.16    0.44
   0  -4  14   -0.23    0.49
   0  -4  14   -0.69    0.65
   0   4 -14    2.88    1.43
   0   4 -14    0.67    0.94
   1  -4  14   -0.41    0.50
   1  -4  14    0.01    0.71
   1  -4  14    0.07    0.49
  -1   4 -14   -0.81    0.83
 -11   0  15    0.09    0.96
  11   0 -15    0.53    0.88
 -10   0  15   -0.02    0.89
  10   0 -15   -0.83    0.64
  -9   0  15    4.83    1.50
   9   0 -15    5.95    1.24
   8   0 -15   -0.76    0.50
  -8   0  15    0.24    0.31
  -8   0  15   -0.20    0.83
  -7   0  15    0.88    0.91
   7   0 -15    2.45    0.82
  -7   0  15    1.90    0.46
  -6   0  15   -0.43    0.24
  -6   0  15   -0.08    0.79
   6   0 -15   -0.01    0.51
  -5   0  15   10.82    1.04
  -5   0  15    8.01    1.55
  -4   0  15   -0.36    0.25
   4   0 -15   -0.16    0.39
  -4   0  15   -0.34    0.59
  -3   0  15    1.96    0.49
   3   0 -15    1.32    0.60
  -3   0  15    1.70    0.76
  -3   0  15    1.31    0.53
   2   0 -15   -0.79    0.33
  -2   0  15    0.04    0.38
  -2   0  15    0.18    0.25
  -1   0  15   42.20    2.70
  -1   0  15   44.64    2.78
   1   0 -15   49.89    3.13
   0   0  15    0.69    0.43
   0   0 -15    0.84    0.64
   0   0  15    1.26    0.51
   1   0  15   77.07    4.65
  -1   0 -15   93.51    5.30
   1   0  15   83.77    4.74
   2   0  15    0.53    0.42
   2   0  15   -0.19    0.38
  -2   0 -15    0.14    0.76
   3   0  15    4.10    0.80
   3   0  15    4.71    0.78
  -3   0 -15    4.31    1.18
   3   0  15    4.47    1.01
   4   0  15   -0.27    0.45
   4   0  15    0.40    0.42
  -4   0 -15   -0.53    0.76
   4   0  15    0.86    0.69
  -5   0 -15   -0.27    0.84
   5   0  15    0.22    0.50
   5   0  15   -0.94    0.52
   5   0  15    0.47    0.42
  11  -1 -15    2.66    0.99
 -11  -1  15    0.50    0.99
  11   1 -15    0.18    0.86
 -11   1  15    1.60    1.40
  10  -1 -15    2.00    0.88
 -10  -1  15    3.08    1.35
 -10   1  15    1.65    1.31
  10   1 -15    3.20    1.09
  -9  -1  15    9.93    0.95
  -9  -1  15    8.22    1.83
   9  -1 -15    9.24    1.47
   9   1 -15   11.72    1.78
  -9   1  15    9.17    2.09
  -8  -1  15    0.98    0.95
  -8  -1  15    2.06    0.44
   8  -1 -15    1.46    0.75
   8   1 -15    1.78    0.93
  -8   1  15    2.18    1.19
   7  -1 -15    5.45    1.05
  -7  -1  15    6.11    1.56
  -7  -1  15    6.11    0.75
  -7   1  15    3.60    1.37
   7   1 -15    5.50    1.16
  -6  -1  15    3.78    1.18
  -6  -1  15    3.10    0.56
  -6   1  15    2.21    1.19
  -6   1  15    4.02    0.64
   6   1 -15    3.28    0.79
   6   1 -15    5.47    1.16
  -5  -1  15    0.00    0.31
  -5  -1  15   -0.23    0.66
  -5   1  15    0.60    0.81
   5   1 -15   -0.08    0.59
  -5   1  15    0.35    0.31
   5   1 -15    0.86    0.57
  -4  -1  15    4.83    0.72
  -4  -1  15    4.86    0.79
  -4  -1  15    5.94    1.24
  -4   1  15    3.75    0.61
  -4   1  15    2.92    1.05
   4   1 -15    3.67    0.84
  -3  -1  15    2.51    0.55
  -3  -1  15    2.31    0.83
  -3  -1  15    3.28    0.69
   3   1 -15    2.63    0.78
  -3   1  15    3.10    0.55
  -2  -1  15   -0.61    0.25
   2  -1 -15    0.02    0.47
  -2  -1  15    0.21    0.43
  -2  -1  15    0.40    0.56
   2   1 -15    1.11    0.62
  -2   1  15   -0.42    0.26
  -1  -1  15   10.67    1.13
   1  -1 -15   13.28    1.50
  -1  -1  15    8.95    1.12
  -1   1  15   10.55    1.11
  -1   1  15    9.95    1.10
   1   1 -15   11.70    1.52
   0  -1  15    3.42    0.73
   0  -1 -15    1.93    0.78
   0  -1  15    3.09    0.65
   0   1  15    2.86    0.61
   0   1  15    2.07    0.56
   0   1  15    3.01    0.75
   0   1 -15    2.50    0.88
  -1  -1 -15   -0.74    0.58
   1  -1  15    0.68    0.50
   1  -1  15    0.33    0.41
   1   1  15    1.10    0.43
   1   1  15   -0.33    0.45
   1   1  15   -0.11    0.32
  -1   1 -15    0.23    0.74
   2  -1  15   14.83    1.29
   2  -1  15   13.52    1.46
  -2  -1 -15   12.81    1.82
   2   1  15   12.47    1.27
  -2   1 -15   16.79    2.06
   2   1  15   12.39    1.55
   2   1  15   15.77    1.26
  -3  -1 -15    0.72    0.78
   3  -1  15    2.32    0.64
   3  -1  15    2.65    0.70
   3   1  15    2.02    0.61
   3   1  15    1.14    0.72
  -3   1 -15    0.88    0.85
   3   1  15    1.99    0.60
   4  -1  15    0.36    0.55
   4  -1  15   -0.40    0.39
  -4  -1 -15   -0.82    0.76
  -4   1 -15    0.41    0.86
   4   1  15    0.15    0.63
   4   1  15    0.16    0.47
  10  -2 -15    8.72    1.50
 -10  -2  15    6.37    1.71
  10   2 -15    3.22    1.31
 -10   2  15    3.26    1.70
  -9  -2  15    3.89    1.38
   9  -2 -15    5.59    1.14
  -9   2  15    3.24    1.59
   9   2 -15    4.91    1.42
  -8  -2  15   -0.55    0.66
  -8  -2  15    0.43    0.32
   8   2 -15   -0.66    0.71
  -8   2  15   -1.08    0.84
   8   2 -15   -0.05    0.66
  -7  -2  15    8.60    1.71
  -7  -2  15    8.62    0.93
  -7   2  15    6.54    1.82
   7   2 -15    7.18    1.59
   7   2 -15    7.19    1.28
  -6  -2  15    7.14    0.88
  -6  -2  15    7.54    1.52
   6   2 -15    9.80    1.36
   6   2 -15    7.16    1.52
  -6   2  15    6.28    1.62
  -5  -2  15   33.99    2.70
  -5  -2  15   28.29    2.04
  -5  -2  15   29.92    1.96
  -5   2  15   18.92    2.82
   5   2 -15   29.70    2.78
   5   2 -15   33.67    2.42
  -4  -2  15    3.58    0.70
  -4  -2  15    1.38    0.82
  -4  -2  15    1.63    0.51
   4   2 -15    2.04    0.96
   4   2 -15    3.25    0.91
  -3  -2  15    1.67    0.81
  -3  -2  15    2.17    0.55
  -3  -2  15    1.47    0.56
   3   2 -15    0.69    0.68
  -2  -2  15    0.09    0.34
  -2  -2  15    0.47    0.65
  -2  -2  15    0.00    0.32
   2   2 -15   -0.15    0.59
  -1  -2  15    1.65    0.82
  -1  -2  15    1.84    0.61
  -1  -2  15    2.02    0.52
   1   2 -15    2.05    0.87
  -1   2  15    2.98    0.62
  -1   2  15    2.77    0.70
   0  -2  15   -0.08    0.39
   0  -2 -15    0.90    0.61
   0  -2  15   -0.73    0.36
   0   2 -15    0.78    0.72
   0   2  15    1.62    0.51
   0   2  15    0.29    0.57
  -1  -2 -15    1.56    0.72
   1  -2  15    1.38    0.63
   1  -2  15    1.90    0.58
  -1   2 -15    0.80    0.81
   1   2  15    0.71    0.58
   1   2  15    1.03    0.49
   2  -2  15    1.20    0.54
  -2  -2 -15    2.99    1.03
   2  -2  15    1.64    0.64
   2   2  15    0.85    0.71
   2   2  15    1.30    0.51
  -2   2 -15    1.31    0.92
   3  -2  15   -0.08    0.47
  -3  -2 -15    0.92    0.76
   3  -2  15   -0.22    0.52
   3   2  15    0.00    0.40
  -3   2 -15    0.38    0.80
   3   2  15   -0.25    0.54
   4  -2  15   -0.03    0.44
  -4  -2 -15   -0.35    0.69
   4  -2  15    0.65    0.60
  -4   2 -15    0.25    0.85
   4   2  15    0.25    0.67
  -9  -3  15    0.85    0.98
   9   3 -15   -0.49    0.82
   9   3 -15   -0.16    1.00
  -8  -3  15    1.76    1.10
   8   3 -15    3.23    1.33
   8   3 -15   -0.66    0.98
  -7  -3  15    3.04    0.59
  -7  -3  15    2.61    1.17
   7   3 -15    2.36    1.09
   7   3 -15    1.27    1.10
  -6  -3  15    4.99    0.79
  -6  -3  15    5.18    1.42
   6   3 -15    4.68    1.25
   6   3 -15    2.87    1.32
  -5  -3  15    0.30    0.44
  -5  -3  15    0.37    0.39
  -5  -3  15    0.77    0.83
   5   3 -15    0.21    0.76
   5   3 -15    1.22    1.10
  -4  -3  15   10.43    1.74
  -4  -3  15    8.33    1.06
  -4  -3  15    8.26    1.11
   4   3 -15    9.81    2.02
   4   3 -15    9.41    1.52
  -3  -3  15    0.38    0.41
  -3  -3  15    0.28    0.45
  -3  -3  15    0.93    0.79
   3   3 -15    0.71    0.85
   3   3 -15    0.71    1.12
  -2  -3  15    0.02    0.63
  -2  -3  15    0.23    0.63
  -2  -3  15   -0.27    0.91
   2   3 -15    0.47    0.77
  -1  -3  15    0.71    0.81
  -1  -3  15    0.95    0.56
  -1  -3  15    0.93    0.51
   1   3 -15    0.43    0.82
   0  -3  15   -0.07    0.37
   0  -3  15    0.89    0.49
   0   3 -15    0.57    0.79
   0   3  15   -0.18    0.48
   1  -3  15    3.21    0.80
   1  -3  15    2.74    0.70
  -1   3 -15    3.02    1.13
   1   3  15    2.14    0.79
   2  -3  15    0.64    0.52
   2  -3  15    1.04    0.66
  -2   3 -15    1.56    0.95
   2   3  15   -0.19    0.63
  -6  -4  15    0.06    0.35
  -6  -4  15   -0.11    0.85
   6   4 -15    0.17    1.24
   6   4 -15   -1.11    0.93
  -5  -4  15    1.82    0.63
  -5  -4  15    1.51    0.55
  -5  -4  15    0.65    0.96
   5   4 -15    1.49    1.38
   5   4 -15   -1.06    0.86
  -4  -4  15   -0.14    0.73
  -4  -4  15    0.00    0.47
  -4  -4  15    0.40    0.44
   4   4 -15   -0.07    1.19
   4   4 -15   -0.26    0.89
  -3  -4  15    0.85    0.54
  -3  -4  15    0.84    0.89
  -3  -4  15    0.86    0.58
   3   4 -15    1.68    1.10
   3   4 -15   -0.10    1.11
  -2  -4  15   -0.29    0.38
  -2  -4  15    0.08    0.78
  -2  -4  15    0.22    0.48
   2   4 -15    1.18    0.93
   2   4 -15    4.00    1.75
  -1  -4  15    0.24    0.57
  -1  -4  15   -0.37    0.43
  -1  -4  15    1.76    1.04
   1   4 -15    1.79    1.05
  11   0 -16   -0.49    0.65
 -11   0  16   -0.34    1.00
  10   0 -16    0.14    0.85
 -10   0  16    1.18    1.18
   9   0 -16    0.05    0.60
  -9   0  16   -0.65    1.10
  -8   0  16    2.38    1.25
   8   0 -16    1.63    0.83
  -8   0  16    2.81    0.56
  -7   0  16    0.26    0.83
  -7   0  16   -0.01    0.28
  -6   0  16   15.04    1.16
  -6   0  16   11.36    1.94
  -5   0  16    0.08    0.32
  -5   0  16   -0.43    0.60
  -4   0  16   10.54    1.11
   4   0 -16   14.70    1.59
  -4   0  16    9.87    1.65
  -3   0  16   -0.09    0.40
   3   0 -16   -0.06    0.42
  -3   0  16   -0.46    0.17
  -2   0  16    1.26    0.51
  -2   0  16    2.36    0.55
   2   0 -16    1.06    0.63
  -1   0  16    0.43    0.34
   1   0 -16   -0.47    0.61
  -1   0  16    0.35    0.43
   0   0  16    1.67    0.60
   0   0  16    2.34    0.58
   0   0 -16    1.77    0.89
   1   0  16    0.30    0.47
   1   0  16    0.12    0.36
  -1   0 -16   -0.69    0.71
  -2   0 -16    8.13    1.52
   2   0  16    7.99    1.06
   2   0  16    9.76    1.12
   3   0  16   -0.49    0.39
  -3   0 -16   -0.41    0.70
   3   0  16    0.96    0.47
   4   0  16    7.55    1.03
  -4   0 -16    7.96    1.65
   4   0  16    5.76    1.21
   4   0  16    9.64    1.19
 -11  -1  16    0.84    1.17
  11  -1 -16    0.89    0.78
 -11   1  16   -1.67    0.98
  11   1 -16    0.47    0.81
  10  -1 -16    2.36    0.89
 -10  -1  16    1.60    1.12
 -10   1  16    2.14    1.34
  10   1 -16    0.47    0.83
  -9  -1  16   -0.55    0.78
   9  -1 -16    0.23    0.64
  -9  -1  16    1.07    0.38
   9   1 -16   -0.32    0.64
  -9   1  16   -0.36    0.95
  -8  -1  16    1.53    0.45
  -8  -1  16    1.02    0.99
  -8   1  16   -0.42    0.89
   8   1 -16    1.82    0.88
  -7  -1  16    0.99    0.38
  -7  -1  16    1.52    0.94
   7   1 -16   -0.41    0.56
  -7   1  16   -0.03    0.98
  -6  -1  16   10.52    1.83
  -6  -1  16    8.58    0.96
  -6   1  16    9.48    1.89
  -6   1  16    8.15    0.94
   6   1 -16    8.58    1.42
  -5  -1  16    3.84    0.63
  -5  -1  16    1.91    0.98
  -5   1  16    2.83    1.15
   5   1 -16    3.07    0.79
  -5   1  16    3.47    0.63
  -4  -1  16    0.29    0.34
  -4  -1  16    0.99    0.79
  -4  -1  16    0.21    0.45
  -4   1  16   -0.26    0.28
   4   1 -16   -0.03    0.50
  -3  -1  16    2.04    0.55
  -3  -1  16    0.97    0.68
  -3  -1  16    1.98    0.59
   3   1 -16    2.30    0.78
  -3   1  16    1.63    0.47
   2  -1 -16    0.68    0.64
  -2  -1  16    0.78    0.42
  -2  -1  16    0.55    0.47
   2   1 -16    0.19    0.57
  -2   1  16    0.59    0.38
  -1  -1  16    0.05    0.46
   1  -1 -16    0.41    0.59
  -1  -1  16    0.05    0.38
  -1   1  16   -0.31    0.30
  -1   1  16    0.35    0.47
   1   1 -16    0.13    0.61
   0  -1 -16    0.80    0.62
   0  -1  16    0.83    0.55
   0  -1  16    0.96    0.48
   0   1  16    0.78    0.49
   0   1 -16    0.68    0.72
   0   1  16    0.62    0.41
   1  -1  16   13.95    1.40
   1  -1  16   13.53    1.41
  -1  -1 -16   14.15    1.80
   1   1  16   13.17    1.30
  -1   1 -16   13.22    1.87
   1   1  16   11.81    1.25
   1   1  16   13.29    1.54
   2  -1  16    0.68    0.56
   2  -1  16    1.17    0.53
  -2  -1 -16    1.04    0.84
   2   1  16   -0.03    0.54
   2   1  16    0.86    0.48
  -2   1 -16    2.54    1.11
   2   1  16   -0.32    0.31
   3  -1  16    2.68    0.77
  -3  -1 -16    3.84    1.31
   3  -1  16    2.99    0.78
  -3   1 -16    4.75    1.32
   3   1  16    2.60    0.64
   3   1  16    4.78    1.08
 -10  -2  16   -0.30    0.83
 -10   2  16    0.08    1.31
  10   2 -16   -0.04    0.84
  -9  -2  16    1.58    1.10
   9   2 -16    3.71    1.26
  -9   2  16    1.24    1.29
  -8  -2  16    1.48    0.44
  -8  -2  16    1.26    1.04
   8   2 -16    2.78    1.18
  -8   2  16    2.34    1.48
  -7  -2  16    1.33    0.45
  -7  -2  16    1.64    1.09
   7   2 -16    2.50    1.10
   7   2 -16    1.16    0.90
  -7   2  16    0.72    0.98
  -6  -2  16    2.86    1.13
  -6  -2  16    3.16    0.61
   6   2 -16    0.67    0.94
   6   2 -16    5.93    1.14
  -6   2  16    1.22    1.27
  -5  -2  16    5.77    0.90
  -5  -2  16    6.41    1.43
  -5  -2  16    6.84    0.90
   5   2 -16    6.63    1.42
   5   2 -16    8.07    1.31
  -4  -2  16    1.24    0.85
  -4  -2  16   -0.40    0.39
  -4  -2  16    0.18    0.36
   4   2 -16    1.01    0.73
  -3  -2  16    0.33    0.37
  -3  -2  16   -0.21    0.65
  -3  -2  16    0.32    0.44
   3   2 -16    0.37    0.64
  -2  -2  16    5.63    0.97
  -2  -2  16    7.37    0.97
   2   2 -16    8.38    1.40
  -1  -2  16    4.55    0.78
  -1  -2  16    3.94    0.82
  -1   2  16    2.56    0.62
   1   2 -16    2.13    0.93
   0  -2  16    2.40    0.65
   0  -2  16    2.14    0.71
   0   2  16    3.10    0.66
   0   2 -16    3.95    1.15
   0   2  16    3.22    0.87
   1  -2  16    0.58    0.53
  -1  -2 -16    0.59    0.74
   1  -2  16    0.74    0.49
  -1   2 -16    0.45    0.83
   1   2  16    0.31    0.63
   1   2  16    0.55    0.53
   2  -2  16    0.69    0.63
  -2  -2 -16    1.06    0.80
   2  -2  16    0.06    0.46
  -2   2 -16   -0.79    0.69
   2   2  16    0.57    0.47
   2   2  16    0.15    0.68
  -3  -2 -16    1.59    0.94
  -3   2 -16    0.16    0.81
  -8  -3  16    2.93    1.28
   8   3 -16    2.44    1.21
   8   3 -16    1.93    1.22
  -7  -3  16    2.67    1.17
  -7  -3  16    2.73    0.61
   7   3 -16    1.22    1.10
   7   3 -16    1.33    1.16
  -6  -3  16    1.10    0.50
  -6  -3  16    0.22    0.80
   6   3 -16    1.13    0.97
   6   3 -16   -1.12    0.94
  -5  -3  16    4.89    0.90
  -5  -3  16    6.09    0.91
  -5  -3  16    4.88    1.36
   5   3 -16    4.71    1.25
   5   3 -16    5.52    1.61
  -4  -3  16    1.02    0.49
  -4  -3  16    1.48    1.01
  -4  -3  16    0.73    0.56
   4   3 -16   -0.38    0.79
   4   3 -16   -0.41    0.70
  -3  -3  16   17.88    1.53
  -3  -3  16   18.37    1.61
  -3  -3  16   20.95    2.17
   3   3 -16   17.93    2.22
  -2  -3  16    4.38    0.83
  -2  -3  16    4.84    0.85
  -2  -3  16    3.47    1.14
   2   3 -16    3.80    1.21
  -1  -3  16    0.62    0.47
  -1  -3  16   -0.71    0.41
   1   3 -16    0.07    0.74
   0  -3  16    5.67    0.99
   0  -3  16    5.70    0.92
   0   3 -16    5.09    1.29
   1  -3  16    5.20    0.95
   1  -3  16    4.33    0.93
   1   3  16    5.76    1.07
  -1   3 -16    7.97    1.57
 -10   0  17    0.33    1.07
  10   0 -17   -0.20    0.79
  -9   0  17   12.95    2.42
   9   0 -17   13.96    2.06
  -8   0  17    0.52    1.08
  -8   0  17    0.59    0.39
  -7   0  17    0.74    0.38
  -7   0  17   -0.02    0.93
  -6   0  17    0.43    0.94
  -6   0  17    0.00    0.31
  -5   0  17    0.01    0.77
  -5   0  17    0.20    0.35
  -4   0  17   -0.32    0.27
  -3   0  17    0.12    0.32
   3   0 -17   -0.12    0.43
  -2   0  17   -0.86    0.35
   2   0 -17    0.37    0.61
  -2   0  17    0.06    0.36
  -1   0  17   12.72    1.38
  -1   0  17   11.50    1.27
   1   0 -17   17.04    1.87
   0   0  17    0.04    0.39
   0   0  17    0.33    0.54
   0   0 -17    1.97    0.90
   1   0  17   33.99    2.32
  -1   0 -17   41.63    3.07
   1   0  17   32.32    2.37
  -2   0 -17   -0.01    0.75
   2   0  17   -0.50    0.38
   2   0  17   -0.01    0.46
 -10  -1  17    1.03    1.19
  10   1 -17   -0.65    0.81
 -10   1  17    0.69    1.21
  -9  -1  17    1.01    1.02
  -9  -1  17    0.11    0.31
  -9   1  17    2.10    1.39
   9   1 -17   -0.02    0.69
  -8  -1  17    2.16    1.37
  -8  -1  17    4.36    0.67
  -8   1  17    1.61    1.19
   8   1 -17    2.20    0.92
  -7  -1  17    0.30    0.35
  -7  -1  17   -0.20    0.89
  -7   1  17    0.51    1.04
  -6  -1  17   -0.14    0.30
  -6  -1  17    0.77    0.95
  -6   1  17    0.31    0.93
  -6   1  17   -0.37    0.30
  -5  -1  17    0.32    0.36
  -5  -1  17    0.44    0.82
  -5   1  17    0.29    0.38
   5   1 -17    0.62    0.67
  -4  -1  17    3.67    1.73
  -4  -1  17    1.98    0.54
  -4  -1  17    3.06    0.74
   4   1 -17    3.26    0.86
  -4   1  17    2.75    0.61
  -3  -1  17    0.89    0.57
  -3  -1  17    1.36    0.47
   3   1 -17    1.13    0.75
  -3   1  17    0.72    0.42
  -2  -1  17    2.27    0.68
  -2  -1  17    3.60    0.71
  -2   1  17    3.47    0.67
   2   1 -17    4.55    1.06
  -1  -1  17    0.44    0.46
  -1  -1  17    0.15    0.51
   1  -1 -17    0.26    0.54
  -1   1  17    0.24    0.39
   1   1 -17   -0.49    0.64
   0  -1  17   18.47    1.59
   0  -1  17   18.32    1.50
   0  -1 -17   18.14    2.02
   0   1  17   17.03    1.45
   0   1 -17   20.05    2.24
   0   1  17   16.31    1.42
   1  -1  17    5.68    0.92
   1  -1  17    4.45    0.93
  -1  -1 -17    5.04    1.31
   1   1  17    6.56    0.92
  -1   1 -17    6.13    1.43
   1   1  17    7.96    0.99
   2  -1  17    1.15    0.55
   2  -1  17    0.74    0.59
  -2  -1 -17    0.71    0.89
  -2   1 -17    2.24    1.07
   2   1  17    2.47    0.65
   2   1  17    0.89    0.69
  -9  -2  17   -0.01    0.96
  -9   2  17    0.32    1.14
   9   2 -17   -0.11    0.82
  -8  -2  17    0.85    0.42
  -8  -2  17    2.55    1.27
   8   2 -17    1.37    1.06
  -8   2  17    0.84    1.33
  -7  -2  17    5.40    1.59
  -7  -2  17    9.00    0.98
   7   2 -17    6.93    1.55
  -6  -2  17    2.84    0.61
  -6  -2  17    3.29    1.23
   6   2 -17    1.26    0.93
  -5  -2  17    0.95    0.96
  -5  -2  17    0.82    0.45
   5   2 -17    0.54    0.76
  -4  -2  17    4.46    0.81
  -4  -2  17    4.65    1.29
  -4  -2  17    3.38    0.70
   4   2 -17    3.16    0.99
  -3  -2  17    3.89    0.85
  -3  -2  17    3.68    0.74
   3   2 -17    5.74    1.20
  -2  -2  17    0.24    0.48
  -2  -2  17   -0.41    0.31
   2   2 -17    0.15    0.67
  -1  -2  17    3.25    0.73
  -1  -2  17    2.27    0.74
   1   2 -17    3.99    1.25
   0  -2  17   -0.51    0.46
   0  -2  17   -0.32    0.41
   0   2  17   -0.69    0.46
   0   2  17    0.39    0.44
   0   2 -17   -0.07    0.75
   1  -2  17    6.85    1.13
   1  -2  17    7.68    1.08
  -1   2 -17    7.30    1.53
   1   2  17    6.41    0.97
   1   2  17    7.32    1.20
  -6  -3  17    5.22    1.48
  -6  -3  17    3.82    0.78
   6   3 -17    5.49    1.63
   6   3 -17    6.66    1.53
  -5  -3  17    4.42    0.91
  -5  -3  17    3.88    0.77
  -5  -3  17    5.64    1.57
   5   3 -17    3.26    1.14
  -4  -3  17    4.47    0.80
  -4  -3  17    1.76    0.68
  -4  -3  17    4.29    1.29
   4   3 -17    2.80    1.15
  -3  -3  17   -0.44    0.46
  -3  -3  17   -0.37    0.36
  -3  -3  17   -0.18    0.81
   3   3 -17   -1.07    0.69
  -2  -3  17    0.88    0.61
  -2  -3  17    1.19    0.54
   2   3 -17   -0.28    0.87
  -1  -3  17    0.32    0.44
  -1  -3  17    0.45    0.52
   1   3 -17   -0.56    0.78
  -9   0  18   -0.26    1.15
  -8   0  18    6.70    0.89
  -8   0  18    8.02    1.86
  -7   0  18    0.50    1.02
  -7   0  18   -0.36    0.28
  -6   0  18    2.10    0.56
  -5   0  18    0.17    0.36
  -4   0  18   10.58    1.16
  -3   0  18    0.06    0.36
  -2   0  18    3.94    0.72
  -2   0  18    2.72    0.74
   2   0 -18    6.18    1.13
   1   0 -18    1.02    0.71
  -1   0  18   -0.47    0.43
  -1   0  18    0.43    0.43
   0   0  18    1.23    0.53
   0   0 -18    1.21    0.86
   0   0  18    0.97    0.57
   1   0  18   -0.33    0.38
   1   0  18   -1.33    0.47
  -1   0 -18   -0.14    0.85
  -9  -1  18    1.58    0.49
  -9  -1  18    1.83    1.25
  -9   1  18    2.07    1.43
  -8  -1  18   -0.46    0.35
  -8  -1  18   -0.63    0.80
  -8   1  18    0.58    1.08
  -7  -1  18    0.30    0.38
  -7  -1  18    0.53    0.94
  -6  -1  18    0.92    1.02
  -6  -1  18    0.46    0.41
  -6   1  18    1.69    0.52
  -5  -1  18    5.31    0.82
  -5   1  18    6.39    0.89
  -4  -1  18    0.14    0.37
  -4   1  18    0.31    0.39
   4   1 -18    0.43    0.71
  -3  -1  18    0.49    0.50
  -3  -1  18    0.55    0.41
  -3   1  18    0.82    0.44
   3   1 -18   -0.68    0.49
  -2  -1  18    0.00    0.40
  -2  -1  18    0.37    0.52
   2   1 -18    0.14    0.75
  -2   1  18    0.07    0.38
  -1  -1  18    0.48    0.45
  -1  -1  18    2.27    0.69
  -1   1  18    1.47    0.54
   1   1 -18    1.23    0.96
   0  -1 -18    8.99    1.47
   0  -1  18    6.76    1.08
   0  -1  18    7.65    1.07
   0   1  18    6.80    0.97
   0   1  18    7.39    1.06
   0   1 -18    7.23    1.46
   1  -1  18    1.26    0.61
  -1  -1 -18    0.05    0.69
   1  -1  18    1.43    0.71
  -1   1 -18    1.86    1.13
   1   1  18    0.77    0.51
  -7  -2  18    1.41    1.04
  -7  -2  18    1.35    0.51
  -6  -2  18    7.97    1.04
  -6  -2  18   11.07    1.97
   6   2 -18    8.88    1.49
  -5  -2  18    3.55    1.25
  -5  -2  18    3.36    0.70
   5   2 -18    2.77    0.98
  -4  -2  18    1.59    0.59
  -4  -2  18    1.19    0.55
   4   2 -18    2.23    0.94
  -3  -2  18    1.76    0.63
  -3  -2  18    0.36    0.55
   3   2 -18    1.23    0.88
  -2  -2  18    4.84    0.94
  -2  -2  18    2.49    0.72
   2   2 -18    5.10    1.30
  -1  -2  18    1.02    0.56
  -1  -2  18    1.00    0.67
   1   2 -18    1.67    0.96
  -8   0  19    0.03    0.37
  -8   0  19    1.32    1.24
  -7   0  19    1.35    0.51
  -6   0  19   -0.09    0.34
  -5   0  19    0.27    0.41
  -4   0  19    0.17    0.38
  -3   0  19    1.15    0.53
  -2   0  19   -0.27    0.45
  -2   0  19   -0.13    0.38
  -1   0  19    0.70    0.50
   1   0 -19    1.06    0.83
  -1   0  19    0.78    0.58
  -7  -1  19    2.28    1.17
  -7  -1  19    1.96    0.58
  -6  -1  19   -0.14    0.36
  -6   1  19   -0.17    0.36
  -5  -1  19    4.34    0.78
  -5   1  19    5.56    0.86
  -4  -1  19   -0.01    0.36
  -4   1  19   -0.67    0.29
  -3  -1  19    1.20    0.52
  -3  -1  19    1.10    0.68
   3   1 -19    0.87    0.76
  -3   1  19    0.24    0.43
  -2  -1  19   -0.12    0.53
  -2  -1  19    0.27    0.41
   2   1 -19   -0.67    0.72
  -2   1  19   -0.08    0.37
   0   0   0    0.00    0.00
;
_shelx_hkl_checksum              68008
_olex2_submission_special_instructions 'No special instructions were received'
loop_
_space_group_symop_operation_xyz
'x, y, z'
'-x+1/2, y+1/2, -z+1/2'
'-x, -y, -z'
'x-1/2, -y-1/2, z-1/2'
loop_
_atom_site_label
_atom_site_type_symbol
_atom_site_fract_x
_atom_site_fract_y
_atom_site_fract_z
_atom_site_U_iso_or_equiv
_atom_site_adp_type
_atom_site_occupancy
_atom_site_site_symmetry_order
_atom_site_calc_flag
_atom_site_refinement_flags_posn
_atom_site_refinement_flags_adp
_atom_site_refinement_flags_occupancy
_atom_site_disorder_assembly
_atom_site_disorder_group
C1 C 0.97339(15) -0.0093(3) 1.18850(9) 0.0228(3) Uani 0.951(2) 1 d D . P A 1
C2 C 0.89409(13) 0.2145(3) 1.14136(9) 0.0220(3) Uani 0.951(2) 1 d D . P A 1
C3 C 0.76449(16) 0.2941(3) 1.14290(10) 0.0228(3) Uani 0.951(2) 1 d D . P A 1
C4 C 0.68484(13) 0.5063(3) 1.08433(10) 0.0231(3) Uani 0.951(2) 1 d D . P A 1
C5 C 0.72539(12) 0.6488(3) 1.01545(9) 0.0214(3) Uani 0.951(2) 1 d D . P A 1
C6 C 0.65710(14) 0.8635(3) 0.95515(12) 0.0223(3) Uani 0.951(2) 1 d D . P A 1
C7 C 0.71251(14) 1.0100(3) 0.89317(9) 0.0223(3) Uani 0.951(2) 1 d D . P A 1
C8 C 0.84193(13) 0.9583(3) 0.88519(9) 0.0211(3) Uani 0.951(2) 1 d D . P A 1
C9 C 0.9000(2) 1.0877(4) 0.82260(13) 0.0236(3) Uani 0.951(2) 1 d D . P A 1
H1 H 0.9386(14) -0.126(3) 1.2323(10) 0.032(4) Uiso 0.951(2) 1 d . . P A 1
H2 H 0.9330(14) 0.330(3) 1.1017(9) 0.026(4) Uiso 0.951(2) 1 d . . P A 1
H3 H 0.7234(14) 0.188(3) 1.1852(10) 0.025(3) Uiso 0.951(2) 1 d . . P A 1
H4 H 0.5961(15) 0.555(3) 1.0930(10) 0.031(4) Uiso 0.951(2) 1 d . . P A 1
H5 H 0.8143(14) 0.592(3) 1.0090(10) 0.028(4) Uiso 0.951(2) 1 d . . P A 1
H6 H 0.5659(15) 0.920(3) 0.9573(10) 0.031(4) Uiso 0.951(2) 1 d . . P A 1
H7 H 0.6573(14) 1.156(3) 0.8535(10) 0.028(4) Uiso 0.951(2) 1 d . . P A 1
H8 H 0.8968(14) 0.807(3) 0.9274(10) 0.032(4) Uiso 0.951(2) 1 d . . P A 1
H9 H 0.8486(14) 1.246(3) 0.7839(10) 0.028(4) Uiso 0.951(2) 1 d . . P A 1
C11 C 1.029(2) 0.061(6) 1.1493(18) 0.025(6) Uani 0.049(2) 1 d D U P A 2
H11 H 1.0215 0.2081 1.1044 0.030 Uiso 0.049(2) 1 calc R . P A 2
C12 C 0.922(2) 0.070(5) 1.1846(18) 0.017(6) Uani 0.049(2) 1 d D U P A 2
H12 H 0.9287 -0.0666 1.2328 0.020 Uiso 0.049(2) 1 calc R . P A 2
C13 C 0.807(3) 0.231(7) 1.166(3) 0.050(14) Uani 0.049(2) 1 d D U P A 2
H13 H 0.7458 0.2030 1.2025 0.060 Uiso 0.049(2) 1 calc R . P A 2
C14 C 0.778(2) 0.431(5) 1.0979(16) 0.026(6) Uani 0.049(2) 1 d D U P A 2
H14 H 0.8522 0.4564 1.0735 0.031 Uiso 0.049(2) 1 calc R . P A 2
C15 C 0.672(3) 0.603(5) 1.0547(18) 0.023(7) Uani 0.049(2) 1 d D U P A 2
H15 H 0.5933 0.5808 1.0746 0.027 Uiso 0.049(2) 1 calc R . P A 2
C16 C 0.661(3) 0.803(6) 0.987(2) 0.024(9) Uani 0.049(2) 1 d D U P A 2
H16 H 0.5787 0.9117 0.9688 0.029 Uiso 0.049(2) 1 calc R . P A 2
C17 C 0.755(2) 0.861(4) 0.9438(15) 0.021(6) Uani 0.049(2) 1 d D U P A 2
H17 H 0.8308 0.7344 0.9612 0.026 Uiso 0.049(2) 1 calc R . P A 2
C18 C 0.768(2) 1.058(5) 0.8812(15) 0.014(5) Uani 0.049(2) 1 d D U P A 2
H18 H 0.6980 1.1978 0.8626 0.017 Uiso 0.049(2) 1 calc R . P A 2
C19 C 0.874(3) 1.072(9) 0.842(3) 0.025(11) Uani 0.049(2) 1 d D U P A 2
H19 H 0.8644 1.2248 0.7994 0.030 Uiso 0.049(2) 1 calc R . P A 2
loop_
_atom_site_aniso_label
_atom_site_aniso_U_11
_atom_site_aniso_U_22
_atom_site_aniso_U_33
_atom_site_aniso_U_23
_atom_site_aniso_U_13
_atom_site_aniso_U_12
C1 0.0262(7) 0.0222(7) 0.0177(6) 0.0002(5) 0.0039(5) -0.0062(6)
C2 0.0247(6) 0.0218(6) 0.0184(6) -0.0016(5) 0.0058(5) -0.0054(5)
C3 0.0264(7) 0.0240(7) 0.0195(7) -0.0058(6) 0.0097(6) -0.0089(7)
C4 0.0209(7) 0.0250(8) 0.0244(7) -0.0079(7) 0.0088(5) -0.0038(6)
C5 0.0184(6) 0.0222(6) 0.0227(6) -0.0061(5) 0.0054(5) -0.0013(5)
C6 0.0190(7) 0.0233(7) 0.0221(8) -0.0078(7) 0.0032(5) 0.0032(5)
C7 0.0223(7) 0.0199(6) 0.0198(6) -0.0044(5) -0.0001(5) 0.0047(5)
C8 0.0228(6) 0.0183(6) 0.0181(6) 0.0005(5) 0.0008(5) 0.0017(5)
C9 0.0281(8) 0.0196(8) 0.0175(8) 0.0027(6) -0.0004(7) -0.0022(6)
C11 0.024(7) 0.028(7) 0.025(7) -0.003(5) 0.010(5) -0.002(5)
C12 0.018(7) 0.015(7) 0.017(7) 0.001(5) 0.004(5) 0.002(5)
C13 0.050(15) 0.049(15) 0.050(15) 0.000(5) 0.014(7) 0.000(5)
C14 0.027(7) 0.023(7) 0.024(7) -0.003(5) 0.005(5) 0.000(5)
C15 0.023(8) 0.024(8) 0.021(8) 0.003(5) 0.007(5) -0.003(5)
C16 0.027(9) 0.023(10) 0.022(10) -0.003(5) 0.008(5) -0.001(5)
C17 0.022(7) 0.021(7) 0.022(7) -0.004(5) 0.009(5) 0.005(5)
C18 0.009(7) 0.020(7) 0.017(7) -0.005(5) 0.008(5) 0.003(5)
C19 0.025(11) 0.024(11) 0.024(11) 0.002(5) 0.005(5) -0.003(5)
loop_
_atom_type_symbol
_atom_type_description
_atom_type_scat_dispersion_real
_atom_type_scat_dispersion_imag
_atom_type_scat_source
C C 0.0033 0.0016 'International Tables Vol C Tables 4.2.6.8 and 6.1.1.4'
H H 0.0000 0.0000 'International Tables Vol C Tables 4.2.6.8 and 6.1.1.4'
loop_
_geom_angle_atom_site_label_1
_geom_angle_atom_site_label_2
_geom_angle_atom_site_label_3
_geom_angle
_geom_angle_site_symmetry_1
_geom_angle_site_symmetry_3
C2 C1 C9 124.06(14) . 3_767
C2 C1 H1 118.7(9) . .
C9 C1 H1 117.2(8) 3_767 .
C1 C2 H2 116.7(8) . .
C3 C2 C1 127.77(14) . .
C3 C2 H2 115.5(8) . .
C2 C3 C4 123.79(13) . .
C2 C3 H3 117.9(8) . .
C4 C3 H3 118.2(8) . .
C3 C4 H4 117.9(9) . .
C5 C4 C3 123.27(12) . .
C5 C4 H4 118.9(9) . .
C4 C5 H5 116.0(8) . .
C6 C5 C4 128.33(13) . .
C6 C5 H5 115.7(8) . .
C5 C6 C7 123.85(13) . .
C5 C6 H6 118.2(9) . .
C7 C6 H6 118.0(9) . .
C6 C7 H7 118.2(8) . .
C8 C7 C6 124.11(12) . .
C8 C7 H7 117.7(8) . .
C7 C8 C9 126.80(14) . .
C7 C8 H8 115.9(8) . .
C9 C8 H8 117.2(8) . .
C1 C9 H9 118.4(8) 3_767 .
C8 C9 C1 124.28(15) . 3_767
C8 C9 H9 117.3(8) . .
C12 C11 H11 110.5 . .
C19 C11 H11 110.5 3_767 .
C19 C11 C12 139(3) 3_767 .
C11 C12 H12 112.9 . .
C11 C12 C13 134(2) . .
C13 C12 H12 112.9 . .
C12 C13 H13 119.4 . .
C14 C13 C12 121(2) . .
C14 C13 H13 119.4 . .
C13 C14 H14 111.3 . .
C15 C14 C13 137(2) . .
C15 C14 H14 111.3 . .
C14 C15 H15 114.8 . .
C14 C15 C16 130(2) . .
C16 C15 H15 114.8 . .
C15 C16 H16 117.1 . .
C17 C16 C15 126(2) . .
C17 C16 H16 117.1 . .
C16 C17 H17 112.6 . .
C16 C17 C18 135(2) . .
C18 C17 H17 112.6 . .
C17 C18 H18 117.6 . .
C17 C18 C19 125(3) . .
C19 C18 H18 117.6 . .
C11 C19 C18 134(4) 3_767 .
C11 C19 H19 112.9 3_767 .
C18 C19 H19 112.9 . .
loop_
_geom_bond_atom_site_label_1
_geom_bond_atom_site_label_2
_geom_bond_distance
_geom_bond_site_symmetry_2
C1 C2 1.3870(19) .
C1 C9 1.408(3) 3_767
C1 H1 1.000(15) .
C2 C3 1.387(2) .
C2 H2 0.975(15) .
C3 C4 1.408(2) .
C3 H3 0.995(14) .
C4 C5 1.3895(19) .
C4 H4 0.985(15) .
C5 C6 1.389(2) .
C5 H5 0.982(14) .
C6 C7 1.405(2) .
C6 H6 0.983(15) .
C7 C8 1.3885(18) .
C7 H7 0.969(15) .
C8 C9 1.390(2) .
C8 H8 0.999(15) .
C9 C1 1.408(3) 3_767
C9 H9 0.990(15) .
C11 H11 0.9500 .
C11 C12 1.353(18) .
C11 C19 1.16(4) 3_767
C12 H12 0.9500 .
C12 C13 1.360(18) .
C13 H13 0.9500 .
C13 C14 1.348(19) .
C14 H14 0.9500 .
C14 C15 1.341(17) .
C15 H15 0.9500 .
C15 C16 1.356(18) .
C16 H16 0.9500 .
C16 C17 1.349(18) .
C17 H17 0.9500 .
C17 C18 1.350(17) .
C18 H18 0.9500 .
C18 C19 1.379(19) .
C19 C11 1.16(4) 3_767
C19 H19 0.9500 .
loop_
_geom_torsion_atom_site_label_1
_geom_torsion_atom_site_label_2
_geom_torsion_atom_site_label_3
_geom_torsion_atom_site_label_4
_geom_torsion
_geom_torsion_site_symmetry_1
_geom_torsion_site_symmetry_4
C1 C2 C3 C4 -172.68(13) . .
C2 C3 C4 C5 3.2(2) . .
C3 C4 C5 C6 -178.78(13) . .
C4 C5 C6 C7 174.53(13) . .
C5 C6 C7 C8 -0.3(2) . .
C6 C7 C8 C9 177.14(14) . .
C7 C8 C9 C1 -173.97(14) . 3_767
C9 C1 C2 C3 175.12(14) 3_767 .
C11 C12 C13 C14 2(6) . .
C12 C13 C14 C15 172(3) . .
C13 C14 C15 C16 178(4) . .
C14 C15 C16 C17 4(6) . .
C15 C16 C17 C18 -175(3) . .
C16 C17 C18 C19 -177(3) . .
C17 C18 C19 C11 0(7) . 3_767
C19 C11 C12 C13 -176(5) 3_767 .
