#------------------------------------------------------------------------------
#$Date: 2015-09-06 01:30:16 +0300 (Sun, 06 Sep 2015) $
#$Revision: 154622 $
#$URL: svn://www.crystallography.net/cod/cif/4/12/37/4123748.cif $
#------------------------------------------------------------------------------
#
# This file is available in the Crystallography Open Database (COD),
# http://www.crystallography.net/
#
# All data on this site have been placed in the public domain by the
# contributors.
#
data_4123748
loop_
_publ_author_name
'Cao, Jing'
'London, G\'abor'
'Dumele, Oliver'
'von Wantoch Rekowski, Margarete'
'Trapp, Nils'
'Ruhlmann, Laurent'
'Boudon, Corinne'
'Stanger, Amnon'
'Diederich, Fran\,cois'
_publ_section_title
;
 The Impact of Antiaromatic Subunits in [4n+2] \p-Systems: Bispentalenes
 with [4n+2] \p-Electron Perimeters and Antiaromatic Character.
;
_journal_issue                   22
_journal_name_full               'Journal of the American Chemical Society'
_journal_page_first              7178
_journal_page_last               7188
_journal_paper_doi               10.1021/jacs.5b03074
_journal_volume                  137
_journal_year                    2015
_chemical_formula_moiety         'C70 H66'
_chemical_formula_sum            'C70 H66'
_chemical_formula_weight         907.22
_chemical_name_systematic
;
 ?
;
_space_group_crystal_system      triclinic
_space_group_IT_number           2
_space_group_name_Hall           '-P 1'
_space_group_name_H-M_alt        'P -1'
_symmetry_space_group_name_Hall  '-P 1'
_symmetry_space_group_name_H-M   'P -1'
_atom_sites_solution_hydrogens   geom
_atom_sites_solution_primary     direct
_audit_creation_date             2014-03-28
_audit_creation_method
;
Olex2 1.2
(compiled 2014.02.28 svn.r2899 for OlexSys, GUI svn.r4781)
;
_cell_angle_alpha                111.777(4)
_cell_angle_beta                 90.520(5)
_cell_angle_gamma                90.037(5)
_cell_formula_units_Z            4
_cell_length_a                   12.8654(8)
_cell_length_b                   18.9405(10)
_cell_length_c                   24.2937(14)
_cell_measurement_reflns_used    4268
_cell_measurement_temperature    100.0(2)
_cell_measurement_theta_max      53.29
_cell_measurement_theta_min      4.67
_cell_volume                     5497.1(6)
_computing_cell_refinement       'Bruker SAINT'
_computing_data_collection       'Bruker APEX2'
_computing_data_reduction        'SAINT v8.34A (Bruker, 2013)'
_computing_molecular_graphics    OLEX2
_computing_publication_material  OLEX2
_computing_structure_refinement  'SHELXL-97 (Sheldrick, 2008)'
_computing_structure_solution    'XS (Sheldrick, 2008)'
_diffrn_ambient_temperature      100.0(2)
_diffrn_detector                 'Bruker APEX2 area detector'
_diffrn_detector_area_resol_mean 8.33
_diffrn_detector_type            'CCD area detector'
_diffrn_measured_fraction_theta_full 0.671
_diffrn_measured_fraction_theta_max 0.985
_diffrn_measurement_device       'kappa-stage diffractometer'
_diffrn_measurement_device_type  'Bruker Kappa Apex2 Duo'
_diffrn_measurement_method       '\w and \f scans'
_diffrn_radiation_monochromator  'double mirror optics'
_diffrn_radiation_probe          x-ray
_diffrn_radiation_type           CuK\a
_diffrn_radiation_wavelength     1.54178
_diffrn_reflns_av_R_equivalents  0.0760
_diffrn_reflns_av_unetI/netI     0.1141
_diffrn_reflns_laue_measured_fraction_full 0.671
_diffrn_reflns_laue_measured_fraction_max 0.985
_diffrn_reflns_limit_h_max       12
_diffrn_reflns_limit_h_min       -13
_diffrn_reflns_limit_k_max       13
_diffrn_reflns_limit_k_min       -19
_diffrn_reflns_limit_l_max       25
_diffrn_reflns_limit_l_min       -20
_diffrn_reflns_number            26872
_diffrn_reflns_point_group_measured_fraction_full 0.671
_diffrn_reflns_point_group_measured_fraction_max 0.985
_diffrn_reflns_theta_full        67.679
_diffrn_reflns_theta_max         54.486
_diffrn_reflns_theta_min         4.670
_diffrn_source                   'microfocus sealed X-ray tube'
_diffrn_source_type              'Incoatec I\ms'
_diffrn_standards_number         0
_exptl_absorpt_coefficient_mu    0.461
_exptl_absorpt_correction_T_max  0.7507
_exptl_absorpt_correction_T_min  0.5920
_exptl_absorpt_correction_type   multi-scan
_exptl_absorpt_process_details
;
SADABS-2012/1 (Bruker,2012) was used for absorption correction.
wR2(int) was 0.0861 before and 0.0643 after correction.
The Ratio of minimum to maximum transmission is 0.7886.
The \l/2 correction factor is 0.0015.
;
_exptl_crystal_colour            'dull reddish brown'
_exptl_crystal_colour_lustre     dull
_exptl_crystal_colour_modifier   reddish
_exptl_crystal_colour_primary    brown
_exptl_crystal_density_diffrn    1.096
_exptl_crystal_description       plate
_exptl_crystal_F_000             1944
_exptl_crystal_size_max          0.15
_exptl_crystal_size_mid          0.08
_exptl_crystal_size_min          0.005
_refine_diff_density_max         0.513
_refine_diff_density_min         -0.393
_refine_diff_density_rms         0.069
_refine_ls_extinction_method     none
_refine_ls_goodness_of_fit_ref   1.139
_refine_ls_hydrogen_treatment    constr
_refine_ls_matrix_type           full
_refine_ls_number_parameters     1336
_refine_ls_number_reflns         12611
_refine_ls_number_restraints     1735
_refine_ls_restrained_S_all      1.092
_refine_ls_R_factor_all          0.1413
_refine_ls_R_factor_gt           0.1022
_refine_ls_shift/su_max          0.004
_refine_ls_shift/su_mean         0.000
_refine_ls_structure_factor_coef Fsqd
_refine_ls_weighting_details
'w=1/[\s^2^(Fo^2^)+(0.2000P)^2^] where P=(Fo^2^+2Fc^2^)/3'
_refine_ls_weighting_scheme      calc
_refine_ls_wR_factor_gt          0.2703
_refine_ls_wR_factor_ref         0.3150
_reflns_Friedel_coverage         0.000
_reflns_number_gt                8660
_reflns_number_total             12611
_reflns_threshold_expression     'I > 2\s(I)'
_cod_data_source_file            ja5b03074_si_001.cif
_cod_data_source_block           2a
_cod_depositor_comments
'Adding full bibliography for 4123748--4123750.cif.'
_cod_database_code               4123748
_shelxl_version_number           2013-4
_shelx_space_group_comment
;
The symmetry employed for this shelxl refinement is uniquely defined
by the following loop, which should always be used as a source of
symmetry information in preference to the above space-group names.
They are only intended as comments.
;
_shelx_estimated_absorpt_t_max   0.998
_shelx_estimated_absorpt_t_min   0.934
_olex2_refinement_description
;
1. Fixed Uiso
 At 1.2 times of:
  All C(H) groups
 At 1.5 times of:
  All C(H,H,H) groups
2. Restrained distances
 C66A-C65A \\sim C65A-C1F \\sim C66-C65A \\sim C65A-C1C \\sim C67-C65A \\sim
C67A-C65A
 with sigma of 0.02
 C66A-C65A \\sim C65A-C1C \\sim C67-C65A \\sim C66-C65A \\sim C65A-C1F \\sim
C67A-C65A
 with sigma of 0.02
3. Rigid bond restraints
 All non-hydrogen atoms
 with sigma for 1-2 distances of 0.01 and sigma for 1-3 distances of 0.01
4. Rigid body (RIGU) restrains
 All non-hydrogen atoms
 with sigma for 1-2 distances of 0.004 and sigma for 1-3 distances of 0.004
5. Others
 Sof(C1F)=Sof(H1FA)=Sof(H1FB)=Sof(H1FC)=Sof(C66A)=Sof(H66D)=Sof(H66E)=
 Sof(H66F)=Sof(C67A)=Sof(H67D)=Sof(H67E)=Sof(H67F)=1-FVAR(1)
 Sof(C66)=Sof(H66A)=Sof(H66B)=Sof(H66C)=Sof(C1C)=Sof(H1CA)=Sof(H1CB)=Sof(H1CC)=
 Sof(C67)=Sof(H67A)=Sof(H67B)=Sof(H67C)=FVAR(1)
 Sof(C1G)=Sof(H1GA)=Sof(H1GB)=Sof(H1GC)=Sof(C17A)=Sof(H17A)=Sof(H17B)=
 Sof(H17C)=Sof(C1H)=Sof(H1HA)=Sof(H1HB)=Sof(H1HC)=1-FVAR(2)
 Sof(C121)=Sof(H12A)=Sof(H12B)=Sof(H12C)=Sof(C1A)=Sof(H1AA)=Sof(H1AB)=
 Sof(H1AC)=Sof(C1E)=Sof(H1EA)=Sof(H1EB)=Sof(H1EC)=FVAR(2)
6.a Aromatic/amide H refined with riding coordinates:
 C4(H4), C10(H10), C16(H16), C17(H17), C18(H18), C21(H21), C23(H23), C26(H26),
 C27(H27), C28(H28), C29(H29), C30(H30), C34(H34), C36(H36), C38(H38), C45(H45),
  C46(H46), C49(H49), C51(H51), C52(H52), C54(H54), C55(H55), C56(H56),
 C57(H57), C58(H58), C60(H60), C61(H61), C62(H62), C63(H63), C64(H64), C71(H71),
  C76(H76), C78(H78), C83(H83), C84(H84), C85(H85), C86(H86), C87(H87),
 C88(H88), C94(H94), C99(H99), C100(H100), C101(H101), C102(H102), C103(H103),
 C104(H104), C105(H105), C107(H107), C109(H109), C111(H111), C120(H120),
 C122(H122), C128(H128), C130(H130), C131(H131), C132(H132), C133(H133),
 C134(H134), C135(H135), C136(H136)
6.b Fitted hexagon refined as free rotating group:
 C53(C52,C54,C55,C56,C57)
6.c Idealised Me refined as rotating group:
 C1(H1A,H1B,H1C), C19(H19A,H19B,H19C), C20(H20A,H20B,H20C), C40(H40A,H40B,
 H40C), C42(H42A,H42B,H42C), C43(H43A,H43B,H43C), C44(H44A,H44B,H44C), C66(H66A,
 H66B,H66C), C113(H11A,H11B,H11C), C114(H11D,H11E,H11F), C115(H11G,H11H,H11I),
 C117(H11J,H11K,H11L), C118(H11M,H11N,H11O), C119(H11P,H11Q,H11R), C121(H12A,
 H12B,H12C), C125(H12D,H12E,H12F), C126(H12G,H12H,H12I), C127(H12J,H12K,H12L),
 C1A(H1AA,H1AB,H1AC), C1C(H1CA,H1CB,H1CC), C1B(H1BA,H1BB,H1BC), C1D(H1DA,H1DB,
 H1DC), C1F(H1FA,H1FB,H1FC), C66A(H66D,H66E,H66F), C1E(H1EA,H1EB,H1EC),
 C1G(H1GA,H1GB,H1GC), C17A(H17A,H17B,H17C), C1H(H1HA,H1HB,H1HC), C67(H67A,H67B,
 H67C), C67A(H67D,H67E,H67F)
;
_shelx_res_file
;
TITL cu_d210314_0m in P-1
CELL 1.54178 12.8654 18.9405 24.2937 111.777 90.52 90.037
ZERR 4 0.0008 0.001 0.0014 0.004 0.005 0.005
LATT 1
 
SFAC C H
UNIT 280 264
SADI C66A C65A C65A C1F C66 C65A C65A C1C C67 C65A C67A C65A
SADI C66A C65A C65A C1C C67 C65A C66 C65A C65A C1F C67A C65A
DELU
RIGU
 
L.S. 7
PLAN  -20 0 0
SIZE 0.005 0.08 0.15
TEMP -173.14
HTAB
BOND $H
CONF
MORE -1
fmap 2
acta
TWIN 1 0 0 0 -1 0 0 0 -1 2
REM <HKL>D:/SMoCC_Strukturen/d210314/work/cu_d210314_0m.hkl</HKL>
 
WGHT    0.200000
BASF   0.16037
FVAR       0.11576   0.61577   0.55225
C1    1    0.628538    0.085583   -0.216080    11.00000    0.09460    0.04192 =
         0.10550    0.02646    0.03145    0.01292
AFIX 137
H1A   2    0.643720    0.060795   -0.187972    11.00000   -1.50000
H1B   2    0.670421    0.062315   -0.251735    11.00000   -1.50000
H1C   2    0.554594    0.079372   -0.226908    11.00000   -1.50000
AFIX   0
C2    1    0.654874    0.170249   -0.187409    11.00000    0.05434    0.04069 =
         0.09820    0.03405    0.02960    0.01544
C3    1    0.595092    0.205992   -0.129465    11.00000    0.03698    0.03364 =
         0.08362    0.02728    0.00803    0.00201
C4    1    0.535395    0.271701   -0.116918    11.00000    0.03848    0.02650 =
         0.06816    0.02419    0.00656    0.00052
AFIX  43
H4    2    0.533886    0.296521   -0.144466    11.00000   -1.20000
AFIX   0
C5    1    0.478651    0.301384   -0.065555    11.00000    0.03253    0.02369 =
         0.06118    0.02011   -0.00118   -0.00166
C6    1    0.417480    0.371263   -0.052879    11.00000    0.03071    0.02898 =
         0.06069    0.02480    0.00701    0.00145
C7    1    0.402330    0.427177    0.001018    11.00000    0.02793    0.03324 =
         0.05757    0.02204    0.00311    0.00035
C8    1    0.420299    0.450603    0.064079    11.00000    0.02811    0.03460 =
         0.05915    0.02154    0.00264   -0.00087
C9    1    0.358935    0.516723    0.091652    11.00000    0.02834    0.03200 =
         0.05524    0.01860   -0.00132   -0.00477
C10   1    0.353789    0.551864    0.152629    11.00000    0.03768    0.03314 =
         0.05978    0.02030   -0.00041   -0.00408
AFIX  43
H10   2    0.311462    0.595375    0.170327    11.00000   -1.20000
AFIX   0
C11   1    0.412358    0.521943    0.187822    11.00000    0.04360    0.03400 =
         0.05761    0.01960   -0.00174   -0.00711
C12   1    0.430448    0.545243    0.251312    11.00000    0.04906    0.03686 =
         0.05556    0.02174   -0.00203   -0.01159
C13   1    0.406739    0.598020    0.304978    11.00000    0.05629    0.04406 =
         0.05605    0.02382    0.00160   -0.00853
C14   1    0.475191    0.582829    0.350524    11.00000    0.07641    0.04000 =
         0.05726    0.02667   -0.00786   -0.01203
C15   1    0.472002    0.627222    0.414494    11.00000    0.09808    0.04947 =
         0.06071    0.03123   -0.00689   -0.00907
C16   1    0.561224    0.655989    0.448275    11.00000    0.11006    0.05067 =
         0.05931    0.02408   -0.01619   -0.00826
AFIX  43
H16   2    0.627073    0.646222    0.429608    11.00000   -1.20000
AFIX   0
C17   1    0.556265    0.698347    0.508223    11.00000    0.14463    0.06868 =
         0.06319    0.02787   -0.00740   -0.00693
AFIX  43
H17   2    0.617973    0.716797    0.530788    11.00000   -1.20000
AFIX   0
C18   1    0.461962    0.713231    0.534428    11.00000    0.15453    0.06174 =
         0.06184    0.02291    0.00168   -0.00105
AFIX  43
H18   2    0.458516    0.743096    0.575577    11.00000   -1.20000
AFIX   0
C19   1    0.628851    0.208523   -0.231075    11.00000    0.08051    0.04996 =
         0.09352    0.03247    0.03330    0.02207
AFIX 137
H19A  2    0.663648    0.181584   -0.268770    11.00000   -1.50000
H19B  2    0.652692    0.261504   -0.214806    11.00000   -1.50000
H19C  2    0.553495    0.207067   -0.237699    11.00000   -1.50000
AFIX   0
C20   1    0.770711    0.181383   -0.172364    11.00000    0.05335    0.09476 =
         0.11896    0.04315    0.02886    0.01865
AFIX 137
H20A  2    0.789450    0.155153   -0.145706    11.00000   -1.50000
H20B  2    0.786005    0.235776   -0.152865    11.00000   -1.50000
H20C  2    0.811023    0.160368   -0.208863    11.00000   -1.50000
AFIX   0
C21   1    0.599471    0.172950   -0.086926    11.00000    0.04693    0.03505 =
         0.09176    0.03392    0.01106    0.00973
AFIX  43
H21   2    0.643361    0.130292   -0.093675    11.00000   -1.20000
AFIX   0
C22   1    0.542474    0.199742   -0.035224    11.00000    0.03714    0.03471 =
         0.07997    0.03158   -0.00042    0.00598
C23   1    0.480583    0.263776   -0.025066    11.00000    0.02727    0.03295 =
         0.06634    0.02551   -0.00397    0.00144
AFIX  43
H23   2    0.439217    0.282303    0.009536    11.00000   -1.20000
AFIX   0
C24   1    0.359613    0.393159   -0.099011    11.00000    0.03122    0.03047 =
         0.06022    0.02756    0.00857    0.00553
C25   1    0.348701    0.342847   -0.162046    11.00000    0.02873    0.03096 =
         0.05953    0.02505    0.00970    0.00996
C26   1    0.370809    0.367548   -0.207666    11.00000    0.04161    0.03289 =
         0.05768    0.02483    0.00508    0.00095
AFIX  43
H26   2    0.396105    0.417871   -0.198142    11.00000   -1.20000
AFIX   0
C27   1    0.357433    0.321916   -0.265929    11.00000    0.05565    0.04530 =
         0.05712    0.02652    0.00879    0.00108
AFIX  43
H27   2    0.375922    0.340060   -0.296116    11.00000   -1.20000
AFIX   0
C28   1    0.316776    0.248899   -0.281165    11.00000    0.05091    0.04363 =
         0.05592    0.01762    0.00047   -0.00199
AFIX  43
H28   2    0.304993    0.217523   -0.321529    11.00000   -1.20000
AFIX   0
C29   1    0.293611    0.222619   -0.235912    11.00000    0.05192    0.03342 =
         0.06284    0.02210    0.00617    0.00733
AFIX  43
H29   2    0.267755    0.172419   -0.245552    11.00000   -1.20000
AFIX   0
C30   1    0.308026    0.268864   -0.177911    11.00000    0.03680    0.03384 =
         0.06046    0.02639    0.00972    0.00383
AFIX  43
H30   2    0.290213    0.250694   -0.147640    11.00000   -1.20000
AFIX   0
C31   1    0.315833    0.463356   -0.071520    11.00000    0.03060    0.03053 =
         0.05959    0.02340    0.00653    0.00207
C32   1    0.337101    0.486219   -0.008317    11.00000    0.03015    0.02915 =
         0.06094    0.02261    0.00419   -0.00153
C33   1    0.334089    0.661872    0.318763    11.00000    0.05663    0.04481 =
         0.04290    0.01768    0.00194   -0.00765
C34   1    0.234807    0.651266    0.293953    11.00000    0.05238    0.05074 =
         0.05364    0.01982    0.00736   -0.00912
AFIX  43
H34   2    0.214908    0.602149    0.267127    11.00000   -1.20000
AFIX   0
C35   1    0.163807    0.710318    0.307201    11.00000    0.05274    0.05855 =
         0.05288    0.02237    0.01009   -0.00546
C36   1    0.195078    0.781085    0.348440    11.00000    0.06476    0.05427 =
         0.05859    0.01749    0.00549   -0.00014
AFIX  43
H36   2    0.146794    0.821796    0.359649    11.00000   -1.20000
AFIX   0
C37   1    0.294681    0.794153    0.373774    11.00000    0.06865    0.05060 =
         0.06114    0.01725   -0.00178   -0.00421
C38   1    0.362266    0.734036    0.359071    11.00000    0.06483    0.04412 =
         0.05010    0.01784    0.00043   -0.00929
AFIX  43
H38   2    0.429662    0.741600    0.376653    11.00000   -1.20000
AFIX   0
C39   1    0.322182    0.873042    0.420783    11.00000    0.12096    0.05148 =
         0.08129    0.00225   -0.02671   -0.00307
C40   1    0.284842    0.935928    0.404891    11.00000    0.11346    0.05378 =
         0.11631    0.02052   -0.01820   -0.01764
AFIX 137
H40A  2    0.323877    0.937382    0.370871    11.00000   -1.50000
H40B  2    0.294848    0.983953    0.438624    11.00000   -1.50000
H40C  2    0.210769    0.928606    0.394522    11.00000   -1.50000
AFIX   0
C41   1    0.054631    0.694428    0.278374    11.00000    0.05013    0.06749 =
         0.07320    0.02309    0.00810   -0.00342
C42   1   -0.008821    0.768437    0.294442    11.00000    0.05671    0.07982 =
         0.11802    0.02557   -0.00494    0.00109
AFIX 137
H42A  2   -0.014233    0.792606    0.337634    11.00000   -1.50000
H42B  2   -0.078589    0.756492    0.276859    11.00000   -1.50000
H42C  2    0.026095    0.803176    0.279029    11.00000   -1.50000
AFIX   0
C43   1    0.061935    0.658327    0.211916    11.00000    0.05183    0.09672 =
         0.07186    0.03277   -0.00105   -0.01328
AFIX 137
H43A  2    0.102009    0.691518    0.197135    11.00000   -1.50000
H43B  2   -0.008094    0.650940    0.194437    11.00000   -1.50000
H43C  2    0.096643    0.609023    0.200916    11.00000   -1.50000
AFIX   0
C44   1   -0.003596    0.641100    0.302141    11.00000    0.06629    0.07931 =
         0.08138    0.01719    0.02270   -0.01214
AFIX 137
H44A  2    0.028296    0.590620    0.286705    11.00000   -1.50000
H44B  2   -0.076550    0.637141    0.289352    11.00000   -1.50000
H44C  2    0.000276    0.661479    0.345546    11.00000   -1.50000
AFIX   0
C45   1    0.368518    0.685720    0.502470    11.00000    0.14871    0.08418 =
         0.07075    0.03561    0.00900   -0.00474
AFIX  43
H45   2    0.303194    0.696166    0.521702    11.00000   -1.20000
AFIX   0
C46   1    0.375036    0.642542    0.441529    11.00000    0.10757    0.05504 =
         0.06254    0.03306    0.00313   -0.00503
AFIX  43
H46   2    0.313588    0.623817    0.418778    11.00000   -1.20000
AFIX   0
C47   1    0.539572    0.523335    0.323189    11.00000    0.07142    0.03691 =
         0.06429    0.02714   -0.01201   -0.01138
C48   1    0.514733    0.496088    0.259372    11.00000    0.05497    0.03771 =
         0.06115    0.02429   -0.00795   -0.01258
C49   1    0.541030    0.444696    0.206585    11.00000    0.05225    0.03306 =
         0.06473    0.02444   -0.00757   -0.00911
AFIX  43
H49   2    0.590804    0.405458    0.200049    11.00000   -1.20000
AFIX   0
C50   1    0.479145    0.459274    0.159670    11.00000    0.03723    0.03211 =
         0.05823    0.02316   -0.00469   -0.00708
C51   1    0.481620    0.422913    0.099673    11.00000    0.02978    0.02898 =
         0.06197    0.01893   -0.00555   -0.00529
AFIX  43
H51   2    0.524193    0.379485    0.082196    11.00000   -1.20000
AFIX  66
C53   1    0.624081    0.489024    0.348420    11.00000    0.09775    0.02984 =
         0.06158    0.01247   -0.03085   -0.00812
C52   1    0.605030    0.470353    0.397612    11.00000    0.15173    0.04562 =
         0.06795    0.02612   -0.03204   -0.01071
AFIX  43
H52   2    0.537691    0.477378    0.414491    11.00000   -1.20000
AFIX  65
C54   1    0.684505    0.441403    0.422109    11.00000    0.18803    0.04603 =
         0.08206    0.01535   -0.05568    0.01001
AFIX  43
H54   2    0.671484    0.428643    0.455730    11.00000   -1.20000
AFIX  65
C55   1    0.783033    0.431124    0.397413    11.00000    0.18308    0.05516 =
         0.09417    0.00367   -0.05351    0.02825
AFIX  43
H55   2    0.837350    0.411338    0.414156    11.00000   -1.20000
AFIX  65
C56   1    0.802085    0.449795    0.348221    11.00000    0.13373    0.06396 =
         0.09768    0.00299   -0.04602    0.03901
AFIX  43
H56   2    0.869424    0.442769    0.331343    11.00000   -1.20000
AFIX  65
C57   1    0.722611    0.478744    0.323724    11.00000    0.09402    0.05168 =
         0.07979    0.01308   -0.02168    0.01661
AFIX  43
H57   2    0.735632    0.491505    0.290103    11.00000   -1.20000
AFIX   0
C58   1    0.311549    0.537554    0.045108    11.00000    0.03344    0.03052 =
         0.05941    0.02278    0.00209    0.00044
AFIX  43
H58   2    0.269051    0.580834    0.051529    11.00000   -1.20000
AFIX   0
C59   1    0.251394    0.508112   -0.096815    11.00000    0.04305    0.02647 =
         0.06019    0.02446    0.00654    0.00348
C60   1    0.259462    0.587762   -0.071918    11.00000    0.04662    0.02844 =
         0.06052    0.02526    0.01161    0.00345
AFIX  43
H60   2    0.305379    0.611271   -0.039367    11.00000   -1.20000
AFIX   0
C61   1    0.200440    0.632427   -0.094743    11.00000    0.05260    0.02947 =
         0.06579    0.02721    0.01185    0.00654
AFIX  43
H61   2    0.206911    0.686216   -0.077746    11.00000   -1.20000
AFIX   0
C62   1    0.132812    0.599575   -0.141649    11.00000    0.05431    0.03749 =
         0.07149    0.03113    0.00721    0.00822
AFIX  43
H62   2    0.092663    0.630433   -0.156873    11.00000   -1.20000
AFIX   0
C63   1    0.123938    0.521202   -0.166368    11.00000    0.05519    0.03461 =
         0.07506    0.02843   -0.00748    0.00704
AFIX  43
H63   2    0.077398    0.498143   -0.198690    11.00000   -1.20000
AFIX   0
C64   1    0.182434    0.476287   -0.144279    11.00000    0.05038    0.02746 =
         0.06795    0.02223   -0.00105    0.00395
AFIX  43
H64   2    0.175515    0.422559   -0.161812    11.00000   -1.20000
AFIX   0
PART 1
C66   1    0.456870    0.178575    0.049999    21.00000    0.05621    0.05424 =
         0.07873    0.04287   -0.01047    0.00095
AFIX 137
H66A  2    0.458650    0.232882    0.074705    21.00000   -1.50000
H66B  2    0.460305    0.148729    0.075393    21.00000   -1.50000
H66C  2    0.392179    0.166615    0.026702    21.00000   -1.50000
AFIX   0
C67   1    0.538300    0.070288   -0.028761    21.00000    0.08219    0.04065 =
         0.08917    0.04182   -0.00333   -0.00019
AFIX 137
H67A  2    0.474620    0.059793   -0.052950    21.00000   -1.50000
H67B  2    0.536536    0.042158   -0.002095    21.00000   -1.50000
H67C  2    0.598749    0.054302   -0.054668    21.00000   -1.50000
AFIX   0
 
PART 0
C69   1   -0.035465   -0.335275    0.024169    11.00000    0.03977    0.04469 =
         0.08498    0.04373    0.00177   -0.00157
C70   1   -0.040455   -0.294938   -0.021195    11.00000    0.04144    0.02880 =
         0.07134    0.02790    0.00129    0.00159
C71   1    0.020028   -0.231149   -0.013225    11.00000    0.03464    0.02759 =
         0.05897    0.02235    0.00400    0.00412
AFIX  43
H71   2    0.065787   -0.212384    0.019996    11.00000   -1.20000
AFIX   0
C72   1    0.014659   -0.194141   -0.053271    11.00000    0.03228    0.02267 =
         0.05606    0.01582    0.00632    0.00387
C73   1    0.075199   -0.123750   -0.042031    11.00000    0.03114    0.02563 =
         0.06119    0.02157   -0.00245    0.00182
C74   1    0.096892   -0.067756    0.011391    11.00000    0.02610    0.02319 =
         0.06297    0.01946    0.00299    0.00551
C75   1    0.091140   -0.045537    0.075479    11.00000    0.02782    0.02386 =
         0.06611    0.02048    0.00254    0.00466
C76   1    0.036143   -0.074069    0.112352    11.00000    0.02921    0.02504 =
         0.06699    0.02122    0.00673    0.00513
AFIX  43
H76   2   -0.009137   -0.116572    0.096143    11.00000   -1.20000
AFIX   0
C77   1    0.049572   -0.038847    0.172559    11.00000    0.03532    0.03102 =
         0.06317    0.02145    0.01074    0.01109
C78   1   -0.004441   -0.052047    0.221167    11.00000    0.04575    0.03521 =
         0.06773    0.02273    0.01259    0.00690
AFIX  43
H78   2   -0.055014   -0.090451    0.216547    11.00000   -1.20000
AFIX   0
C79   1    0.029793   -0.000579    0.273320    11.00000    0.05440    0.03040 =
         0.06655    0.02093    0.01102    0.00455
C80   1    0.013671    0.027435    0.336192    11.00000    0.07084    0.03062 =
         0.07034    0.01798    0.01863    0.00026
C81   1    0.079957    0.087907    0.362622    11.00000    0.07329    0.03932 =
         0.06275    0.01703    0.01694   -0.00137
C82   1    0.092727    0.135939    0.425892    11.00000    0.08240    0.04663 =
         0.06542    0.02007    0.02228   -0.00878
C83   1    0.009077    0.168122    0.461394    11.00000    0.09048    0.05655 =
         0.06991    0.01568    0.02690   -0.01010
AFIX  43
H83   2   -0.059139    0.157231    0.445090    11.00000   -1.20000
AFIX   0
C84   1    0.021580    0.215729    0.519968    11.00000    0.10679    0.06089 =
         0.07085    0.01085    0.02758   -0.02139
AFIX  43
H84   2   -0.037348    0.236791    0.543630    11.00000   -1.20000
AFIX   0
C85   1    0.120559    0.232429    0.543820    11.00000    0.11467    0.06371 =
         0.06895    0.00812    0.02292   -0.02446
AFIX  43
H85   2    0.129281    0.266214    0.583809    11.00000   -1.20000
AFIX   0
C86   1    0.140921   -0.244439   -0.272721    11.00000    0.05768    0.04491 =
         0.06019    0.02055    0.00882    0.00695
AFIX  43
H86   2    0.146058   -0.275976   -0.313439    11.00000   -1.20000
AFIX   0
C87   1    0.101461   -0.170933   -0.255832    11.00000    0.05833    0.04807 =
         0.06207    0.02508   -0.00257    0.00596
AFIX  43
H87   2    0.077868   -0.152422   -0.285117    11.00000   -1.20000
AFIX   0
C88   1    0.096769   -0.125772   -0.197440    11.00000    0.04336    0.03587 =
         0.06111    0.02714   -0.00244    0.00400
AFIX  43
H88   2    0.071173   -0.075455   -0.186763    11.00000   -1.20000
AFIX   0
C89   1    0.128029   -0.150615   -0.152997    11.00000    0.02602    0.03316 =
         0.06221    0.02685    0.00011   -0.00426
C90   1    0.124405   -0.101633   -0.089215    11.00000    0.02979    0.02669 =
         0.06362    0.02637   -0.00018    0.00122
C91   1    0.172446   -0.032788   -0.062902    11.00000    0.03107    0.02671 =
         0.06524    0.02738   -0.00384    0.00042
C92   1    0.160974   -0.009984    0.000531    11.00000    0.03356    0.02386 =
         0.06273    0.02193   -0.00370    0.00095
C93   1    0.156472    0.019038    0.101391    11.00000    0.03171    0.02424 =
         0.06257    0.02198    0.00422    0.00449
C94   1    0.171750    0.052234    0.161278    11.00000    0.03427    0.02771 =
         0.06412    0.01691    0.00562    0.00281
AFIX  43
H94   2    0.217391    0.094538    0.177382    11.00000   -1.20000
AFIX   0
C95   1    0.119608    0.023342    0.198532    11.00000    0.03892    0.02889 =
         0.06347    0.02010    0.00609    0.00676
C96   1    0.111342    0.047385    0.262839    11.00000    0.04564    0.03261 =
         0.06224    0.01850    0.00863    0.00632
C97   1    0.141409    0.101603    0.314200    11.00000    0.05851    0.03508 =
         0.05970    0.01812    0.00956    0.00187
C98   1   -0.064771   -0.005550    0.364621    11.00000    0.08469    0.03882 =
         0.05945    0.00700    0.02346   -0.00960
C99   1   -0.040014   -0.024632    0.412904    11.00000    0.10384    0.04269 =
         0.06305    0.01435    0.01686   -0.01227
AFIX  43
H99   2    0.028090   -0.015583    0.429546    11.00000   -1.20000
AFIX   0
C100  1   -0.115868   -0.057350    0.437108    11.00000    0.12139    0.05235 =
         0.07227    0.01988    0.01557   -0.02706
AFIX  43
H100  2   -0.099239   -0.071350    0.469856    11.00000   -1.20000
AFIX   0
C101  1   -0.216022   -0.069238    0.412790    11.00000    0.11294    0.06855 =
         0.06903    0.01731    0.02196   -0.03785
AFIX  43
H101  2   -0.268491   -0.089600    0.429959    11.00000   -1.20000
AFIX   0
C102  1   -0.238212   -0.052101    0.365567    11.00000    0.10234    0.06506 =
         0.06632    0.00675    0.01985   -0.03222
AFIX  43
H102  2   -0.305920   -0.062330    0.348461    11.00000   -1.20000
AFIX   0
C103  1   -0.164755   -0.019762    0.340980    11.00000    0.08481    0.05677 =
         0.07177    0.01474    0.02003   -0.01682
AFIX  43
H103  2   -0.182698   -0.007169    0.307725    11.00000   -1.20000
AFIX   0
C104  1    0.192368    0.152702    0.450594    11.00000    0.08738    0.05214 =
         0.06371    0.02579    0.01490   -0.00872
AFIX  43
H104  2    0.250991    0.131409    0.426727    11.00000   -1.20000
AFIX   0
C105  1    0.207502    0.200739    0.510416    11.00000    0.10801    0.06019 =
         0.06796    0.02346    0.01331   -0.01946
AFIX  43
H105  2    0.275324    0.211097    0.527353    11.00000   -1.20000
AFIX   0
C106  1    0.212181    0.165926    0.323693    11.00000    0.05555    0.03407 =
         0.05808    0.01960    0.00746    0.00491
C107  1    0.307822    0.155779    0.296714    11.00000    0.05086    0.03561 =
         0.04699    0.01399    0.00525    0.00307
AFIX  43
H107  2    0.329006    0.105737    0.273003    11.00000   -1.20000
AFIX   0
C108  1    0.374034    0.215991    0.302985    11.00000    0.04791    0.04038 =
         0.05610    0.02446   -0.00260    0.00380
C109  1    0.340358    0.289020    0.338805    11.00000    0.05342    0.04140 =
         0.06418    0.02592    0.00224   -0.00131
AFIX  43
H109  2    0.384858    0.331196    0.344318    11.00000   -1.20000
AFIX   0
C110  1    0.245055    0.301760    0.366275    11.00000    0.05579    0.03473 =
         0.06438    0.02187    0.00249    0.00458
C111  1    0.181072    0.239032    0.358520    11.00000    0.05206    0.03791 =
         0.05483    0.01959    0.00706    0.00211
AFIX  43
H111  2    0.115374    0.246495    0.377333    11.00000   -1.20000
AFIX   0
C112  1    0.204367    0.381124    0.404886    11.00000    0.06653    0.03406 =
         0.07560    0.02009    0.00893    0.00592
C113  1    0.176503    0.385019    0.465763    11.00000    0.10190    0.04897 =
         0.08192    0.01675    0.02098    0.00414
AFIX 137
H11A  2    0.125636    0.345125    0.462591    11.00000   -1.50000
H11B  2    0.146547    0.434881    0.488254    11.00000   -1.50000
H11C  2    0.239121    0.377596    0.486217    11.00000   -1.50000
AFIX   0
C114  1    0.106880    0.398473    0.374034    11.00000    0.09227    0.04965 =
         0.11111    0.01259   -0.00420    0.03010
AFIX 137
H11D  2    0.125561    0.397001    0.334605    11.00000   -1.50000
H11E  2    0.080561    0.449071    0.397850    11.00000   -1.50000
H11F  2    0.052966    0.360302    0.370165    11.00000   -1.50000
AFIX   0
C115  1    0.285337    0.444100    0.411485    11.00000    0.09312    0.04374 =
         0.10461    0.02161    0.01520   -0.00547
AFIX 137
H11G  2    0.350047    0.432776    0.428100    11.00000   -1.50000
H11H  2    0.258375    0.493199    0.438022    11.00000   -1.50000
H11I  2    0.298948    0.446271    0.372518    11.00000   -1.50000
AFIX   0
C116  1    0.477293    0.202022    0.270088    11.00000    0.04822    0.05563 =
         0.07077    0.02858    0.00433    0.00186
C117  1    0.456420    0.162440    0.203957    11.00000    0.05365    0.08278 =
         0.06431    0.03257    0.00996    0.00937
AFIX 137
H11J  2    0.419819    0.114346    0.196578    11.00000   -1.50000
H11K  2    0.522534    0.152280    0.182757    11.00000   -1.50000
H11L  2    0.413458    0.195192    0.189926    11.00000   -1.50000
AFIX   0
C118  1    0.537248    0.275236    0.281652    11.00000    0.05750    0.06576 =
         0.10413    0.02643    0.01361   -0.00517
AFIX 137
H11M  2    0.495901    0.309204    0.268075    11.00000   -1.50000
H11N  2    0.603001    0.263715    0.260122    11.00000   -1.50000
H11O  2    0.551561    0.300072    0.324227    11.00000   -1.50000
AFIX   0
C119  1    0.547137    0.150039    0.290599    11.00000    0.05446    0.06625 =
         0.07373    0.02148   -0.00328    0.01195
AFIX 137
H11P  2    0.561107    0.174527    0.333237    11.00000   -1.50000
H11Q  2    0.612892    0.141258    0.269077    11.00000   -1.50000
H11R  2    0.511758    0.101324    0.282508    11.00000   -1.50000
AFIX   0
C120  1    0.196718    0.040194    0.053089    11.00000    0.03721    0.02516 =
         0.06441    0.02064   -0.00125   -0.00041
AFIX  43
H120  2    0.240818    0.082398    0.058004    11.00000   -1.20000
AFIX   0
PART 1
C121  1   -0.025201   -0.428614   -0.017442    31.00000    0.06957    0.03867 =
         0.07667    0.04301   -0.00515   -0.00045
AFIX 137
H12A  2   -0.088569   -0.446033   -0.041382    31.00000   -1.50000
H12B  2   -0.015856   -0.457342    0.008488    31.00000   -1.50000
H12C  2    0.034789   -0.436733   -0.043625    31.00000   -1.50000
AFIX   0
PART 0
C122  1   -0.104728   -0.322106   -0.070499    11.00000    0.04075    0.02455 =
         0.07342    0.02501   -0.00020   -0.00169
AFIX  43
H122  2   -0.146645   -0.365548   -0.075967    11.00000   -1.20000
AFIX   0
C123  1   -0.110579   -0.288070   -0.112867    11.00000    0.03495    0.02638 =
         0.07020    0.02433    0.00044   -0.00087
C124  1   -0.181631   -0.322928   -0.167964    11.00000    0.04926    0.03516 =
         0.07679    0.02674   -0.00978   -0.00762
C125  1   -0.169603   -0.281717   -0.211156    11.00000    0.06205    0.04593 =
         0.07651    0.03053   -0.01523   -0.01299
AFIX 137
H12D  2   -0.190482   -0.228514   -0.191668    11.00000   -1.50000
H12E  2   -0.213769   -0.306384   -0.246160    11.00000   -1.50000
H12F  2   -0.096861   -0.283878   -0.223282    11.00000   -1.50000
AFIX   0
C126  1   -0.293960   -0.316922   -0.148156    11.00000    0.04703    0.09388 =
         0.10050    0.05163   -0.01255   -0.01202
AFIX 137
H12G  2   -0.302490   -0.342977   -0.120352    11.00000   -1.50000
H12H  2   -0.339388   -0.340670   -0.182748    11.00000   -1.50000
H12I  2   -0.312505   -0.263243   -0.128581    11.00000   -1.50000
AFIX   0
C127  1   -0.153802   -0.406889   -0.200687    11.00000    0.09382    0.04031 =
         0.09196    0.02304   -0.02712   -0.00242
AFIX 137
H12J  2   -0.081834   -0.410692   -0.214338    11.00000   -1.50000
H12K  2   -0.200567   -0.429262   -0.234862    11.00000   -1.50000
H12L  2   -0.161241   -0.434309   -0.173749    11.00000   -1.50000
AFIX   0
C128  1   -0.051428   -0.224197   -0.102843    11.00000    0.04198    0.02723 =
         0.05916    0.02197    0.00150   -0.00067
AFIX  43
H128  2   -0.055302   -0.199436   -0.130388    11.00000   -1.20000
AFIX   0
C129  1    0.231934    0.012668   -0.090275    11.00000    0.03392    0.02835 =
         0.06460    0.02608   -0.00306   -0.00133
C130  1    0.224155    0.092355   -0.065817    11.00000    0.03581    0.03094 =
         0.06514    0.02546   -0.00833   -0.00608
AFIX  43
H130  2    0.180788    0.116355   -0.032695    11.00000   -1.20000
AFIX   0
C131  1    0.280143    0.135470   -0.090377    11.00000    0.04048    0.03194 =
         0.07259    0.02949   -0.00569   -0.00186
AFIX  43
H131  2    0.274309    0.189280   -0.073954    11.00000   -1.20000
AFIX   0
C132  1    0.343326    0.102662   -0.137464    11.00000    0.04517    0.03834 =
         0.07297    0.03240    0.00080   -0.00416
AFIX  43
H132  2    0.381403    0.133324   -0.153585    11.00000   -1.20000
AFIX   0
C133  1    0.351890    0.024133   -0.161849    11.00000    0.05141    0.03659 =
         0.08020    0.03092    0.01161   -0.00111
AFIX  43
H133  2    0.395267    0.000637   -0.195060    11.00000   -1.20000
AFIX   0
C134  1    0.296406   -0.020160   -0.137308    11.00000    0.04472    0.02812 =
         0.07322    0.02175    0.00684   -0.00204
AFIX  43
H134  2    0.303511   -0.073890   -0.153499    11.00000   -1.20000
AFIX   0
C135  1    0.165717   -0.225773   -0.170639    11.00000    0.03751    0.03049 =
         0.06120    0.02519    0.00355   -0.00042
AFIX  43
H135  2    0.186600   -0.245295   -0.141462    11.00000   -1.20000
AFIX   0
C136  1    0.172316   -0.270499   -0.229305    11.00000    0.04656    0.03634 =
         0.06520    0.02163    0.00384   -0.00187
AFIX  43
H136  2    0.199070   -0.320558   -0.240417    11.00000   -1.20000
AFIX   0
PART 1
C1A   1   -0.128823   -0.322929    0.055417    31.00000    0.04509    0.06464 =
         0.07794    0.04658    0.00187   -0.00077
AFIX 137
H1AA  2   -0.137736   -0.268328    0.077543    31.00000   -1.50000
H1AB  2   -0.127130   -0.349601    0.083114    31.00000   -1.50000
H1AC  2   -0.186974   -0.342213    0.027474    31.00000   -1.50000
AFIX   0
 
C1C   1    0.653050    0.172695    0.036723    21.00000    0.05611    0.05976 =
         0.10256    0.04489   -0.01634    0.00393
AFIX 137
H1CA  2    0.704943    0.153960    0.005382    21.00000   -1.50000
H1CB  2    0.660064    0.145406    0.063828    21.00000   -1.50000
H1CC  2    0.663971    0.227207    0.058720    21.00000   -1.50000
AFIX   0
PART 0
C1B   1    0.256939    0.878498    0.478281    11.00000    0.22528    0.08250 =
         0.08584    0.00325    0.00178   -0.01027
AFIX 137
H1BA  2    0.182900    0.870987    0.467860    11.00000   -1.50000
H1BB  2    0.267532    0.928712    0.509466    11.00000   -1.50000
H1BC  2    0.280585    0.839124    0.492594    11.00000   -1.50000
AFIX   0
C1D   1    0.433607    0.877838    0.437835    11.00000    0.13592    0.07639 =
         0.20552   -0.01100   -0.07191   -0.01145
AFIX 137
H1DA  2    0.453647    0.831732    0.444528    11.00000   -1.50000
H1DB  2    0.445152    0.922343    0.474287    11.00000   -1.50000
H1DC  2    0.475708    0.882610    0.405968    11.00000   -1.50000
AFIX   0
PART 2
C67A  1    0.632822    0.104441    0.004602   -21.00000    0.04697    0.06094 =
         0.10406    0.05743   -0.00061    0.00763
AFIX 137
H67D  2    0.623534    0.059636   -0.031900   -21.00000   -1.50000
H67E  2    0.631563    0.088908    0.038839   -21.00000   -1.50000
H67F  2    0.699715    0.128692    0.003596   -21.00000   -1.50000
AFIX   0
PART 0
C65A  1    0.546484    0.159741    0.009616    11.00000    0.04729    0.04775 =
         0.09611    0.04777   -0.00528    0.00278
PART 2
C1F   1    0.569283    0.222814    0.073932   -21.00000    0.06289    0.05793 =
         0.09187    0.05412   -0.00504    0.00179
AFIX 137
H1FA  2    0.630195    0.252993    0.072206   -21.00000   -1.50000
H1FB  2    0.582754    0.197876    0.102129   -21.00000   -1.50000
H1FC  2    0.508863    0.256200    0.086848   -21.00000   -1.50000
AFIX   0
C66A  1    0.440130    0.133716    0.021546   -21.00000    0.04815    0.04688 =
         0.08524    0.04602    0.00275    0.00846
AFIX 137
H66D  2    0.390837    0.175842    0.030527   -21.00000   -1.50000
H66E  2    0.445031    0.117467    0.055365   -21.00000   -1.50000
H66F  2    0.415968    0.091063   -0.013565   -21.00000   -1.50000
AFIX   0
 
PART 0
PART 1
C1E   1    0.062747   -0.317635    0.058082    31.00000    0.04549    0.05992 =
         0.07532    0.04268    0.00138   -0.00257
AFIX 137
H1EA  2    0.121063   -0.326014    0.030736    31.00000   -1.50000
H1EB  2    0.070104   -0.350744    0.080738    31.00000   -1.50000
H1EC  2    0.062513   -0.264393    0.085368    31.00000   -1.50000
AFIX   0
PART 0
PART 2
C1G   1    0.065992   -0.364093    0.031138   -31.00000    0.04049    0.05123 =
         0.07388    0.04000    0.00739    0.00499
AFIX 137
H1GA  2    0.089130   -0.400479   -0.007211   -31.00000   -1.50000
H1GB  2    0.061855   -0.389509    0.059602   -31.00000   -1.50000
H1GC  2    0.115669   -0.321799    0.045739   -31.00000   -1.50000
AFIX   0
C17A  1   -0.052347   -0.265019    0.093486   -31.00000    0.04803    0.04667 =
         0.07692    0.04349    0.00665    0.00648
AFIX 137
H17A  2    0.007569   -0.230430    0.103253   -31.00000   -1.50000
H17B  2   -0.058422   -0.288396    0.123178   -31.00000   -1.50000
H17C  2   -0.115744   -0.236467    0.093261   -31.00000   -1.50000
AFIX   0
C1H   1   -0.122966   -0.386959    0.020405   -31.00000    0.04300    0.04897 =
         0.09314    0.04479    0.00081   -0.00251
AFIX 137
H1HA  2   -0.187992   -0.358141    0.028497   -31.00000   -1.50000
H1HB  2   -0.112941   -0.410731    0.049662   -31.00000   -1.50000
H1HC  2   -0.126254   -0.426434   -0.019452   -31.00000   -1.50000
AFIX   0
HKLF 4
 
REM  cu_d210314_0m in P-1
REM R1 =  0.1022 for    8660 Fo > 4sig(Fo)  and  0.1413 for all   12611 data
REM   1336 parameters refined using   1735 restraints
 
END  
     
WGHT      0.2000      0.0000 

REM No hydrogen bonds found for HTAB generation

REM Highest difference peak  0.513,  deepest hole -0.393,  1-sigma level  0.069
Q1    1   0.4398  0.9021  0.3887  11.00000  0.05    0.51
Q2    1   0.4616  0.5319  0.3488  11.00000  0.05    0.40
Q3    1   0.2581  0.6895  0.4977  11.00000  0.05    0.37
Q4    1   0.4053  0.4664  0.1771  11.00000  0.05    0.34
Q5    1   0.3595  0.8744  0.4767  11.00000  0.05    0.32
Q6    1   0.5941  0.4376  0.4392  11.00000  0.05    0.28
Q7    1   0.5403  0.4891  0.3643  11.00000  0.05    0.26
Q8    1   0.6797  0.1958 -0.1322  11.00000  0.05    0.26
Q9    1   0.4443  0.5069  0.2896  11.00000  0.05    0.26
Q10   1   0.9658  0.8656  0.4810  11.00000  0.05    0.26
Q11   1   0.2034  0.4387  0.3666  11.00000  0.05    0.25
Q12   1   0.4732  0.4553  0.2404  11.00000  0.05    0.25
Q13   1  -0.3392 -0.0411  0.3593  11.00000  0.05    0.25
Q14   1   0.7442  0.6363  0.3370  11.00000  0.05    0.25
Q15   1   0.3536  0.7343  0.5510  11.00000  0.05    0.25
Q16   1   0.4172  0.3257 -0.1785  11.00000  0.05    0.24
Q17   1   0.2939  0.6504  0.4367  11.00000  0.05    0.24
Q18   1   0.2557  0.1872  0.4102  11.00000  0.05    0.24
Q19   1   0.4007  0.5765  0.3536  11.00000  0.05    0.23
Q20   1   0.4138  0.2484 -0.2899  11.00000  0.05    0.23

REM The information below was added by Olex2.
REM
REM R1 = 0.1022 for 8660 Fo > 4sig(Fo) and 0.1413 for all 26872 data
REM n/a parameters refined using n/a restraints
REM Highest difference peak 0.51, deepest hole -0.39
REM Mean Shift 0, Max Shift 0.

REM +++ Tabular Listing of Refinement Information +++
REM R1_all = 0.1413
REM R1_gt = 0.1022
REM wR_ref = 0.3150
REM GOOF = 1.139
REM Shift_max = 0
REM Shift_mean = 0
REM Reflections_all = 26872
REM Reflections_gt = 8660
REM Parameters = n/a
REM Hole = -0.39
REM Peak = 0.51
REM Flack = n/a

;
_olex2_computing_structure_refinement_long 'SHELXL-97 (Sheldrick, 2008)'
_olex2_computing_structure_solution_long 'SHELXS-97 (Sheldrick, 2008)'
loop_
_space_group_symop_operation_xyz
'x, y, z'
'-x, -y, -z'
loop_
_atom_site_label
_atom_site_type_symbol
_atom_site_fract_x
_atom_site_fract_y
_atom_site_fract_z
_atom_site_U_iso_or_equiv
_atom_site_adp_type
_atom_site_occupancy
_atom_site_site_symmetry_order
_atom_site_calc_flag
_atom_site_refinement_flags_posn
_atom_site_refinement_flags_adp
_atom_site_refinement_flags_occupancy
_atom_site_disorder_assembly
_atom_site_disorder_group
C1 C 0.6285(8) 0.0856(4) -0.2161(4) 0.081(3) Uani 1 1 d . U . . .
H1A H 0.6437 0.0608 -0.1880 0.121 Uiso 1 1 calc GR . . . .
H1B H 0.6704 0.0623 -0.2517 0.121 Uiso 1 1 calc GR . . . .
H1C H 0.5546 0.0794 -0.2269 0.121 Uiso 1 1 calc GR . . . .
C2 C 0.6549(6) 0.1702(4) -0.1874(4) 0.0618(18) Uani 1 1 d . U . . .
C3 C 0.5951(5) 0.2060(4) -0.1295(3) 0.0498(16) Uani 1 1 d . U . . .
C4 C 0.5354(5) 0.2717(3) -0.1169(3) 0.0424(15) Uani 1 1 d . U . . .
H4 H 0.5339 0.2965 -0.1445 0.051 Uiso 1 1 calc R . . . .
C5 C 0.4787(5) 0.3014(3) -0.0656(3) 0.0379(14) Uani 1 1 d . U . . .
C6 C 0.4175(5) 0.3713(3) -0.0529(3) 0.0377(13) Uani 1 1 d . U . . .
C7 C 0.4023(5) 0.4272(3) 0.0010(3) 0.0381(13) Uani 1 1 d . U . . .
C8 C 0.4203(5) 0.4506(3) 0.0641(3) 0.0394(13) Uani 1 1 d . U . . .
C9 C 0.3589(5) 0.5167(3) 0.0917(3) 0.0378(13) Uani 1 1 d . U . . .
C10 C 0.3538(5) 0.5519(4) 0.1526(3) 0.0427(14) Uani 1 1 d . U . . .
H10 H 0.3115 0.5954 0.1703 0.051 Uiso 1 1 calc R . . . .
C11 C 0.4124(5) 0.5219(3) 0.1878(3) 0.0443(14) Uani 1 1 d . U . . .
C12 C 0.4304(6) 0.5452(4) 0.2513(3) 0.0459(14) Uani 1 1 d . U . . .
C13 C 0.4067(6) 0.5980(4) 0.3050(3) 0.0506(15) Uani 1 1 d . U . . .
C14 C 0.4752(7) 0.5828(4) 0.3505(3) 0.0555(16) Uani 1 1 d . U . . .
C15 C 0.4720(8) 0.6272(4) 0.4145(4) 0.0664(18) Uani 1 1 d . U . . .
C16 C 0.5612(9) 0.6560(4) 0.4483(4) 0.072(2) Uani 1 1 d . U . . .
H16 H 0.6271 0.6462 0.4296 0.087 Uiso 1 1 calc R . . . .
C17 C 0.5563(11) 0.6983(5) 0.5082(4) 0.091(3) Uani 1 1 d . U . . .
H17 H 0.6180 0.7168 0.5308 0.110 Uiso 1 1 calc R . . . .
C18 C 0.4620(11) 0.7132(5) 0.5344(4) 0.093(3) Uani 1 1 d . U . . .
H18 H 0.4585 0.7431 0.5756 0.111 Uiso 1 1 calc R . . . .
C19 C 0.6289(7) 0.2085(4) -0.2311(4) 0.073(2) Uani 1 1 d . U . . .
H19A H 0.6636 0.1816 -0.2688 0.109 Uiso 1 1 calc GR . . . .
H19B H 0.6527 0.2615 -0.2148 0.109 Uiso 1 1 calc GR . . . .
H19C H 0.5535 0.2071 -0.2377 0.109 Uiso 1 1 calc GR . . . .
C20 C 0.7707(7) 0.1814(6) -0.1724(5) 0.088(3) Uani 1 1 d . U . . .
H20A H 0.7894 0.1552 -0.1457 0.132 Uiso 1 1 calc GR . . . .
H20B H 0.7860 0.2358 -0.1529 0.132 Uiso 1 1 calc GR . . . .
H20C H 0.8110 0.1604 -0.2089 0.132 Uiso 1 1 calc GR . . . .
C21 C 0.5995(6) 0.1729(4) -0.0869(4) 0.0549(18) Uani 1 1 d . U . . .
H21 H 0.6434 0.1303 -0.0937 0.066 Uiso 1 1 calc R . . . .
C22 C 0.5425(5) 0.1997(4) -0.0352(3) 0.0477(15) Uani 1 1 d . U . . .
C23 C 0.4806(5) 0.2638(3) -0.0251(3) 0.0402(15) Uani 1 1 d . U . . .
H23 H 0.4392 0.2823 0.0095 0.048 Uiso 1 1 calc R . . . .
C24 C 0.3596(5) 0.3932(3) -0.0990(3) 0.0375(13) Uani 1 1 d . U . . .
C25 C 0.3487(5) 0.3428(3) -0.1620(3) 0.0373(13) Uani 1 1 d . U . . .
C26 C 0.3708(5) 0.3675(4) -0.2077(3) 0.0417(15) Uani 1 1 d . U . . .
H26 H 0.3961 0.4179 -0.1981 0.050 Uiso 1 1 calc R . . . .
C27 C 0.3574(6) 0.3219(4) -0.2659(3) 0.0505(17) Uani 1 1 d . U . . .
H27 H 0.3759 0.3401 -0.2961 0.061 Uiso 1 1 calc R . . . .
C28 C 0.3168(6) 0.2489(4) -0.2812(3) 0.0504(17) Uani 1 1 d . U . . .
H28 H 0.3050 0.2175 -0.3215 0.060 Uiso 1 1 calc R . . . .
C29 C 0.2936(6) 0.2226(4) -0.2359(3) 0.0481(16) Uani 1 1 d . U . . .
H29 H 0.2678 0.1724 -0.2456 0.058 Uiso 1 1 calc R . . . .
C30 C 0.3080(5) 0.2689(3) -0.1779(3) 0.0411(15) Uani 1 1 d . U . . .
H30 H 0.2902 0.2507 -0.1476 0.049 Uiso 1 1 calc R . . . .
C31 C 0.3158(5) 0.4634(3) -0.0715(3) 0.0383(13) Uani 1 1 d . U . . .
C32 C 0.3371(5) 0.4862(3) -0.0083(3) 0.0384(13) Uani 1 1 d . U . . .
C33 C 0.3341(6) 0.6619(4) 0.3188(3) 0.0477(15) Uani 1 1 d . U . . .
C34 C 0.2348(6) 0.6513(4) 0.2940(3) 0.0521(16) Uani 1 1 d . U . . .
H34 H 0.2149 0.6021 0.2671 0.062 Uiso 1 1 calc R . . . .
C35 C 0.1638(6) 0.7103(4) 0.3072(3) 0.0542(16) Uani 1 1 d . U . . .
C36 C 0.1951(7) 0.7811(4) 0.3484(3) 0.0602(18) Uani 1 1 d . U . . .
H36 H 0.1468 0.8218 0.3596 0.072 Uiso 1 1 calc R . . . .
C37 C 0.2947(7) 0.7942(4) 0.3738(3) 0.0611(18) Uani 1 1 d . U . . .
C38 C 0.3623(7) 0.7340(4) 0.3591(3) 0.0529(16) Uani 1 1 d . U . . .
H38 H 0.4297 0.7416 0.3767 0.064 Uiso 1 1 calc R . . . .
C39 C 0.3222(10) 0.8730(5) 0.4208(4) 0.091(3) Uani 1 1 d . U . . .
C40 C 0.2848(10) 0.9359(5) 0.4049(5) 0.098(3) Uani 1 1 d . U . . .
H40A H 0.3239 0.9374 0.3709 0.147 Uiso 1 1 calc GR . . . .
H40B H 0.2948 0.9840 0.4386 0.147 Uiso 1 1 calc GR . . . .
H40C H 0.2108 0.9286 0.3945 0.147 Uiso 1 1 calc GR . . . .
C41 C 0.0546(6) 0.6944(5) 0.2784(4) 0.0644(18) Uani 1 1 d . U . . .
C42 C -0.0088(8) 0.7684(5) 0.2944(5) 0.088(3) Uani 1 1 d . U . . .
H42A H -0.0142 0.7926 0.3376 0.132 Uiso 1 1 calc GR . . . .
H42B H -0.0786 0.7565 0.2769 0.132 Uiso 1 1 calc GR . . . .
H42C H 0.0261 0.8032 0.2790 0.132 Uiso 1 1 calc GR . . . .
C43 C 0.0619(7) 0.6583(5) 0.2119(4) 0.073(2) Uani 1 1 d . U . . .
H43A H 0.1020 0.6915 0.1971 0.110 Uiso 1 1 calc GR . . . .
H43B H -0.0081 0.6509 0.1944 0.110 Uiso 1 1 calc GR . . . .
H43C H 0.0966 0.6090 0.2009 0.110 Uiso 1 1 calc GR . . . .
C44 C -0.0036(8) 0.6411(5) 0.3021(4) 0.079(2) Uani 1 1 d . U . . .
H44A H 0.0283 0.5906 0.2867 0.119 Uiso 1 1 calc GR . . . .
H44B H -0.0765 0.6371 0.2894 0.119 Uiso 1 1 calc GR . . . .
H44C H 0.0003 0.6615 0.3455 0.119 Uiso 1 1 calc GR . . . .
C45 C 0.3685(11) 0.6857(6) 0.5025(4) 0.099(3) Uani 1 1 d . U . . .
H45 H 0.3032 0.6962 0.5217 0.119 Uiso 1 1 calc R . . . .
C46 C 0.3750(8) 0.6425(4) 0.4415(4) 0.072(2) Uani 1 1 d . U . . .
H46 H 0.3136 0.6238 0.4188 0.086 Uiso 1 1 calc R . . . .
C47 C 0.5396(6) 0.5233(4) 0.3232(3) 0.0552(16) Uani 1 1 d . U . . .
C48 C 0.5147(6) 0.4961(4) 0.2594(3) 0.0496(15) Uani 1 1 d . U . . .
C49 C 0.5410(6) 0.4447(4) 0.2066(3) 0.0483(15) Uani 1 1 d . U . . .
H49 H 0.5908 0.4055 0.2000 0.058 Uiso 1 1 calc R . . . .
C50 C 0.4791(5) 0.4593(3) 0.1597(3) 0.0407(14) Uani 1 1 d . U . . .
C51 C 0.4816(5) 0.4229(3) 0.0997(3) 0.0397(14) Uani 1 1 d . U . . .
H51 H 0.5242 0.3795 0.0822 0.048 Uiso 1 1 calc R . . . .
C53 C 0.6241(4) 0.4890(3) 0.3484(2) 0.0646(18) Uani 1 1 d . U . . .
C52 C 0.6050(5) 0.4704(3) 0.3976(2) 0.087(2) Uani 1 1 d G U . . .
H52 H 0.5377 0.4774 0.4145 0.105 Uiso 1 1 calc R . . . .
C54 C 0.6845(6) 0.4414(3) 0.4221(2) 0.108(3) Uani 1 1 d G U . . .
H54 H 0.6715 0.4286 0.4557 0.130 Uiso 1 1 calc R . . . .
C55 C 0.7830(6) 0.4311(3) 0.3974(3) 0.118(3) Uani 1 1 d G U . . .
H55 H 0.8374 0.4113 0.4142 0.142 Uiso 1 1 calc R . . . .
C56 C 0.8021(5) 0.4498(3) 0.3482(3) 0.106(3) Uani 1 1 d G U . . .
H56 H 0.8694 0.4428 0.3313 0.128 Uiso 1 1 calc R . . . .
C57 C 0.7226(5) 0.4787(3) 0.3237(2) 0.079(2) Uani 1 1 d G U . . .
H57 H 0.7356 0.4915 0.2901 0.094 Uiso 1 1 calc R . . . .
C58 C 0.3115(5) 0.5376(3) 0.0451(3) 0.0394(14) Uani 1 1 d . U . . .
H58 H 0.2691 0.5808 0.0515 0.047 Uiso 1 1 calc R . . . .
C59 C 0.2514(5) 0.5081(3) -0.0968(3) 0.0408(14) Uani 1 1 d . U . . .
C60 C 0.2595(5) 0.5878(3) -0.0719(3) 0.0426(15) Uani 1 1 d . U . . .
H60 H 0.3054 0.6113 -0.0394 0.051 Uiso 1 1 calc R . . . .
C61 C 0.2004(6) 0.6324(4) -0.0947(3) 0.0465(16) Uani 1 1 d . U . . .
H61 H 0.2069 0.6862 -0.0777 0.056 Uiso 1 1 calc R . . . .
C62 C 0.1328(6) 0.5996(4) -0.1416(3) 0.0513(17) Uani 1 1 d . U . . .
H62 H 0.0927 0.6304 -0.1569 0.062 Uiso 1 1 calc R . . . .
C63 C 0.1239(6) 0.5212(4) -0.1664(3) 0.0527(18) Uani 1 1 d . U . . .
H63 H 0.0774 0.4981 -0.1987 0.063 Uiso 1 1 calc R . . . .
C64 C 0.1824(6) 0.4763(4) -0.1443(3) 0.0473(16) Uani 1 1 d . U . . .
H64 H 0.1755 0.4226 -0.1618 0.057 Uiso 1 1 calc R . . . .
C66 C 0.4569(10) 0.1786(8) 0.0500(6) 0.058(3) Uani 0.616(12) 1 d . U P A 1
H66A H 0.4587 0.2329 0.0747 0.087 Uiso 0.616(12) 1 calc GR . P A 1
H66B H 0.4603 0.1487 0.0754 0.087 Uiso 0.616(12) 1 calc GR . P A 1
H66C H 0.3922 0.1666 0.0267 0.087 Uiso 0.616(12) 1 calc GR . P A 1
C67 C 0.5383(12) 0.0703(5) -0.0288(6) 0.066(4) Uani 0.616(12) 1 d . U P A 1
H67A H 0.4746 0.0598 -0.0529 0.098 Uiso 0.616(12) 1 calc GR . P A 1
H67B H 0.5365 0.0422 -0.0021 0.098 Uiso 0.616(12) 1 calc GR . P A 1
H67C H 0.5987 0.0543 -0.0547 0.098 Uiso 0.616(12) 1 calc GR . P A 1
C69 C -0.0355(6) -0.3353(4) 0.0242(3) 0.0508(15) Uani 1 1 d . U . . .
C70 C -0.0405(5) -0.2949(3) -0.0212(3) 0.0445(15) Uani 1 1 d . U . . .
C71 C 0.0200(5) -0.2311(3) -0.0132(3) 0.0386(14) Uani 1 1 d . U . . .
H71 H 0.0658 -0.2124 0.0200 0.046 Uiso 1 1 calc R . . . .
C72 C 0.0147(5) -0.1941(3) -0.0533(3) 0.0366(14) Uani 1 1 d . U . . .
C73 C 0.0752(5) -0.1237(3) -0.0420(3) 0.0378(13) Uani 1 1 d . U . . .
C74 C 0.0969(5) -0.0678(3) 0.0114(3) 0.0364(13) Uani 1 1 d . U . . .
C75 C 0.0911(5) -0.0455(3) 0.0755(3) 0.0382(13) Uani 1 1 d . U . . .
C76 C 0.0361(5) -0.0741(3) 0.1124(3) 0.0392(14) Uani 1 1 d . U . . .
H76 H -0.0091 -0.1166 0.0961 0.047 Uiso 1 1 calc R . . . .
C77 C 0.0496(5) -0.0388(3) 0.1726(3) 0.0420(14) Uani 1 1 d . U . . .
C78 C -0.0044(6) -0.0520(4) 0.2212(3) 0.0484(16) Uani 1 1 d . U . . .
H78 H -0.0550 -0.0905 0.2165 0.058 Uiso 1 1 calc R . . . .
C79 C 0.0298(6) -0.0006(4) 0.2733(3) 0.0495(16) Uani 1 1 d . U . . .
C80 C 0.0137(7) 0.0274(4) 0.3362(3) 0.0574(17) Uani 1 1 d . U . . .
C81 C 0.0800(7) 0.0879(4) 0.3626(3) 0.0589(18) Uani 1 1 d . U . . .
C82 C 0.0927(7) 0.1359(4) 0.4259(4) 0.0649(18) Uani 1 1 d . U . . .
C83 C 0.0091(8) 0.1681(5) 0.4614(4) 0.074(2) Uani 1 1 d . U . . .
H83 H -0.0591 0.1572 0.4451 0.089 Uiso 1 1 calc R . . . .
C84 C 0.0216(9) 0.2157(5) 0.5200(4) 0.083(2) Uani 1 1 d . U . . .
H84 H -0.0373 0.2368 0.5436 0.100 Uiso 1 1 calc R . . . .
C85 C 0.1206(9) 0.2324(5) 0.5438(4) 0.087(2) Uani 1 1 d . U . . .
H85 H 0.1293 0.2662 0.5838 0.104 Uiso 1 1 calc R . . . .
C86 C 0.1409(6) -0.2444(4) -0.2727(3) 0.0539(18) Uani 1 1 d . U . . .
H86 H 0.1461 -0.2760 -0.3134 0.065 Uiso 1 1 calc R . . . .
C87 C 0.1015(6) -0.1709(4) -0.2558(3) 0.0548(18) Uani 1 1 d . U . . .
H87 H 0.0779 -0.1524 -0.2851 0.066 Uiso 1 1 calc R . . . .
C88 C 0.0968(5) -0.1258(4) -0.1974(3) 0.0442(15) Uani 1 1 d . U . . .
H88 H 0.0712 -0.0755 -0.1868 0.053 Uiso 1 1 calc R . . . .
C89 C 0.1280(5) -0.1506(3) -0.1530(3) 0.0378(13) Uani 1 1 d . U . . .
C90 C 0.1244(5) -0.1016(3) -0.0892(3) 0.0373(13) Uani 1 1 d . U . . .
C91 C 0.1724(5) -0.0328(3) -0.0629(3) 0.0381(13) Uani 1 1 d . U . . .
C92 C 0.1610(5) -0.0100(3) 0.0005(3) 0.0384(13) Uani 1 1 d . U . . .
C93 C 0.1565(5) 0.0190(3) 0.1014(3) 0.0378(13) Uani 1 1 d . U . . .
C94 C 0.1718(5) 0.0522(3) 0.1613(3) 0.0420(14) Uani 1 1 d . U . . .
H94 H 0.2174 0.0945 0.1774 0.050 Uiso 1 1 calc R . . . .
C95 C 0.1196(5) 0.0233(3) 0.1985(3) 0.0429(14) Uani 1 1 d . U . . .
C96 C 0.1113(6) 0.0474(4) 0.2628(3) 0.0465(15) Uani 1 1 d . U . . .
C97 C 0.1414(6) 0.1016(4) 0.3142(3) 0.0509(16) Uani 1 1 d . U . . .
C98 C -0.0648(7) -0.0055(4) 0.3646(4) 0.0641(19) Uani 1 1 d . U . . .
C99 C -0.0400(8) -0.0246(4) 0.4129(4) 0.071(2) Uani 1 1 d . U . . .
H99 H 0.0281 -0.0156 0.4295 0.086 Uiso 1 1 calc R . . . .
C100 C -0.1159(9) -0.0573(5) 0.4371(4) 0.083(2) Uani 1 1 d . U . . .
H100 H -0.0992 -0.0713 0.4699 0.099 Uiso 1 1 calc R . . . .
C101 C -0.2160(9) -0.0692(5) 0.4128(4) 0.086(3) Uani 1 1 d . U . . .
H101 H -0.2685 -0.0896 0.4300 0.103 Uiso 1 1 calc R . . . .
C102 C -0.2382(9) -0.0521(5) 0.3656(4) 0.083(2) Uani 1 1 d . U . . .
H102 H -0.3059 -0.0623 0.3485 0.099 Uiso 1 1 calc R . . . .
C103 C -0.1648(8) -0.0198(4) 0.3410(4) 0.074(2) Uani 1 1 d . U . . .
H103 H -0.1827 -0.0072 0.3077 0.088 Uiso 1 1 calc R . . . .
C104 C 0.1924(8) 0.1527(4) 0.4506(4) 0.0664(19) Uani 1 1 d . U . . .
H104 H 0.2510 0.1314 0.4267 0.080 Uiso 1 1 calc R . . . .
C105 C 0.2075(9) 0.2007(5) 0.5104(4) 0.079(2) Uani 1 1 d . U . . .
H105 H 0.2753 0.2111 0.5274 0.094 Uiso 1 1 calc R . . . .
C106 C 0.2122(6) 0.1659(4) 0.3237(3) 0.0485(16) Uani 1 1 d . U . . .
C107 C 0.3078(6) 0.1558(4) 0.2967(3) 0.0448(15) Uani 1 1 d . U . . .
H107 H 0.3290 0.1057 0.2730 0.054 Uiso 1 1 calc R . . . .
C108 C 0.3740(6) 0.2160(4) 0.3030(3) 0.0463(15) Uani 1 1 d . U . . .
C109 C 0.3404(6) 0.2890(4) 0.3388(3) 0.0512(17) Uani 1 1 d . U . . .
H109 H 0.3849 0.3312 0.3443 0.061 Uiso 1 1 calc R . . . .
C110 C 0.2451(6) 0.3018(4) 0.3663(3) 0.0506(16) Uani 1 1 d . U . . .
C111 C 0.1811(6) 0.2390(4) 0.3585(3) 0.0475(16) Uani 1 1 d . U . . .
H111 H 0.1154 0.2465 0.3773 0.057 Uiso 1 1 calc R . . . .
C112 C 0.2044(7) 0.3811(4) 0.4049(4) 0.0587(17) Uani 1 1 d . U . . .
C113 C 0.1765(8) 0.3850(5) 0.4658(4) 0.080(2) Uani 1 1 d . U . . .
H11A H 0.1256 0.3451 0.4626 0.119 Uiso 1 1 calc GR . . . .
H11B H 0.1465 0.4349 0.4883 0.119 Uiso 1 1 calc GR . . . .
H11C H 0.2391 0.3776 0.4862 0.119 Uiso 1 1 calc GR . . . .
C114 C 0.1069(8) 0.3985(5) 0.3740(5) 0.089(3) Uani 1 1 d . U . . .
H11D H 0.1256 0.3970 0.3346 0.134 Uiso 1 1 calc GR . . . .
H11E H 0.0806 0.4491 0.3979 0.134 Uiso 1 1 calc GR . . . .
H11F H 0.0530 0.3603 0.3702 0.134 Uiso 1 1 calc GR . . . .
C115 C 0.2853(8) 0.4441(4) 0.4115(4) 0.082(3) Uani 1 1 d . U . . .
H11G H 0.3500 0.4328 0.4281 0.123 Uiso 1 1 calc GR . . . .
H11H H 0.2584 0.4932 0.4380 0.123 Uiso 1 1 calc GR . . . .
H11I H 0.2989 0.4463 0.3725 0.123 Uiso 1 1 calc GR . . . .
C116 C 0.4773(6) 0.2020(4) 0.2701(3) 0.0567(17) Uani 1 1 d . U . . .
C117 C 0.4564(7) 0.1624(5) 0.2040(3) 0.065(2) Uani 1 1 d . U . . .
H11J H 0.4198 0.1143 0.1966 0.098 Uiso 1 1 calc GR . . . .
H11K H 0.5225 0.1523 0.1828 0.098 Uiso 1 1 calc GR . . . .
H11L H 0.4135 0.1952 0.1899 0.098 Uiso 1 1 calc GR . . . .
C118 C 0.5372(7) 0.2752(5) 0.2817(4) 0.077(2) Uani 1 1 d . U . . .
H11M H 0.4959 0.3092 0.2681 0.116 Uiso 1 1 calc GR . . . .
H11N H 0.6030 0.2637 0.2601 0.116 Uiso 1 1 calc GR . . . .
H11O H 0.5516 0.3001 0.3242 0.116 Uiso 1 1 calc GR . . . .
C119 C 0.5471(7) 0.1500(5) 0.2906(4) 0.066(2) Uani 1 1 d . U . . .
H11P H 0.5611 0.1745 0.3332 0.099 Uiso 1 1 calc GR . . . .
H11Q H 0.6129 0.1413 0.2691 0.099 Uiso 1 1 calc GR . . . .
H11R H 0.5118 0.1013 0.2825 0.099 Uiso 1 1 calc GR . . . .
C120 C 0.1967(5) 0.0402(3) 0.0531(3) 0.0411(14) Uani 1 1 d . U . . .
H120 H 0.2408 0.0824 0.0580 0.049 Uiso 1 1 calc R . . . .
C121 C -0.0252(12) -0.4286(7) -0.0174(6) 0.055(3) Uani 0.552(11) 1 d . U P B 1
H12A H -0.0886 -0.4460 -0.0414 0.083 Uiso 0.552(11) 1 calc GR . P B 1
H12B H -0.0159 -0.4573 0.0085 0.083 Uiso 0.552(11) 1 calc GR . P B 1
H12C H 0.0348 -0.4367 -0.0436 0.083 Uiso 0.552(11) 1 calc GR . P B 1
C122 C -0.1047(5) -0.3221(3) -0.0705(3) 0.0443(15) Uani 1 1 d . U . . .
H122 H -0.1466 -0.3655 -0.0760 0.053 Uiso 1 1 calc R . . . .
C123 C -0.1106(5) -0.2881(3) -0.1129(3) 0.0420(14) Uani 1 1 d . U . . .
C124 C -0.1816(6) -0.3229(4) -0.1680(3) 0.0521(16) Uani 1 1 d . U . . .
C125 C -0.1696(6) -0.2817(4) -0.2112(4) 0.059(2) Uani 1 1 d . U . . .
H12D H -0.1905 -0.2285 -0.1917 0.089 Uiso 1 1 calc GR . . . .
H12E H -0.2138 -0.3064 -0.2462 0.089 Uiso 1 1 calc GR . . . .
H12F H -0.0969 -0.2839 -0.2233 0.089 Uiso 1 1 calc GR . . . .
C126 C -0.2940(7) -0.3169(5) -0.1482(4) 0.076(2) Uani 1 1 d . U . . .
H12G H -0.3025 -0.3430 -0.1204 0.114 Uiso 1 1 calc GR . . . .
H12H H -0.3394 -0.3407 -0.1827 0.114 Uiso 1 1 calc GR . . . .
H12I H -0.3125 -0.2632 -0.1286 0.114 Uiso 1 1 calc GR . . . .
C127 C -0.1538(8) -0.4069(4) -0.2007(4) 0.076(2) Uani 1 1 d . U . . .
H12J H -0.0818 -0.4107 -0.2143 0.114 Uiso 1 1 calc GR . . . .
H12K H -0.2006 -0.4293 -0.2349 0.114 Uiso 1 1 calc GR . . . .
H12L H -0.1612 -0.4343 -0.1737 0.114 Uiso 1 1 calc GR . . . .
C128 C -0.0514(5) -0.2242(3) -0.1028(3) 0.0411(15) Uani 1 1 d . U . . .
H128 H -0.0553 -0.1994 -0.1304 0.049 Uiso 1 1 calc R . . . .
C129 C 0.2319(5) 0.0127(3) -0.0903(3) 0.0398(15) Uani 1 1 d . U . . .
C130 C 0.2242(5) 0.0924(3) -0.0658(3) 0.0418(15) Uani 1 1 d . U . . .
H130 H 0.1808 0.1164 -0.0327 0.050 Uiso 1 1 calc R . . . .
C131 C 0.2801(5) 0.1355(4) -0.0904(3) 0.0455(16) Uani 1 1 d . U . . .
H131 H 0.2743 0.1893 -0.0740 0.055 Uiso 1 1 calc R . . . .
C132 C 0.3433(6) 0.1027(4) -0.1375(3) 0.0488(17) Uani 1 1 d . U . . .
H132 H 0.3814 0.1333 -0.1536 0.059 Uiso 1 1 calc R . . . .
C133 C 0.3519(6) 0.0241(4) -0.1618(4) 0.0533(18) Uani 1 1 d . U . . .
H133 H 0.3953 0.0006 -0.1951 0.064 Uiso 1 1 calc R . . . .
C134 C 0.2964(6) -0.0202(4) -0.1373(3) 0.0478(17) Uani 1 1 d . U . . .
H134 H 0.3035 -0.0739 -0.1535 0.057 Uiso 1 1 calc R . . . .
C135 C 0.1657(5) -0.2258(3) -0.1706(3) 0.0407(15) Uani 1 1 d . U . . .
H135 H 0.1866 -0.2453 -0.1415 0.049 Uiso 1 1 calc R . . . .
C136 C 0.1723(6) -0.2705(4) -0.2293(3) 0.0485(16) Uani 1 1 d . U . . .
H136 H 0.1991 -0.3206 -0.2404 0.058 Uiso 1 1 calc R . . . .
C1A C -0.1288(11) -0.3229(9) 0.0554(7) 0.057(4) Uani 0.552(11) 1 d . U P B 1
H1AA H -0.1377 -0.2683 0.0775 0.085 Uiso 0.552(11) 1 calc GR . P B 1
H1AB H -0.1271 -0.3496 0.0831 0.085 Uiso 0.552(11) 1 calc GR . P B 1
H1AC H -0.1870 -0.3422 0.0275 0.085 Uiso 0.552(11) 1 calc GR . P B 1
C1C C 0.6530(9) 0.1727(8) 0.0367(7) 0.069(4) Uani 0.616(12) 1 d . U P A 1
H1CA H 0.7049 0.1540 0.0054 0.103 Uiso 0.616(12) 1 calc GR . P A 1
H1CB H 0.6601 0.1454 0.0638 0.103 Uiso 0.616(12) 1 calc GR . P A 1
H1CC H 0.6640 0.2272 0.0587 0.103 Uiso 0.616(12) 1 calc GR . P A 1
C1B C 0.2569(14) 0.8785(7) 0.4783(5) 0.139(4) Uani 1 1 d . U . . .
H1BA H 0.1829 0.8710 0.4679 0.209 Uiso 1 1 calc GR . . . .
H1BB H 0.2675 0.9287 0.5095 0.209 Uiso 1 1 calc GR . . . .
H1BC H 0.2806 0.8391 0.4926 0.209 Uiso 1 1 calc GR . . . .
C1D C 0.4336(12) 0.8778(7) 0.4378(7) 0.158(5) Uani 1 1 d . U . . .
H1DA H 0.4536 0.8317 0.4445 0.237 Uiso 1 1 calc GR . . . .
H1DB H 0.4452 0.9223 0.4743 0.237 Uiso 1 1 calc GR . . . .
H1DC H 0.4757 0.8826 0.4060 0.237 Uiso 1 1 calc GR . . . .
C67A C 0.6328(13) 0.1044(11) 0.0046(10) 0.063(5) Uani 0.384(12) 1 d . U P A 2
H67D H 0.6235 0.0596 -0.0319 0.094 Uiso 0.384(12) 1 calc GR . P A 2
H67E H 0.6316 0.0889 0.0388 0.094 Uiso 0.384(12) 1 calc GR . P A 2
H67F H 0.6997 0.1287 0.0036 0.094 Uiso 0.384(12) 1 calc GR . P A 2
C65A C 0.5465(5) 0.1597(4) 0.0096(3) 0.0577(17) Uani 1 1 d . U . . .
C1F C 0.5693(18) 0.2228(9) 0.0739(7) 0.063(5) Uani 0.384(12) 1 d . U P A 2
H1FA H 0.6302 0.2530 0.0722 0.095 Uiso 0.384(12) 1 calc GR . P A 2
H1FB H 0.5828 0.1979 0.1021 0.095 Uiso 0.384(12) 1 calc GR . P A 2
H1FC H 0.5089 0.2562 0.0868 0.095 Uiso 0.384(12) 1 calc GR . P A 2
C66A C 0.4401(12) 0.1337(13) 0.0215(11) 0.054(5) Uani 0.384(12) 1 d . U P A 2
H66D H 0.3908 0.1758 0.0305 0.081 Uiso 0.384(12) 1 calc GR . P A 2
H66E H 0.4450 0.1175 0.0554 0.081 Uiso 0.384(12) 1 calc GR . P A 2
H66F H 0.4160 0.0911 -0.0136 0.081 Uiso 0.384(12) 1 calc GR . P A 2
C1E C 0.0627(11) -0.3176(10) 0.0581(8) 0.055(3) Uani 0.552(11) 1 d . U P B 1
H1EA H 0.1211 -0.3260 0.0307 0.083 Uiso 0.552(11) 1 calc GR . P B 1
H1EB H 0.0701 -0.3507 0.0807 0.083 Uiso 0.552(11) 1 calc GR . P B 1
H1EC H 0.0625 -0.2644 0.0854 0.083 Uiso 0.552(11) 1 calc GR . P B 1
C1G C 0.0660(13) -0.3641(12) 0.0311(10) 0.050(4) Uani 0.448(11) 1 d . U P B 2
H1GA H 0.0891 -0.4005 -0.0072 0.076 Uiso 0.448(11) 1 calc GR . P B 2
H1GB H 0.0619 -0.3895 0.0596 0.076 Uiso 0.448(11) 1 calc GR . P B 2
H1GC H 0.1157 -0.3218 0.0457 0.076 Uiso 0.448(11) 1 calc GR . P B 2
C17A C -0.0523(13) -0.2650(8) 0.0935(7) 0.051(4) Uani 0.448(11) 1 d . U P B 2
H17A H 0.0076 -0.2304 0.1033 0.077 Uiso 0.448(11) 1 calc GR . P B 2
H17B H -0.0584 -0.2884 0.1232 0.077 Uiso 0.448(11) 1 calc GR . P B 2
H17C H -0.1157 -0.2365 0.0933 0.077 Uiso 0.448(11) 1 calc GR . P B 2
C1H C -0.1230(13) -0.3870(10) 0.0204(9) 0.056(4) Uani 0.448(11) 1 d . U P B 2
H1HA H -0.1880 -0.3581 0.0285 0.085 Uiso 0.448(11) 1 calc GR . P B 2
H1HB H -0.1129 -0.4107 0.0497 0.085 Uiso 0.448(11) 1 calc GR . P B 2
H1HC H -0.1263 -0.4264 -0.0195 0.085 Uiso 0.448(11) 1 calc GR . P B 2
loop_
_atom_site_aniso_label
_atom_site_aniso_U_11
_atom_site_aniso_U_22
_atom_site_aniso_U_33
_atom_site_aniso_U_23
_atom_site_aniso_U_13
_atom_site_aniso_U_12
C1 0.095(6) 0.042(3) 0.106(6) 0.026(4) 0.031(5) 0.013(4)
C2 0.054(4) 0.041(3) 0.098(4) 0.034(3) 0.030(3) 0.015(3)
C3 0.037(4) 0.034(3) 0.084(4) 0.027(3) 0.008(3) 0.002(3)
C4 0.038(4) 0.026(3) 0.068(4) 0.024(3) 0.007(3) 0.001(2)
C5 0.033(3) 0.024(3) 0.061(3) 0.020(3) -0.001(3) -0.002(2)
C6 0.031(3) 0.029(3) 0.061(3) 0.025(2) 0.007(3) 0.001(2)
C7 0.028(3) 0.033(3) 0.058(3) 0.022(2) 0.003(2) 0.000(2)
C8 0.028(3) 0.035(3) 0.059(3) 0.022(2) 0.003(2) -0.001(2)
C9 0.028(3) 0.032(3) 0.055(3) 0.019(2) -0.001(3) -0.005(2)
C10 0.038(4) 0.033(3) 0.060(3) 0.020(3) 0.000(3) -0.004(3)
C11 0.044(4) 0.034(3) 0.058(3) 0.020(3) -0.002(3) -0.007(3)
C12 0.049(4) 0.037(3) 0.056(3) 0.022(2) -0.002(3) -0.012(3)
C13 0.056(4) 0.044(3) 0.056(3) 0.024(3) 0.002(3) -0.009(3)
C14 0.076(4) 0.040(3) 0.057(3) 0.027(3) -0.008(3) -0.012(3)
C15 0.098(5) 0.049(4) 0.061(3) 0.031(3) -0.007(3) -0.009(4)
C16 0.110(5) 0.051(4) 0.059(4) 0.024(3) -0.016(4) -0.008(4)
C17 0.145(7) 0.069(5) 0.063(4) 0.028(4) -0.007(4) -0.007(5)
C18 0.155(7) 0.062(5) 0.062(5) 0.023(4) 0.002(4) -0.001(5)
C19 0.081(6) 0.050(4) 0.094(5) 0.032(4) 0.033(4) 0.022(4)
C20 0.053(4) 0.095(6) 0.119(7) 0.043(6) 0.029(4) 0.019(4)
C21 0.047(4) 0.035(3) 0.092(4) 0.034(3) 0.011(3) 0.010(3)
C22 0.037(4) 0.035(3) 0.080(4) 0.032(3) 0.000(3) 0.006(3)
C23 0.027(3) 0.033(3) 0.066(4) 0.026(3) -0.004(3) 0.001(2)
C24 0.031(3) 0.030(3) 0.060(3) 0.028(2) 0.009(2) 0.006(2)
C25 0.029(3) 0.031(3) 0.060(3) 0.025(2) 0.010(3) 0.010(2)
C26 0.042(4) 0.033(3) 0.058(3) 0.025(3) 0.005(3) 0.001(3)
C27 0.056(5) 0.045(3) 0.057(3) 0.027(3) 0.009(3) 0.001(3)
C28 0.051(5) 0.044(3) 0.056(4) 0.018(3) 0.000(3) -0.002(3)
C29 0.052(4) 0.033(3) 0.063(3) 0.022(3) 0.006(3) 0.007(3)
C30 0.037(4) 0.034(3) 0.060(3) 0.026(3) 0.010(3) 0.004(3)
C31 0.031(3) 0.031(3) 0.060(3) 0.023(2) 0.007(3) 0.002(2)
C32 0.030(3) 0.029(3) 0.061(3) 0.023(2) 0.004(3) -0.002(2)
C33 0.057(4) 0.045(3) 0.043(4) 0.018(3) 0.002(3) -0.008(2)
C34 0.052(3) 0.051(3) 0.054(4) 0.020(3) 0.007(3) -0.009(3)
C35 0.053(3) 0.059(3) 0.053(4) 0.022(3) 0.010(3) -0.005(3)
C36 0.065(4) 0.054(3) 0.059(4) 0.017(3) 0.005(3) 0.000(3)
C37 0.069(4) 0.051(3) 0.061(4) 0.017(3) -0.002(3) -0.004(3)
C38 0.065(4) 0.044(3) 0.050(4) 0.018(3) 0.000(3) -0.009(3)
C39 0.121(7) 0.051(4) 0.081(5) 0.002(4) -0.027(4) -0.003(4)
C40 0.113(8) 0.054(4) 0.116(7) 0.021(5) -0.018(6) -0.018(5)
C41 0.050(4) 0.067(4) 0.073(4) 0.023(4) 0.008(3) -0.003(3)
C42 0.057(5) 0.080(5) 0.118(7) 0.026(5) -0.005(5) 0.001(4)
C43 0.052(5) 0.097(6) 0.072(4) 0.033(4) -0.001(4) -0.013(4)
C44 0.066(5) 0.079(5) 0.081(6) 0.017(5) 0.023(5) -0.012(4)
C45 0.149(7) 0.084(6) 0.071(4) 0.036(4) 0.009(4) -0.005(5)
C46 0.108(5) 0.055(4) 0.063(4) 0.033(4) 0.003(3) -0.005(4)
C47 0.071(4) 0.037(3) 0.064(3) 0.027(3) -0.012(3) -0.011(3)
C48 0.055(4) 0.038(3) 0.061(3) 0.024(3) -0.008(3) -0.013(3)
C49 0.052(4) 0.033(3) 0.065(3) 0.024(3) -0.008(3) -0.009(3)
C50 0.037(4) 0.032(3) 0.058(3) 0.023(2) -0.005(3) -0.007(2)
C51 0.030(3) 0.029(3) 0.062(3) 0.019(3) -0.006(3) -0.005(3)
C53 0.098(5) 0.030(3) 0.062(4) 0.012(3) -0.031(3) -0.008(3)
C52 0.152(7) 0.046(4) 0.068(5) 0.026(4) -0.032(4) -0.011(5)
C54 0.188(8) 0.046(5) 0.082(6) 0.015(5) -0.056(5) 0.010(6)
C55 0.183(8) 0.055(5) 0.094(6) 0.004(5) -0.054(6) 0.028(6)
C56 0.134(6) 0.064(6) 0.098(6) 0.003(5) -0.046(5) 0.039(5)
C57 0.094(5) 0.052(4) 0.080(5) 0.013(4) -0.022(4) 0.017(4)
C58 0.033(4) 0.031(3) 0.059(3) 0.023(3) 0.002(3) 0.000(2)
C59 0.043(4) 0.026(3) 0.060(4) 0.024(3) 0.007(3) 0.003(2)
C60 0.047(4) 0.028(3) 0.061(4) 0.025(3) 0.012(3) 0.003(3)
C61 0.053(4) 0.029(3) 0.066(4) 0.027(3) 0.012(3) 0.007(3)
C62 0.054(4) 0.037(3) 0.071(4) 0.031(3) 0.007(3) 0.008(3)
C63 0.055(4) 0.035(3) 0.075(4) 0.028(3) -0.007(3) 0.007(3)
C64 0.050(4) 0.027(3) 0.068(4) 0.022(3) -0.001(3) 0.004(3)
C66 0.056(6) 0.054(7) 0.079(7) 0.043(6) -0.010(5) 0.001(5)
C67 0.082(9) 0.041(4) 0.089(7) 0.042(4) -0.003(6) 0.000(4)
C69 0.040(3) 0.045(3) 0.085(4) 0.044(3) 0.002(3) -0.002(3)
C70 0.041(4) 0.029(3) 0.071(4) 0.028(3) 0.001(3) 0.002(3)
C71 0.035(4) 0.028(3) 0.059(4) 0.022(3) 0.004(3) 0.004(2)
C72 0.032(3) 0.023(3) 0.056(3) 0.016(3) 0.006(3) 0.004(2)
C73 0.031(3) 0.026(3) 0.061(3) 0.022(2) -0.002(3) 0.002(2)
C74 0.026(3) 0.023(3) 0.063(3) 0.019(2) 0.003(2) 0.006(2)
C75 0.028(3) 0.024(3) 0.066(3) 0.020(2) 0.003(3) 0.005(2)
C76 0.029(3) 0.025(3) 0.067(3) 0.021(3) 0.007(3) 0.005(2)
C77 0.035(4) 0.031(3) 0.063(3) 0.021(3) 0.011(3) 0.011(2)
C78 0.046(4) 0.035(3) 0.068(3) 0.023(3) 0.013(3) 0.007(3)
C79 0.054(4) 0.030(3) 0.067(3) 0.021(3) 0.011(3) 0.005(3)
C80 0.071(4) 0.031(3) 0.070(3) 0.018(3) 0.019(3) 0.000(3)
C81 0.073(5) 0.039(3) 0.063(3) 0.017(3) 0.017(3) -0.001(3)
C82 0.082(4) 0.047(4) 0.065(3) 0.020(3) 0.022(3) -0.009(3)
C83 0.090(5) 0.057(4) 0.070(4) 0.016(3) 0.027(4) -0.010(4)
C84 0.107(6) 0.061(5) 0.071(4) 0.011(4) 0.028(4) -0.021(4)
C85 0.115(6) 0.064(5) 0.069(5) 0.008(4) 0.023(4) -0.024(4)
C86 0.058(5) 0.045(3) 0.060(4) 0.021(3) 0.009(3) 0.007(3)
C87 0.058(5) 0.048(3) 0.062(3) 0.025(3) -0.003(3) 0.006(3)
C88 0.043(4) 0.036(3) 0.061(3) 0.027(3) -0.002(3) 0.004(3)
C89 0.026(3) 0.033(3) 0.062(3) 0.027(2) 0.000(3) -0.004(2)
C90 0.030(3) 0.027(3) 0.064(3) 0.026(2) 0.000(3) 0.001(2)
C91 0.031(3) 0.027(3) 0.065(3) 0.027(2) -0.004(3) 0.000(2)
C92 0.034(4) 0.024(3) 0.063(3) 0.022(2) -0.004(3) 0.001(2)
C93 0.032(3) 0.024(3) 0.063(3) 0.022(2) 0.004(3) 0.004(2)
C94 0.034(4) 0.028(3) 0.064(3) 0.017(3) 0.006(3) 0.003(3)
C95 0.039(4) 0.029(3) 0.063(3) 0.020(3) 0.006(3) 0.007(2)
C96 0.046(4) 0.033(3) 0.062(3) 0.018(2) 0.009(3) 0.006(3)
C97 0.059(4) 0.035(3) 0.060(3) 0.018(3) 0.010(3) 0.002(3)
C98 0.085(4) 0.039(4) 0.059(4) 0.007(3) 0.023(3) -0.010(3)
C99 0.104(5) 0.043(4) 0.063(4) 0.014(4) 0.017(4) -0.012(4)
C100 0.121(6) 0.052(5) 0.072(5) 0.020(4) 0.016(4) -0.027(5)
C101 0.113(6) 0.069(5) 0.069(5) 0.017(4) 0.022(4) -0.038(5)
C102 0.102(6) 0.065(5) 0.066(5) 0.007(4) 0.020(4) -0.032(5)
C103 0.085(5) 0.057(5) 0.072(5) 0.015(4) 0.020(4) -0.017(4)
C104 0.087(5) 0.052(4) 0.064(4) 0.026(3) 0.015(3) -0.009(4)
C105 0.108(6) 0.060(5) 0.068(4) 0.023(4) 0.013(4) -0.019(4)
C106 0.056(4) 0.034(3) 0.058(4) 0.020(3) 0.007(3) 0.005(2)
C107 0.051(3) 0.036(3) 0.047(4) 0.014(3) 0.005(3) 0.003(3)
C108 0.048(3) 0.040(3) 0.056(4) 0.024(3) -0.003(3) 0.004(2)
C109 0.053(4) 0.041(3) 0.064(4) 0.026(3) 0.002(3) -0.001(3)
C110 0.056(4) 0.035(3) 0.064(4) 0.022(3) 0.002(3) 0.005(2)
C111 0.052(4) 0.038(3) 0.055(4) 0.020(3) 0.007(3) 0.002(3)
C112 0.067(4) 0.034(3) 0.076(4) 0.020(3) 0.009(3) 0.006(3)
C113 0.102(7) 0.049(4) 0.082(4) 0.017(4) 0.021(4) 0.004(4)
C114 0.092(6) 0.050(5) 0.111(6) 0.013(5) -0.004(5) 0.030(4)
C115 0.093(6) 0.044(4) 0.105(7) 0.022(4) 0.015(5) -0.005(4)
C116 0.048(4) 0.056(4) 0.071(4) 0.029(3) 0.004(3) 0.002(3)
C117 0.054(5) 0.083(5) 0.064(4) 0.033(4) 0.010(3) 0.009(4)
C118 0.057(5) 0.066(4) 0.104(6) 0.026(4) 0.014(5) -0.005(4)
C119 0.054(5) 0.066(4) 0.074(5) 0.021(4) -0.003(4) 0.012(4)
C120 0.037(4) 0.025(3) 0.064(3) 0.021(3) -0.001(3) 0.000(3)
C121 0.070(9) 0.039(4) 0.077(7) 0.043(4) -0.005(6) 0.000(4)
C122 0.041(4) 0.025(3) 0.073(4) 0.025(3) 0.000(3) -0.002(3)
C123 0.035(3) 0.026(3) 0.070(3) 0.024(3) 0.000(3) -0.001(2)
C124 0.049(4) 0.035(3) 0.077(4) 0.027(3) -0.010(3) -0.008(3)
C125 0.062(5) 0.046(4) 0.077(5) 0.031(4) -0.015(4) -0.013(4)
C126 0.047(4) 0.094(6) 0.100(6) 0.052(5) -0.013(4) -0.012(4)
C127 0.094(6) 0.040(3) 0.092(5) 0.023(3) -0.027(5) -0.002(4)
C128 0.042(4) 0.027(3) 0.059(4) 0.022(3) 0.002(3) -0.001(2)
C129 0.034(4) 0.028(3) 0.065(4) 0.026(3) -0.003(3) -0.001(2)
C130 0.036(4) 0.031(3) 0.065(4) 0.025(3) -0.008(3) -0.006(2)
C131 0.040(4) 0.032(3) 0.073(4) 0.029(3) -0.006(3) -0.002(3)
C132 0.045(4) 0.038(3) 0.073(4) 0.032(3) 0.001(3) -0.004(3)
C133 0.051(4) 0.037(3) 0.080(5) 0.031(3) 0.012(4) -0.001(3)
C134 0.045(4) 0.028(3) 0.073(4) 0.022(3) 0.007(3) -0.002(3)
C135 0.038(4) 0.030(3) 0.061(3) 0.025(3) 0.004(3) 0.000(3)
C136 0.047(4) 0.036(3) 0.065(3) 0.022(3) 0.004(3) -0.002(3)
C1A 0.045(5) 0.065(8) 0.078(8) 0.047(7) 0.002(5) -0.001(5)
C1C 0.056(5) 0.060(8) 0.103(9) 0.045(7) -0.016(5) 0.004(5)
C1B 0.225(12) 0.083(7) 0.086(6) 0.003(5) 0.002(7) -0.010(8)
C1D 0.136(7) 0.076(7) 0.206(12) -0.011(8) -0.072(6) -0.011(6)
C67A 0.047(8) 0.061(9) 0.104(12) 0.057(8) -0.001(8) 0.008(7)
C65A 0.047(4) 0.048(3) 0.096(4) 0.048(3) -0.005(3) 0.003(3)
C1F 0.063(11) 0.058(7) 0.092(6) 0.054(5) -0.005(6) 0.002(6)
C66A 0.048(6) 0.047(10) 0.085(12) 0.046(9) 0.003(6) 0.008(6)
C1E 0.045(5) 0.060(8) 0.075(9) 0.043(7) 0.001(5) -0.003(6)
C1G 0.040(5) 0.051(9) 0.074(11) 0.040(8) 0.007(6) 0.005(5)
C17A 0.048(9) 0.047(6) 0.077(6) 0.043(5) 0.007(6) 0.006(5)
C1H 0.043(7) 0.049(8) 0.093(11) 0.045(7) 0.001(7) -0.003(6)
loop_
_atom_type_symbol
_atom_type_description
_atom_type_scat_dispersion_real
_atom_type_scat_dispersion_imag
_atom_type_scat_source
C C 0.0181 0.0091 'International Tables Vol C Tables 4.2.6.8 and 6.1.1.4'
H H 0.0000 0.0000 'International Tables Vol C Tables 4.2.6.8 and 6.1.1.4'
loop_
_geom_angle_atom_site_label_1
_geom_angle_atom_site_label_2
_geom_angle_atom_site_label_3
_geom_angle
H1A C1 H1B 109.5
H1A C1 H1C 109.5
H1B C1 H1C 109.5
C2 C1 H1A 109.5
C2 C1 H1B 109.5
C2 C1 H1C 109.5
C1 C2 C3 109.8(6)
C19 C2 C1 109.0(8)
C19 C2 C3 111.6(6)
C20 C2 C1 110.4(7)
C20 C2 C3 107.6(7)
C20 C2 C19 108.4(7)
C4 C3 C2 122.4(6)
C21 C3 C2 119.8(6)
C21 C3 C4 117.7(7)
C3 C4 H4 119.2
C5 C4 C3 121.7(6)
C5 C4 H4 119.2
C4 C5 C6 120.7(5)
C4 C5 C23 118.8(6)
C23 C5 C6 120.5(6)
C5 C6 C24 125.1(6)
C7 C6 C5 127.0(6)
C7 C6 C24 107.9(5)
C6 C7 C8 145.2(6)
C6 C7 C32 107.5(6)
C8 C7 C32 107.2(6)
C9 C8 C7 106.6(5)
C51 C8 C7 134.4(6)
C51 C8 C9 119.1(6)
C8 C9 C58 108.0(6)
C10 C9 C8 121.7(6)
C10 C9 C58 130.2(6)
C9 C10 H10 120.7
C9 C10 C11 118.6(6)
C11 C10 H10 120.7
C10 C11 C12 133.9(6)
C10 C11 C50 119.0(6)
C50 C11 C12 106.8(6)
C11 C12 C48 106.9(6)
C13 C12 C11 144.2(7)
C13 C12 C48 108.6(6)
C12 C13 C14 107.2(6)
C12 C13 C33 128.4(7)
C33 C13 C14 124.3(7)
C15 C14 C13 124.1(7)
C47 C14 C13 110.1(6)
C47 C14 C15 125.8(7)
C16 C15 C14 122.6(9)
C16 C15 C46 119.4(8)
C46 C15 C14 118.0(8)
C15 C16 H16 119.2
C17 C16 C15 121.6(10)
C17 C16 H16 119.2
C16 C17 H17 120.5
C18 C17 C16 119.0(11)
C18 C17 H17 120.5
C17 C18 H18 118.9
C17 C18 C45 122.1(10)
C45 C18 H18 118.9
C2 C19 H19A 109.5
C2 C19 H19B 109.5
C2 C19 H19C 109.5
H19A C19 H19B 109.5
H19A C19 H19C 109.5
H19B C19 H19C 109.5
C2 C20 H20A 109.5
C2 C20 H20B 109.5
C2 C20 H20C 109.5
H20A C20 H20B 109.5
H20A C20 H20C 109.5
H20B C20 H20C 109.5
C3 C21 H21 118.7
C22 C21 C3 122.7(6)
C22 C21 H21 118.7
C21 C22 C23 118.1(6)
C21 C22 C65A 121.0(6)
C23 C22 C65A 120.9(6)
C5 C23 H23 119.6
C22 C23 C5 120.9(6)
C22 C23 H23 119.6
C25 C24 C6 123.9(5)
C31 C24 C6 108.8(6)
C31 C24 C25 127.2(6)
C26 C25 C24 122.1(5)
C26 C25 C30 117.2(6)
C30 C25 C24 120.6(5)
C25 C26 H26 118.9
C27 C26 C25 122.2(6)
C27 C26 H26 118.9
C26 C27 H27 119.9
C26 C27 C28 120.2(6)
C28 C27 H27 119.9
C27 C28 H28 120.6
C27 C28 C29 118.7(7)
C29 C28 H28 120.6
C28 C29 H29 119.9
C30 C29 C28 120.3(6)
C30 C29 H29 119.9
C25 C30 H30 119.3
C29 C30 C25 121.4(6)
C29 C30 H30 119.3
C24 C31 C32 107.1(5)
C24 C31 C59 129.4(6)
C32 C31 C59 123.3(6)
C31 C32 C7 108.4(6)
C58 C32 C7 108.2(6)
C58 C32 C31 142.9(6)
C34 C33 C13 120.8(6)
C34 C33 C38 118.7(7)
C38 C33 C13 120.4(7)
C33 C34 H34 119.0
C33 C34 C35 122.0(7)
C35 C34 H34 119.0
C34 C35 C36 117.1(7)
C34 C35 C41 119.3(7)
C36 C35 C41 123.6(7)
C35 C36 H36 118.8
C35 C36 C37 122.5(8)
C37 C36 H36 118.8
C36 C37 C39 119.5(8)
C38 C37 C36 118.1(7)
C38 C37 C39 122.2(8)
C33 C38 H38 119.3
C37 C38 C33 121.5(8)
C37 C38 H38 119.3
C37 C39 C1B 104.9(8)
C40 C39 C37 113.1(8)
C40 C39 C1B 105.1(10)
C40 C39 C1D 114.7(10)
C1D C39 C37 111.3(9)
C1D C39 C1B 106.9(11)
C39 C40 H40A 109.5
C39 C40 H40B 109.5
C39 C40 H40C 109.5
H40A C40 H40B 109.5
H40A C40 H40C 109.5
H40B C40 H40C 109.5
C35 C41 C42 111.2(7)
C43 C41 C35 110.8(7)
C43 C41 C42 108.5(8)
C43 C41 C44 109.8(7)
C44 C41 C35 108.6(7)
C44 C41 C42 107.8(7)
C41 C42 H42A 109.5
C41 C42 H42B 109.5
C41 C42 H42C 109.5
H42A C42 H42B 109.5
H42A C42 H42C 109.5
H42B C42 H42C 109.5
C41 C43 H43A 109.5
C41 C43 H43B 109.5
C41 C43 H43C 109.5
H43A C43 H43B 109.5
H43A C43 H43C 109.5
H43B C43 H43C 109.5
C41 C44 H44A 109.5
C41 C44 H44B 109.5
C41 C44 H44C 109.5
H44A C44 H44B 109.5
H44A C44 H44C 109.5
H44B C44 H44C 109.5
C18 C45 H45 120.9
C46 C45 C18 118.1(11)
C46 C45 H45 120.9
C15 C46 C45 119.8(10)
C15 C46 H46 120.1
C45 C46 H46 120.1
C14 C47 C48 106.8(6)
C14 C47 C53 130.3(7)
C48 C47 C53 122.8(7)
C47 C48 C12 107.3(6)
C49 C48 C12 109.5(6)
C49 C48 C47 143.2(7)
C48 C49 H49 125.7
C48 C49 C50 108.6(6)
C50 C49 H49 125.7
C11 C50 C49 108.1(6)
C51 C50 C11 122.3(6)
C51 C50 C49 129.5(6)
C8 C51 H51 120.5
C50 C51 C8 119.0(6)
C50 C51 H51 120.5
C52 C53 C47 120.3(5)
C52 C53 C57 120.0
C57 C53 C47 119.7(5)
C53 C52 H52 120.0
C53 C52 C54 120.0
C54 C52 H52 120.0
C52 C54 H54 120.0
C52 C54 C55 120.0
C55 C54 H54 120.0
C54 C55 H55 120.0
C56 C55 C54 120.0
C56 C55 H55 120.0
C55 C56 H56 120.0
C55 C56 C57 120.0
C57 C56 H56 120.0
C53 C57 H57 120.0
C56 C57 C53 120.0
C56 C57 H57 120.0
C9 C58 H58 125.1
C32 C58 C9 109.7(5)
C32 C58 H58 125.1
C60 C59 C31 118.3(6)
C64 C59 C31 123.9(5)
C64 C59 C60 117.7(6)
C59 C60 H60 119.8
C61 C60 C59 120.3(7)
C61 C60 H60 119.8
C60 C61 H61 119.6
C62 C61 C60 120.8(6)
C62 C61 H61 119.6
C61 C62 H62 120.3
C61 C62 C63 119.4(6)
C63 C62 H62 120.3
C62 C63 H63 119.8
C64 C63 C62 120.3(7)
C64 C63 H63 119.8
C59 C64 H64 119.3
C63 C64 C59 121.4(6)
C63 C64 H64 119.3
H66A C66 H66B 109.5
H66A C66 H66C 109.5
H66B C66 H66C 109.5
C65A C66 H66A 109.5
C65A C66 H66B 109.5
C65A C66 H66C 109.5
H67A C67 H67B 109.5
H67A C67 H67C 109.5
H67B C67 H67C 109.5
C65A C67 H67A 109.5
C65A C67 H67B 109.5
C65A C67 H67C 109.5
C70 C69 C121 105.0(6)
C70 C69 C17A 106.4(6)
C1A C69 C70 109.0(7)
C1A C69 C121 109.0(9)
C1A C69 C1E 118.4(11)
C1E C69 C70 110.9(7)
C1E C69 C121 103.5(10)
C1G C69 C70 114.8(9)
C1G C69 C17A 101.2(11)
C1G C69 C1H 115.1(11)
C1H C69 C70 114.8(8)
C1H C69 C17A 102.2(11)
C71 C70 C69 120.8(6)
C122 C70 C69 120.8(6)
C122 C70 C71 118.4(6)
C70 C71 H71 119.5
C70 C71 C72 121.0(7)
C72 C71 H71 119.5
C71 C72 C73 120.0(6)
C71 C72 C128 118.4(5)
C128 C72 C73 121.6(5)
C72 C73 C90 124.8(6)
C74 C73 C72 127.5(6)
C74 C73 C90 107.7(5)
C73 C74 C75 145.0(5)
C73 C74 C92 107.9(6)
C75 C74 C92 106.7(5)
C76 C75 C74 133.4(6)
C76 C75 C93 119.3(6)
C93 C75 C74 107.3(5)
C75 C76 H76 120.9
C77 C76 C75 118.1(6)
C77 C76 H76 120.9
C76 C77 C78 129.6(6)
C76 C77 C95 122.6(6)
C95 C77 C78 107.7(6)
C77 C78 H78 125.6
C79 C78 C77 108.8(6)
C79 C78 H78 125.6
C78 C79 C80 143.4(7)
C78 C79 C96 110.0(6)
C80 C79 C96 106.6(6)
C79 C80 C98 123.1(7)
C81 C80 C79 108.4(6)
C81 C80 C98 128.5(7)
C80 C81 C82 129.3(7)
C80 C81 C97 108.3(7)
C82 C81 C97 122.4(6)
C83 C82 C81 122.0(9)
C83 C82 C104 118.2(8)
C104 C82 C81 119.7(8)
C82 C83 H83 119.0
C82 C83 C84 121.9(10)
C84 C83 H83 119.0
C83 C84 H84 120.3
C85 C84 C83 119.4(10)
C85 C84 H84 120.3
C84 C85 H85 119.4
C84 C85 C105 121.2(9)
C105 C85 H85 119.4
C87 C86 H86 120.6
C136 C86 H86 120.6
C136 C86 C87 118.8(7)
C86 C87 H87 120.0
C88 C87 C86 120.0(6)
C88 C87 H87 120.0
C87 C88 H88 118.9
C87 C88 C89 122.3(6)
C89 C88 H88 118.9
C88 C89 C90 122.8(5)
C88 C89 C135 117.2(6)
C135 C89 C90 120.0(5)
C89 C90 C73 124.8(5)
C91 C90 C73 108.8(6)
C91 C90 C89 126.1(5)
C90 C91 C92 107.7(5)
C90 C91 C129 129.4(6)
C92 C91 C129 122.8(6)
C91 C92 C74 107.8(6)
C120 C92 C74 109.0(6)
C120 C92 C91 142.7(6)
C75 C93 C120 107.6(6)
C94 C93 C75 122.1(5)
C94 C93 C120 130.3(5)
C93 C94 H94 120.4
C93 C94 C95 119.3(6)
C95 C94 H94 120.4
C77 C95 C96 107.4(5)
C94 C95 C77 118.5(6)
C94 C95 C96 133.8(6)
C95 C96 C79 106.1(6)
C97 C96 C79 110.3(6)
C97 C96 C95 143.0(6)
C96 C97 C81 106.3(6)
C96 C97 C106 128.6(6)
C106 C97 C81 125.0(7)
C99 C98 C80 121.8(9)
C99 C98 C103 119.0(7)
C103 C98 C80 119.2(8)
C98 C99 H99 120.2
C98 C99 C100 119.7(10)
C100 C99 H99 120.2
C99 C100 H100 120.2
C101 C100 C99 119.5(9)
C101 C100 H100 120.2
C100 C101 H101 119.9
C102 C101 C100 120.1(8)
C102 C101 H101 119.9
C101 C102 H102 119.4
C101 C102 C103 121.3(11)
C103 C102 H102 119.4
C98 C103 H103 119.8
C102 C103 C98 120.3(9)
C102 C103 H103 119.8
C82 C104 H104 119.4
C82 C104 C105 121.1(9)
C105 C104 H104 119.4
C85 C105 C104 118.2(10)
C85 C105 H105 120.9
C104 C105 H105 120.9
C107 C106 C97 121.2(6)
C107 C106 C111 119.0(6)
C111 C106 C97 119.7(7)
C106 C107 H107 118.9
C106 C107 C108 122.3(6)
C108 C107 H107 118.9
C107 C108 C109 117.2(7)
C107 C108 C116 120.2(6)
C109 C108 C116 122.6(6)
C108 C109 H109 118.8
C110 C109 C108 122.4(6)
C110 C109 H109 118.8
C109 C110 C111 118.2(6)
C109 C110 C112 124.0(6)
C111 C110 C112 117.8(7)
C106 C111 C110 121.0(7)
C106 C111 H111 119.5
C110 C111 H111 119.5
C110 C112 C114 108.5(7)
C110 C112 C115 111.8(7)
C113 C112 C110 111.5(6)
C113 C112 C114 109.6(8)
C113 C112 C115 108.1(7)
C115 C112 C114 107.3(6)
C112 C113 H11A 109.5
C112 C113 H11B 109.5
C112 C113 H11C 109.5
H11A C113 H11B 109.5
H11A C113 H11C 109.5
H11B C113 H11C 109.5
C112 C114 H11D 109.5
C112 C114 H11E 109.5
C112 C114 H11F 109.5
H11D C114 H11E 109.5
H11D C114 H11F 109.5
H11E C114 H11F 109.5
C112 C115 H11G 109.5
C112 C115 H11H 109.5
C112 C115 H11I 109.5
H11G C115 H11H 109.5
H11G C115 H11I 109.5
H11H C115 H11I 109.5
C108 C116 C119 110.2(6)
C117 C116 C108 109.2(6)
C117 C116 C119 108.3(6)
C118 C116 C108 112.1(7)
C118 C116 C117 109.8(7)
C118 C116 C119 107.2(7)
C116 C117 H11J 109.5
C116 C117 H11K 109.5
C116 C117 H11L 109.5
H11J C117 H11K 109.5
H11J C117 H11L 109.5
H11K C117 H11L 109.5
C116 C118 H11M 109.5
C116 C118 H11N 109.5
C116 C118 H11O 109.5
H11M C118 H11N 109.5
H11M C118 H11O 109.5
H11N C118 H11O 109.5
C116 C119 H11P 109.5
C116 C119 H11Q 109.5
C116 C119 H11R 109.5
H11P C119 H11Q 109.5
H11P C119 H11R 109.5
H11Q C119 H11R 109.5
C92 C120 C93 109.3(5)
C92 C120 H120 125.4
C93 C120 H120 125.4
C69 C121 H12A 109.5
C69 C121 H12B 109.5
C69 C121 H12C 109.5
H12A C121 H12B 109.5
H12A C121 H12C 109.5
H12B C121 H12C 109.5
C70 C122 H122 118.7
C70 C122 C123 122.6(6)
C123 C122 H122 118.7
C122 C123 C124 119.9(5)
C128 C123 C122 117.3(6)
C128 C123 C124 122.8(6)
C125 C124 C123 111.6(5)
C125 C124 C127 108.2(7)
C126 C124 C123 109.0(7)
C126 C124 C125 108.8(6)
C126 C124 C127 109.5(7)
C127 C124 C123 109.7(6)
C124 C125 H12D 109.5
C124 C125 H12E 109.5
C124 C125 H12F 109.5
H12D C125 H12E 109.5
H12D C125 H12F 109.5
H12E C125 H12F 109.5
C124 C126 H12G 109.5
C124 C126 H12H 109.5
C124 C126 H12I 109.5
H12G C126 H12H 109.5
H12G C126 H12I 109.5
H12H C126 H12I 109.5
C124 C127 H12J 109.5
C124 C127 H12K 109.5
C124 C127 H12L 109.5
H12J C127 H12K 109.5
H12J C127 H12L 109.5
H12K C127 H12L 109.5
C72 C128 H128 118.9
C123 C128 C72 122.2(6)
C123 C128 H128 118.9
C130 C129 C91 118.8(6)
C134 C129 C91 122.3(5)
C134 C129 C130 118.9(5)
C129 C130 H130 120.3
C131 C130 C129 119.4(7)
C131 C130 H130 120.3
C130 C131 H131 119.2
C132 C131 C130 121.5(6)
C132 C131 H131 119.2
C131 C132 H132 120.2
C131 C132 C133 119.6(6)
C133 C132 H132 120.2
C132 C133 H133 120.2
C132 C133 C134 119.6(7)
C134 C133 H133 120.2
C129 C134 C133 120.9(6)
C129 C134 H134 119.5
C133 C134 H134 119.5
C89 C135 H135 119.8
C136 C135 C89 120.5(6)
C136 C135 H135 119.8
C86 C136 H136 119.4
C135 C136 C86 121.3(6)
C135 C136 H136 119.4
C69 C1A H1AA 109.5
C69 C1A H1AB 109.5
C69 C1A H1AC 109.5
H1AA C1A H1AB 109.5
H1AA C1A H1AC 109.5
H1AB C1A H1AC 109.5
H1CA C1C H1CB 109.5
H1CA C1C H1CC 109.5
H1CB C1C H1CC 109.5
C65A C1C H1CA 109.5
C65A C1C H1CB 109.5
C65A C1C H1CC 109.5
C39 C1B H1BA 109.5
C39 C1B H1BB 109.5
C39 C1B H1BC 109.5
H1BA C1B H1BB 109.5
H1BA C1B H1BC 109.5
H1BB C1B H1BC 109.5
C39 C1D H1DA 109.5
C39 C1D H1DB 109.5
C39 C1D H1DC 109.5
H1DA C1D H1DB 109.5
H1DA C1D H1DC 109.5
H1DB C1D H1DC 109.5
H67D C67A H67E 109.5
H67D C67A H67F 109.5
H67E C67A H67F 109.5
C65A C67A H67D 109.5
C65A C67A H67E 109.5
C65A C67A H67F 109.5
C22 C65A C67 106.1(7)
C22 C65A C1F 108.1(7)
C66 C65A C22 112.8(7)
C66 C65A C67 106.4(9)
C66 C65A C1C 117.8(10)
C1C C65A C22 107.0(7)
C1C C65A C67 106.0(9)
C67A C65A C22 118.3(9)
C67A C65A C1F 101.3(13)
C67A C65A C66A 114.7(11)
C66A C65A C22 112.9(9)
C66A C65A C1F 98.5(14)
C65A C1F H1FA 109.5
C65A C1F H1FB 109.5
C65A C1F H1FC 109.5
H1FA C1F H1FB 109.5
H1FA C1F H1FC 109.5
H1FB C1F H1FC 109.5
C65A C66A H66D 109.5
C65A C66A H66E 109.5
C65A C66A H66F 109.5
H66D C66A H66E 109.5
H66D C66A H66F 109.5
H66E C66A H66F 109.5
C69 C1E H1EA 109.5
C69 C1E H1EB 109.5
C69 C1E H1EC 109.5
H1EA C1E H1EB 109.5
H1EA C1E H1EC 109.5
H1EB C1E H1EC 109.5
C69 C1G H1GA 109.5
C69 C1G H1GB 109.5
C69 C1G H1GC 109.5
H1GA C1G H1GB 109.5
H1GA C1G H1GC 109.5
H1GB C1G H1GC 109.5
C69 C17A H17A 109.5
C69 C17A H17B 109.5
C69 C17A H17C 109.5
H17A C17A H17B 109.5
H17A C17A H17C 109.5
H17B C17A H17C 109.5
C69 C1H H1HA 109.5
C69 C1H H1HB 109.5
C69 C1H H1HC 109.5
H1HA C1H H1HB 109.5
H1HA C1H H1HC 109.5
H1HB C1H H1HC 109.5
loop_
_geom_bond_atom_site_label_1
_geom_bond_atom_site_label_2
_geom_bond_distance
C1 H1A 0.9800
C1 H1B 0.9800
C1 H1C 0.9800
C1 C2 1.529(11)
C2 C3 1.531(11)
C2 C19 1.526(11)
C2 C20 1.527(13)
C3 C4 1.398(9)
C3 C21 1.393(10)
C4 H4 0.9500
C4 C5 1.379(9)
C5 C6 1.473(9)
C5 C23 1.412(8)
C6 C7 1.360(9)
C6 C24 1.521(9)
C7 C8 1.444(9)
C7 C32 1.481(9)
C8 C9 1.424(9)
C8 C51 1.403(9)
C9 C10 1.383(9)
C9 C58 1.458(9)
C10 H10 0.9500
C10 C11 1.403(9)
C11 C12 1.455(10)
C11 C50 1.423(9)
C12 C13 1.354(10)
C12 C48 1.488(10)
C13 C14 1.517(11)
C13 C33 1.468(10)
C14 C15 1.468(11)
C14 C47 1.361(11)
C15 C16 1.392(13)
C15 C46 1.395(13)
C16 H16 0.9500
C16 C17 1.380(12)
C17 H17 0.9500
C17 C18 1.356(16)
C18 H18 0.9500
C18 C45 1.415(16)
C19 H19A 0.9800
C19 H19B 0.9800
C19 H19C 0.9800
C20 H20A 0.9800
C20 H20B 0.9800
C20 H20C 0.9800
C21 H21 0.9500
C21 C22 1.385(10)
C22 C23 1.396(9)
C22 C65A 1.541(9)
C23 H23 0.9500
C24 C25 1.479(9)
C24 C31 1.371(9)
C25 C26 1.385(8)
C25 C30 1.407(9)
C26 H26 0.9500
C26 C27 1.367(10)
C27 H27 0.9500
C27 C28 1.392(10)
C28 H28 0.9500
C28 C29 1.399(9)
C29 H29 0.9500
C29 C30 1.366(10)
C30 H30 0.9500
C31 C32 1.456(9)
C31 C59 1.470(9)
C32 C58 1.345(9)
C33 C34 1.390(11)
C33 C38 1.399(10)
C34 H34 0.9500
C34 C35 1.389(11)
C35 C36 1.399(11)
C35 C41 1.542(12)
C36 H36 0.9500
C36 C37 1.398(12)
C37 C38 1.373(11)
C37 C39 1.545(12)
C38 H38 0.9500
C39 C40 1.462(13)
C39 C1B 1.606(17)
C39 C1D 1.482(18)
C40 H40A 0.9800
C40 H40B 0.9800
C40 H40C 0.9800
C41 C42 1.544(12)
C41 C43 1.506(12)
C41 C44 1.534(11)
C42 H42A 0.9800
C42 H42B 0.9800
C42 H42C 0.9800
C43 H43A 0.9800
C43 H43B 0.9800
C43 H43C 0.9800
C44 H44A 0.9800
C44 H44B 0.9800
C44 H44C 0.9800
C45 H45 0.9500
C45 C46 1.404(12)
C46 H46 0.9500
C47 C48 1.473(10)
C47 C53 1.505(9)
C48 C49 1.337(10)
C49 H49 0.9500
C49 C50 1.492(10)
C50 C51 1.362(9)
C51 H51 0.9500
C53 C52 1.3900
C53 C57 1.3900
C52 H52 0.9500
C52 C54 1.3900
C54 H54 0.9500
C54 C55 1.3900
C55 H55 0.9500
C55 C56 1.3900
C56 H56 0.9500
C56 C57 1.3900
C57 H57 0.9500
C58 H58 0.9500
C59 C60 1.405(9)
C59 C64 1.395(10)
C60 H60 0.9500
C60 C61 1.393(9)
C61 H61 0.9500
C61 C62 1.378(10)
C62 H62 0.9500
C62 C63 1.384(10)
C63 H63 0.9500
C63 C64 1.382(9)
C64 H64 0.9500
C66 H66A 0.9800
C66 H66B 0.9800
C66 H66C 0.9800
C66 C65A 1.477(11)
C67 H67A 0.9800
C67 H67B 0.9800
C67 H67C 0.9800
C67 C65A 1.605(11)
C69 C70 1.558(9)
C69 C121 1.686(14)
C69 C1A 1.400(15)
C69 C1E 1.471(17)
C69 C1G 1.448(18)
C69 C17A 1.731(18)
C69 C1H 1.471(17)
C70 C71 1.388(9)
C70 C122 1.381(10)
C71 H71 0.9500
C71 C72 1.395(8)
C72 C73 1.478(9)
C72 C128 1.403(10)
C73 C74 1.363(9)
C73 C90 1.503(9)
C74 C75 1.457(9)
C74 C92 1.471(8)
C75 C76 1.402(9)
C75 C93 1.420(9)
C76 H76 0.9500
C76 C77 1.373(9)
C77 C78 1.474(9)
C77 C95 1.426(9)
C78 H78 0.9500
C78 C79 1.350(10)
C79 C80 1.436(10)
C79 C96 1.472(10)
C80 C81 1.376(11)
C80 C98 1.489(10)
C81 C82 1.475(11)
C81 C97 1.523(10)
C82 C83 1.379(12)
C82 C104 1.396(13)
C83 H83 0.9500
C83 C84 1.381(12)
C84 H84 0.9500
C84 C85 1.381(15)
C85 H85 0.9500
C85 C105 1.388(14)
C86 H86 0.9500
C86 C87 1.395(10)
C86 C136 1.378(10)
C87 H87 0.9500
C87 C88 1.360(10)
C88 H88 0.9500
C88 C89 1.385(9)
C89 C90 1.483(9)
C89 C135 1.413(9)
C90 C91 1.365(9)
C91 C92 1.447(9)
C91 C129 1.484(8)
C92 C120 1.354(9)
C93 C94 1.366(9)
C93 C120 1.471(9)
C94 H94 0.9500
C94 C95 1.395(9)
C95 C96 1.461(10)
C96 C97 1.342(10)
C97 C106 1.467(10)
C98 C99 1.384(12)
C98 C103 1.389(13)
C99 H99 0.9500
C99 C100 1.401(12)
C100 H100 0.9500
C100 C101 1.395(15)
C101 H101 0.9500
C101 C102 1.332(13)
C102 H102 0.9500
C102 C103 1.381(11)
C103 H103 0.9500
C104 H104 0.9500
C104 C105 1.411(12)
C105 H105 0.9500
C106 C107 1.379(10)
C106 C111 1.390(10)
C107 H107 0.9500
C107 C108 1.385(10)
C108 C109 1.405(10)
C108 C116 1.529(10)
C109 H109 0.9500
C109 C110 1.379(10)
C110 C111 1.398(10)
C110 C112 1.542(10)
C111 H111 0.9500
C112 C113 1.500(11)
C112 C114 1.552(13)
C112 C115 1.545(11)
C113 H11A 0.9800
C113 H11B 0.9800
C113 H11C 0.9800
C114 H11D 0.9800
C114 H11E 0.9800
C114 H11F 0.9800
C115 H11G 0.9800
C115 H11H 0.9800
C115 H11I 0.9800
C116 C117 1.521(11)
C116 C118 1.517(11)
C116 C119 1.543(11)
C117 H11J 0.9800
C117 H11K 0.9800
C117 H11L 0.9800
C118 H11M 0.9800
C118 H11N 0.9800
C118 H11O 0.9800
C119 H11P 0.9800
C119 H11Q 0.9800
C119 H11R 0.9800
C120 H120 0.9500
C121 H12A 0.9800
C121 H12B 0.9800
C121 H12C 0.9800
C122 H122 0.9500
C122 C123 1.404(9)
C123 C124 1.544(10)
C123 C128 1.371(9)
C124 C125 1.531(10)
C124 C126 1.518(11)
C124 C127 1.535(10)
C125 H12D 0.9800
C125 H12E 0.9800
C125 H12F 0.9800
C126 H12G 0.9800
C126 H12H 0.9800
C126 H12I 0.9800
C127 H12J 0.9800
C127 H12K 0.9800
C127 H12L 0.9800
C128 H128 0.9500
C129 C130 1.406(9)
C129 C134 1.368(10)
C130 H130 0.9500
C130 C131 1.382(9)
C131 H131 0.9500
C131 C132 1.359(10)
C132 H132 0.9500
C132 C133 1.387(10)
C133 H133 0.9500
C133 C134 1.395(9)
C134 H134 0.9500
C135 H135 0.9500
C135 C136 1.365(10)
C136 H136 0.9500
C1A H1AA 0.9800
C1A H1AB 0.9800
C1A H1AC 0.9800
C1C H1CA 0.9800
C1C H1CB 0.9800
C1C H1CC 0.9800
C1C C65A 1.496(11)
C1B H1BA 0.9800
C1B H1BB 0.9800
C1B H1BC 0.9800
C1D H1DA 0.9800
C1D H1DB 0.9800
C1D H1DC 0.9800
C67A H67D 0.9800
C67A H67E 0.9800
C67A H67F 0.9800
C67A C65A 1.502(13)
C65A C1F 1.600(14)
C65A C66A 1.520(13)
C1F H1FA 0.9800
C1F H1FB 0.9800
C1F H1FC 0.9800
C66A H66D 0.9800
C66A H66E 0.9800
C66A H66F 0.9800
C1E H1EA 0.9800
C1E H1EB 0.9800
C1E H1EC 0.9800
C1G H1GA 0.9800
C1G H1GB 0.9800
C1G H1GC 0.9800
C17A H17A 0.9800
C17A H17B 0.9800
C17A H17C 0.9800
C1H H1HA 0.9800
C1H H1HB 0.9800
C1H H1HC 0.9800
loop_
_geom_torsion_atom_site_label_1
_geom_torsion_atom_site_label_2
_geom_torsion_atom_site_label_3
_geom_torsion_atom_site_label_4
_geom_torsion
C1 C2 C3 C4 -128.7(8)
C1 C2 C3 C21 51.6(10)
C2 C3 C4 C5 177.3(7)
C2 C3 C21 C22 -176.1(7)
C3 C4 C5 C6 179.1(6)
C3 C4 C5 C23 -0.5(10)
C3 C21 C22 C23 -1.8(11)
C3 C21 C22 C65A 177.7(7)
C4 C3 C21 C22 4.1(11)
C4 C5 C6 C7 -144.1(7)
C4 C5 C6 C24 35.9(9)
C4 C5 C23 C22 3.0(9)
C5 C6 C7 C8 -5.1(13)
C5 C6 C7 C32 179.2(6)
C5 C6 C24 C25 6.5(9)
C5 C6 C24 C31 -177.1(6)
C6 C5 C23 C22 -176.7(6)
C6 C7 C8 C9 -169.8(8)
C6 C7 C8 C51 10.4(14)
C6 C7 C32 C31 -1.4(7)
C6 C7 C32 C58 173.1(5)
C6 C24 C25 C26 -130.5(6)
C6 C24 C25 C30 54.1(8)
C6 C24 C31 C32 -3.7(6)
C6 C24 C31 C59 -179.0(6)
C7 C6 C24 C25 -173.5(5)
C7 C6 C24 C31 2.9(7)
C7 C8 C9 C10 176.6(5)
C7 C8 C9 C58 -5.3(6)
C7 C8 C51 C50 -179.1(6)
C7 C32 C58 C9 1.1(7)
C8 C7 C32 C31 -178.8(5)
C8 C7 C32 C58 -4.4(7)
C8 C9 C10 C11 1.2(9)
C8 C9 C58 C32 2.7(7)
C9 C8 C51 C50 1.2(8)
C9 C10 C11 C12 176.1(6)
C9 C10 C11 C50 3.4(9)
C10 C9 C58 C32 -179.5(6)
C10 C11 C12 C13 1.1(15)
C10 C11 C12 C48 -170.6(7)
C10 C11 C50 C49 173.4(5)
C10 C11 C50 C51 -5.9(9)
C11 C12 C13 C14 -172.9(9)
C11 C12 C13 C33 3.6(14)
C11 C12 C48 C47 175.5(5)
C11 C12 C48 C49 -3.6(7)
C11 C50 C51 C8 3.5(9)
C12 C11 C50 C49 -1.1(6)
C12 C11 C50 C51 179.6(5)
C12 C13 C14 C15 -179.0(7)
C12 C13 C14 C47 1.7(8)
C12 C13 C33 C34 47.2(10)
C12 C13 C33 C38 -135.3(7)
C12 C48 C49 C50 2.9(7)
C13 C12 C48 C47 0.6(7)
C13 C12 C48 C49 -178.5(6)
C13 C14 C15 C16 -131.2(8)
C13 C14 C15 C46 47.0(9)
C13 C14 C47 C48 -1.3(7)
C13 C14 C47 C53 177.0(6)
C13 C33 C34 C35 178.6(6)
C13 C33 C38 C37 -178.4(6)
C14 C13 C33 C34 -136.8(7)
C14 C13 C33 C38 40.7(9)
C14 C15 C16 C17 179.2(7)
C14 C15 C46 C45 -179.1(7)
C14 C47 C48 C12 0.5(7)
C14 C47 C48 C49 179.0(9)
C14 C47 C53 C52 49.3(9)
C14 C47 C53 C57 -128.2(7)
C15 C14 C47 C48 179.5(7)
C15 C14 C47 C53 -2.3(12)
C15 C16 C17 C18 -1.1(12)
C16 C15 C46 C45 -0.9(11)
C16 C17 C18 C45 1.0(14)
C17 C18 C45 C46 -0.8(14)
C18 C45 C46 C15 0.8(12)
C19 C2 C3 C4 -7.7(10)
C19 C2 C3 C21 172.6(7)
C20 C2 C3 C4 111.1(8)
C20 C2 C3 C21 -68.6(8)
C21 C3 C4 C5 -2.9(10)
C21 C22 C23 C5 -1.8(10)
C21 C22 C65A C66 -160.2(9)
C21 C22 C65A C67 -44.2(10)
C21 C22 C65A C1C 68.7(10)
C21 C22 C65A C67A 15.6(14)
C21 C22 C65A C1F 129.8(11)
C21 C22 C65A C66A -122.3(13)
C23 C5 C6 C7 35.6(9)
C23 C5 C6 C24 -144.4(6)
C23 C22 C65A C66 19.3(11)
C23 C22 C65A C67 135.4(8)
C23 C22 C65A C1C -111.8(9)
C23 C22 C65A C67A -164.8(12)
C23 C22 C65A C1F -50.7(11)
C23 C22 C65A C66A 57.2(14)
C24 C6 C7 C8 174.9(8)
C24 C6 C7 C32 -0.8(6)
C24 C25 C26 C27 -177.8(6)
C24 C25 C30 C29 177.4(6)
C24 C31 C32 C7 3.2(7)
C24 C31 C32 C58 -168.0(8)
C24 C31 C59 C60 -147.2(7)
C24 C31 C59 C64 32.7(10)
C25 C24 C31 C32 172.5(5)
C25 C24 C31 C59 -2.8(10)
C25 C26 C27 C28 2.4(11)
C26 C25 C30 C29 1.7(10)
C26 C27 C28 C29 -2.2(11)
C27 C28 C29 C30 1.9(11)
C28 C29 C30 C25 -1.7(10)
C30 C25 C26 C27 -2.1(10)
C31 C24 C25 C26 53.9(9)
C31 C24 C25 C30 -121.6(7)
C31 C32 C58 C9 172.3(7)
C31 C59 C60 C61 179.5(6)
C31 C59 C64 C63 -179.8(6)
C32 C7 C8 C9 5.9(6)
C32 C7 C8 C51 -173.8(6)
C32 C31 C59 C60 38.2(9)
C32 C31 C59 C64 -141.9(7)
C33 C13 C14 C15 4.3(10)
C33 C13 C14 C47 -175.0(6)
C33 C34 C35 C36 -2.1(10)
C33 C34 C35 C41 -179.6(6)
C34 C33 C38 C37 -0.9(10)
C34 C35 C36 C37 2.9(10)
C34 C35 C41 C42 -175.1(7)
C34 C35 C41 C43 -54.2(9)
C34 C35 C41 C44 66.4(9)
C35 C36 C37 C38 -2.7(11)
C35 C36 C37 C39 -177.7(7)
C36 C35 C41 C42 7.6(10)
C36 C35 C41 C43 128.4(8)
C36 C35 C41 C44 -110.9(8)
C36 C37 C38 C33 1.6(11)
C36 C37 C39 C40 -43.7(13)
C36 C37 C39 C1B 70.2(10)
C36 C37 C39 C1D -174.5(10)
C38 C33 C34 C35 1.1(10)
C38 C37 C39 C40 141.4(9)
C38 C37 C39 C1B -104.6(11)
C38 C37 C39 C1D 10.7(14)
C39 C37 C38 C33 176.5(7)
C41 C35 C36 C37 -179.7(7)
C46 C15 C16 C17 1.1(11)
C47 C14 C15 C16 48.0(10)
C47 C14 C15 C46 -133.9(8)
C47 C48 C49 C50 -175.6(8)
C47 C53 C52 C54 -177.5(5)
C47 C53 C57 C56 177.5(5)
C48 C12 C13 C14 -1.3(7)
C48 C12 C13 C33 175.2(6)
C48 C47 C53 C52 -132.7(6)
C48 C47 C53 C57 49.8(7)
C48 C49 C50 C11 -1.1(7)
C48 C49 C50 C51 178.1(6)
C49 C50 C51 C8 -175.6(6)
C50 C11 C12 C13 174.5(9)
C50 C11 C12 C48 2.8(6)
C51 C8 C9 C10 -3.6(9)
C51 C8 C9 C58 174.4(5)
C53 C47 C48 C12 -177.9(6)
C53 C47 C48 C49 0.6(13)
C53 C52 C54 C55 0.0
C52 C53 C57 C56 0.0
C52 C54 C55 C56 0.0
C54 C55 C56 C57 0.0
C55 C56 C57 C53 0.0
C57 C53 C52 C54 0.0
C58 C9 C10 C11 -176.4(6)
C59 C31 C32 C7 178.9(5)
C59 C31 C32 C58 7.7(12)
C59 C60 C61 C62 0.5(10)
C60 C59 C64 C63 0.1(10)
C60 C61 C62 C63 -0.2(10)
C61 C62 C63 C64 -0.1(11)
C62 C63 C64 C59 0.1(11)
C64 C59 C60 C61 -0.4(9)
C69 C70 C71 C72 -179.0(6)
C69 C70 C122 C123 -179.2(6)
C70 C71 C72 C73 176.4(6)
C70 C71 C72 C128 -1.7(9)
C70 C122 C123 C124 178.1(7)
C70 C122 C123 C128 -1.8(10)
C71 C70 C122 C123 0.5(10)
C71 C72 C73 C74 -35.1(9)
C71 C72 C73 C90 144.9(6)
C71 C72 C128 C123 0.2(10)
C72 C73 C74 C75 8.3(14)
C72 C73 C74 C92 178.9(6)
C72 C73 C90 C89 -6.3(9)
C72 C73 C90 C91 179.0(6)
C73 C72 C128 C123 -177.9(6)
C73 C74 C75 C76 -14.8(14)
C73 C74 C75 C93 166.0(9)
C73 C74 C92 C91 2.7(7)
C73 C74 C92 C120 -170.8(5)
C73 C90 C91 C92 2.6(7)
C73 C90 C91 C129 179.7(6)
C74 C73 C90 C89 173.7(6)
C74 C73 C90 C91 -1.0(7)
C74 C75 C76 C77 179.6(6)
C74 C75 C93 C94 -177.3(6)
C74 C75 C93 C120 4.1(6)
C74 C92 C120 C93 -1.1(7)
C75 C74 C92 C91 177.1(5)
C75 C74 C92 C120 3.6(7)
C75 C76 C77 C78 173.9(6)
C75 C76 C77 C95 -2.3(9)
C75 C93 C94 C95 -1.8(9)
C75 C93 C120 C92 -1.9(7)
C76 C75 C93 C94 3.4(9)
C76 C75 C93 C120 -175.2(5)
C76 C77 C78 C79 -176.0(6)
C76 C77 C95 C94 3.9(9)
C76 C77 C95 C96 178.4(6)
C77 C78 C79 C80 174.0(9)
C77 C78 C79 C96 -2.5(8)
C77 C95 C96 C79 -2.9(7)
C77 C95 C96 C97 -171.8(9)
C78 C77 C95 C94 -173.1(6)
C78 C77 C95 C96 1.5(7)
C78 C79 C80 C81 -176.6(9)
C78 C79 C80 C98 2.3(15)
C78 C79 C96 C95 3.4(8)
C78 C79 C96 C97 176.3(6)
C79 C80 C81 C82 179.7(8)
C79 C80 C81 C97 1.4(9)
C79 C80 C98 C99 131.3(8)
C79 C80 C98 C103 -46.7(11)
C79 C96 C97 C81 2.3(8)
C79 C96 C97 C106 -173.0(7)
C80 C79 C96 C95 -174.4(6)
C80 C79 C96 C97 -1.5(8)
C80 C81 C82 C83 -49.1(12)
C80 C81 C82 C104 133.9(9)
C80 C81 C97 C96 -2.3(9)
C80 C81 C97 C106 173.2(7)
C80 C98 C99 C100 -178.3(7)
C80 C98 C103 C102 178.4(7)
C81 C80 C98 C99 -50.1(12)
C81 C80 C98 C103 131.9(9)
C81 C82 C83 C84 -177.2(7)
C81 C82 C104 C105 177.7(6)
C81 C97 C106 C107 136.4(8)
C81 C97 C106 C111 -46.2(10)
C82 C81 C97 C96 179.3(7)
C82 C81 C97 C106 -5.2(12)
C82 C83 C84 C85 0.6(12)
C82 C104 C105 C85 -1.5(11)
C83 C82 C104 C105 0.5(11)
C83 C84 C85 C105 -1.6(13)
C84 C85 C105 C104 2.0(12)
C86 C87 C88 C89 -1.4(11)
C87 C86 C136 C135 -0.2(11)
C87 C88 C89 C90 179.3(6)
C87 C88 C89 C135 0.0(10)
C88 C89 C90 C73 129.1(6)
C88 C89 C90 C91 -57.1(9)
C88 C89 C135 C136 1.3(9)
C89 C90 C91 C92 -171.9(6)
C89 C90 C91 C129 5.1(10)
C89 C135 C136 C86 -1.2(10)
C90 C73 C74 C75 -171.7(8)
C90 C73 C74 C92 -1.1(7)
C90 C89 C135 C136 -178.0(6)
C90 C91 C92 C74 -3.3(7)
C90 C91 C92 C120 166.5(8)
C90 C91 C129 C130 143.9(7)
C90 C91 C129 C134 -38.1(10)
C91 C92 C120 C93 -170.8(8)
C91 C129 C130 C131 179.2(6)
C91 C129 C134 C133 -179.6(7)
C92 C74 C75 C76 174.5(6)
C92 C74 C75 C93 -4.8(6)
C92 C91 C129 C130 -39.4(9)
C92 C91 C129 C134 138.5(7)
C93 C75 C76 C77 -1.3(9)
C93 C94 C95 C77 -1.8(9)
C93 C94 C95 C96 -174.5(7)
C94 C93 C120 C92 179.7(6)
C94 C95 C96 C79 170.4(7)
C94 C95 C96 C97 1.5(16)
C95 C77 C78 C79 0.6(7)
C95 C96 C97 C81 171.0(9)
C95 C96 C97 C106 -4.4(16)
C96 C79 C80 C81 0.0(8)
C96 C79 C80 C98 178.9(7)
C96 C97 C106 C107 -49.0(11)
C96 C97 C106 C111 128.3(8)
C97 C81 C82 C83 129.0(8)
C97 C81 C82 C104 -48.0(10)
C97 C106 C107 C108 177.2(6)
C97 C106 C111 C110 -177.2(7)
C98 C80 C81 C82 0.8(14)
C98 C80 C81 C97 -177.4(8)
C98 C99 C100 C101 -1.0(13)
C99 C98 C103 C102 0.3(12)
C99 C100 C101 C102 2.4(14)
C100 C101 C102 C103 -2.5(14)
C101 C102 C103 C98 1.1(14)
C103 C98 C99 C100 -0.3(12)
C104 C82 C83 C84 -0.1(11)
C106 C107 C108 C109 0.6(10)
C106 C107 C108 C116 -177.5(6)
C107 C106 C111 C110 0.1(10)
C107 C108 C109 C110 -1.0(10)
C107 C108 C116 C117 56.8(8)
C107 C108 C116 C118 178.7(7)
C107 C108 C116 C119 -62.0(9)
C108 C109 C110 C111 1.0(11)
C108 C109 C110 C112 -178.7(7)
C109 C108 C116 C117 -121.1(7)
C109 C108 C116 C118 0.8(10)
C109 C108 C116 C119 120.1(7)
C109 C110 C111 C106 -0.6(11)
C109 C110 C112 C113 -123.8(8)
C109 C110 C112 C114 115.4(9)
C109 C110 C112 C115 -2.7(11)
C111 C106 C107 C108 -0.2(11)
C111 C110 C112 C113 56.4(10)
C111 C110 C112 C114 -64.3(9)
C111 C110 C112 C115 177.6(7)
C112 C110 C111 C106 179.2(7)
C116 C108 C109 C110 177.0(7)
C120 C93 C94 C95 176.5(6)
C121 C69 C70 C71 -133.3(8)
C121 C69 C70 C122 46.3(10)
C122 C70 C71 C72 1.4(10)
C122 C123 C124 C125 -175.0(6)
C122 C123 C124 C126 64.9(8)
C122 C123 C124 C127 -55.0(9)
C122 C123 C128 C72 1.5(10)
C124 C123 C128 C72 -178.5(6)
C128 C72 C73 C74 143.0(7)
C128 C72 C73 C90 -37.0(9)
C128 C123 C124 C125 5.0(10)
C128 C123 C124 C126 -115.2(7)
C128 C123 C124 C127 125.0(7)
C129 C91 C92 C74 179.4(5)
C129 C91 C92 C120 -10.8(12)
C129 C130 C131 C132 -0.5(10)
C130 C129 C134 C133 -1.6(11)
C130 C131 C132 C133 0.3(11)
C131 C132 C133 C134 -0.7(11)
C132 C133 C134 C129 1.4(12)
C134 C129 C130 C131 1.1(10)
C135 C89 C90 C73 -51.7(9)
C135 C89 C90 C91 122.1(7)
C136 C86 C87 C88 1.5(11)
C1A C69 C70 C71 110.0(10)
C1A C69 C70 C122 -70.4(11)
C65A C22 C23 C5 178.6(6)
C1E C69 C70 C71 -22.1(12)
C1E C69 C70 C122 157.5(10)
C1G C69 C70 C71 -60.2(13)
C1G C69 C70 C122 119.4(12)
C17A C69 C70 C71 50.9(10)
C17A C69 C70 C122 -129.5(8)
C1H C69 C70 C71 163.1(10)
C1H C69 C70 C122 -17.3(13)
loop_
_refln_index_h
_refln_index_k
_refln_index_l
_refln_F_squared_meas
_refln_F_squared_sigma
2 0 0 19.35 1.84
3 0 0 7.53 0.83
4 0 0 39.15 3.72
5 0 0 0.16 0.36
6 0 0 64.13 6.08
7 0 0 2.1 0.52
8 0 0 1.47 0.56
9 0 0 5.51 0.94
-10 0 0 0.52 0.56
10 0 0 -0.23 0.75
-11 0 0 6.2 0.87
11 0 0 6.13 1.14
-12 0 0 1.59 0.69
-13 0 0 -0.16 0.6
-13 1 0 4.06 0.7
-12 1 0 -0.5 0.62
11 -1 0 8.92 1.28
-11 1 0 8.05 1
10 -1 0 0.42 0.73
9 -1 0 1.39 0.64
8 -1 0 0.6 0.47
7 -1 0 3.47 0.61
7 -1 0 4.85 0.67
6 -1 0 1.1 0.45
5 -1 0 2.43 0.44
4 -1 0 20.54 1.99
3 -1 0 45.12 4.25
2 -1 0 28.43 2.68
-2 -1 0 31.01 2.87
2 1 0 29.6 2.87
-3 -1 0 44.35 4.12
3 1 0 42.69 4.12
-4 -1 0 14.4 1.44
4 1 0 13.86 1.44
-5 -1 0 2.89 0.49
5 1 0 2.38 0.49
6 1 0 0.78 0.45
7 1 0 2.11 0.56
8 1 0 1.02 0.59
9 1 0 5.75 0.97
-10 -1 0 0.66 0.57
10 1 0 0.16 0.75
-11 -1 0 2.68 0.7
11 1 0 2.21 0.9
-12 -1 0 1.29 0.67
-13 -1 0 2.76 0.69
-13 2 0 4.2 0.68
-12 2 0 2.33 0.64
11 -2 0 2.96 0.89
-11 2 0 2.75 0.66
10 -2 0 0.49 0.72
9 -2 0 0.53 0.6
8 -2 0 2.11 0.54
7 -2 0 1.06 0.46
6 -2 0 9.39 1.08
6 -2 0 8.73 0.99
5 -2 0 10 1.03
5 -2 0 9.65 1.07
4 -2 0 11.26 1.14
3 -2 0 154.96 14.5
2 -2 0 50.64 4.75
-1 -2 0 23.42 2.22
-2 -2 0 97.18 9.14
2 2 0 97.66 9.14
-3 -2 0 149.07 13.84
3 2 0 146.23 13.84
-4 -2 0 6.45 0.82
4 2 0 5.99 0.79
-5 -2 0 16.77 1.75
5 2 0 17.4 1.76
6 2 0 18.11 1.9
7 2 0 0.89 0.55
8 2 0 5.24 0.87
-9 -2 0 0.55 0.5
9 2 0 0.05 0.68
-10 -2 0 1.43 0.6
10 2 0 -0.47 0.76
-11 -2 0 1.23 0.66
11 2 0 -0.2 0.83
-12 -2 0 11.76 1.36
-13 -2 0 2.03 0.64
-13 3 0 -0.43 0.51
-12 3 0 0.26 0.59
11 -3 0 1.48 0.78
-11 3 0 2.68 0.64
10 -3 0 2.48 0.76
9 -3 0 5.59 0.96
9 -3 0 8.7 1.06
8 -3 0 1.22 0.46
8 -3 0 0.42 0.5
7 -3 0 5.54 0.74
6 -3 0 23.31 2.29
5 -3 0 14.58 1.43
5 -3 0 14.76 1.48
4 -3 0 126.69 11.87
3 -3 0 4.76 0.55
2 -3 0 35.06 3.29
0 -3 0 0.14 0.19
-1 -3 0 429.58 40.15
-2 -3 0 35.76 3.36
2 3 0 34.8 3.35
-3 -3 0 2.94 0.48
3 3 0 3.08 0.47
-4 -3 0 92.46 8.6
4 3 0 90.26 8.6
-5 -3 0 27.86 2.84
5 3 0 29.98 2.84
-6 -3 0 10.36 1.31
6 3 0 11.51 1.33
7 3 0 7.02 0.95
-8 -3 0 1.39 0.47
8 3 0 0.44 0.63
-9 -3 0 9.8 1.01
9 3 0 8.7 1.29
-10 -3 0 4.92 0.74
10 3 0 3.12 0.98
-11 -3 0 0.77 0.66
11 3 0 0.9 0.92
-12 -3 0 0.78 0.67
-13 -3 0 2.15 0.64
10 -4 0 8.49 1.14
9 -4 0 10.23 1.58
9 -4 0 16.05 1.54
8 -4 0 7.58 0.85
8 -4 0 4.58 0.73
7 -4 0 8.14 1.01
6 -4 0 55.64 5.27
5 -4 0 6.32 0.8
4 -4 0 12.26 1.23
3 -4 0 0.69 0.27
2 -4 0 1.67 0.24
1 -4 0 152.32 14.24
0 -4 0 74.62 7
-1 -4 0 137.41 12.87
-2 -4 0 3.68 0.52
2 4 0 3.89 0.51
-3 -4 0 0.97 0.39
3 4 0 0.99 0.38
-4 -4 0 31.09 2.93
4 4 0 28.95 2.91
-5 -4 0 11.23 1.34
5 4 0 10.98 1.31
-6 -4 0 64.56 6.19
6 4 0 65.18 6.19
7 4 0 19.46 2.08
-8 -4 0 3.2 0.56
8 4 0 2.56 0.75
-9 -4 0 18.59 1.79
9 4 0 20.14 2.21
-10 -4 0 12.05 1.39
10 4 0 13.77 1.66
-11 -4 0 0.63 0.67
11 4 0 -1.54 0.88
-12 -4 0 4.28 0.8
-13 -4 0 0.44 0.58
10 -5 0 9.23 1.22
9 -5 0 2.87 0.63
9 -5 0 3.27 0.72
8 -5 0 4.24 0.59
8 -5 0 3.43 0.68
7 -5 0 9.02 1.07
6 -5 0 2.83 0.46
5 -5 0 69.16 6.51
4 -5 0 23.9 2.29
3 -5 0 0.43 0.28
2 -5 0 37.86 3.56
1 -5 0 51.57 4.76
1 -5 0 49.75 4.7
0 -5 0 2.34 0.35
-1 -5 0 50.59 4.78
-2 -5 0 39.56 3.74
2 5 0 38.95 3.73
-3 -5 0 0.33 0.4
3 5 0 0.49 0.38
-4 -5 0 12.71 1.43
4 5 0 12.74 1.41
-5 -5 0 74.51 6.93
5 5 0 71.22 6.91
-6 -5 0 3.76 0.76
6 5 0 4.81 0.76
7 5 0 12.39 1.51
-8 -5 0 6.79 0.66
-8 -5 0 7.69 0.84
8 5 0 7.21 1.07
-9 -5 0 1.85 0.57
9 5 0 0.69 0.8
-10 -5 0 3.4 0.7
10 5 0 2.65 1.01
-11 -5 0 1.36 0.69
-12 -5 0 6.05 0.86
-13 -5 0 1.93 0.59
10 -6 0 4.67 0.82
9 -6 0 5.71 0.93
9 -6 0 7.28 1
9 -6 0 9.46 1.06
8 -6 0 2.19 0.55
8 -6 0 4.25 0.67
8 -6 0 3.92 0.69
7 -6 0 6.74 0.87
6 -6 0 1.92 0.39
5 -6 0 7.42 0.86
4 -6 0 6.88 0.79
3 -6 0 41.98 3.66
3 -6 0 35.39 3.6
2 -6 0 3.58 0.43
2 -6 0 4.24 0.49
1 -6 0 11.06 1.06
1 -6 0 9.88 1.04
0 -6 0 26.09 2.5
-1 -6 0 18.36 1.81
-2 -6 0 1.93 0.45
-3 -6 0 23.99 2.41
3 6 0 24.56 2.4
-4 -6 0 10.52 1.31
4 6 0 10.79 1.29
-5 -6 0 16.57 1.82
5 6 0 16.34 1.79
-6 -6 0 4.41 0.78
6 6 0 4.49 0.78
-7 -6 0 3.3 0.73
7 6 0 3.02 0.72
-8 -6 0 1.05 0.53
-8 -6 0 1.77 0.38
-9 -6 0 2.32 0.61
-9 -6 0 2.11 0.42
-10 -6 0 3.86 0.74
-11 -6 0 2.1 0.69
-12 -6 0 1.12 0.63
10 -7 0 0.52 0.57
9 -7 0 1.89 0.65
9 -7 0 1.75 0.62
9 -7 0 2.96 0.62
8 -7 0 5.6 0.77
8 -7 0 5.52 0.79
8 -7 0 3.54 0.66
7 -7 0 8.46 0.97
7 -7 0 6.11 0.95
7 -7 0 9.63 1.12
6 -7 0 1.57 0.39
5 -7 0 23.48 2.28
4 -7 0 14.09 1.44
3 -7 0 36.22 3.31
3 -7 0 33.48 3.26
2 -7 0 12.23 1.19
2 -7 0 11.5 1.2
1 -7 0 13.16 1.31
0 -7 0 0.99 0.34
-1 -7 0 9.61 1.08
-2 -7 0 11.2 1.27
-3 -7 0 33.05 3.23
-4 -7 0 16.41 1.8
-5 -7 0 36.64 3.61
-6 -7 0 3.65 0.64
-6 -7 0 3.11 0.74
-7 -7 0 1.98 0.61
-7 -7 0 3.76 0.56
-7 -7 0 3.81 0.75
-8 -7 0 3.37 0.62
-8 -7 0 3.01 0.46
-9 -7 0 5.3 0.77
-9 -7 0 5.23 0.59
-10 -7 0 2.17 0.64
-11 -7 0 3.01 0.71
-12 -7 0 -0.07 0.54
10 -8 0 0.49 0.54
9 -8 0 2.04 0.61
9 -8 0 1.19 0.6
9 -8 0 1.46 0.6
8 -8 0 -0.08 0.46
8 -8 0 0.46 0.52
8 -8 0 -0.11 0.52
7 -8 0 0.86 0.4
7 -8 0 1.61 0.41
7 -8 0 2.27 0.54
6 -8 0 8.42 0.99
5 -8 0 3.97 0.55
4 -8 0 11.43 1.21
3 -8 0 1.77 0.34
2 -8 0 5.12 0.64
1 -8 0 23.1 2.24
0 -8 0 4.31 0.59
-1 -8 0 14.84 1.56
-2 -8 0 6.46 0.85
-3 -8 0 0.63 0.55
-4 -8 0 11.31 1.44
-4 -8 0 14.53 1.49
-5 -8 0 2.77 0.69
-5 -8 0 2.23 0.52
-6 -8 0 3.36 0.73
-6 -8 0 2.27 0.56
-7 -8 0 3.01 0.56
-7 -8 0 3.08 0.67
-7 -8 0 2.85 0.78
-8 -8 0 -0.13 0.38
-8 -8 0 0.14 0.54
-8 -8 0 0.38 0.49
-9 -8 0 1.56 0.45
-9 -8 0 1.69 0.58
-10 -8 0 3.87 0.54
-10 -8 0 4.54 0.77
-11 -8 0 1.28 0.58
-12 -8 0 0.47 0.55
10 -9 0 0.55 0.52
9 -9 0 2.95 0.71
9 -9 0 3.15 0.73
9 -9 0 3.31 0.68
8 -9 0 2.33 0.57
8 -9 0 1.61 0.54
8 -9 0 0.63 0.56
7 -9 0 2.54 0.55
7 -9 0 3.62 0.57
7 -9 0 4.86 0.74
6 -9 0 0.13 0.5
6 -9 0 -0.3 0.35
6 -9 0 0.96 0.4
5 -9 0 1.86 0.4
4 -9 0 0.18 0.36
3 -9 0 27.9 2.67
2 -9 0 3.7 0.5
1 -9 0 4.39 0.57
0 -9 0 -0.3 0.39
-1 -9 0 6.21 0.81
-2 -9 0 1.84 0.57
-3 -9 0 41.28 3.67
-3 -9 0 34.75 3.88
-4 -9 0 0.6 0.43
-4 -9 0 -0.02 0.58
-5 -9 0 1.25 0.47
-5 -9 0 1.56 0.63
-6 -9 0 -0.01 0.5
-6 -9 0 0.49 0.39
-6 -9 0 0.13 0.62
-6 -9 0 0.21 0.5
-7 -9 0 0.64 0.52
-7 -9 0 1.48 0.56
-7 -9 0 0.07 0.66
-8 -9 0 6.02 0.83
-8 -9 0 6.33 0.67
-9 -9 0 0.91 0.44
-9 -9 0 1.7 0.58
-10 -9 0 1.48 0.58
-10 -9 0 0.77 0.42
-11 -9 0 2.13 0.62
10 -10 0 5.19 0.81
8 -10 0 11.86 1.54
8 -10 0 14.41 1.64
7 -10 0 2.82 0.61
7 -10 0 5.4 0.79
6 -10 0 1 0.54
6 -10 0 1.88 0.44
6 -10 0 0.44 0.4
5 -10 0 0.37 0.35
5 -10 0 0.16 0.46
4 -10 0 0.65 0.46
4 -10 0 0.13 0.38
3 -10 0 13.08 1.33
2 -10 0 1.9 0.4
1 -10 0 7.04 0.85
0 -10 0 0.08 0.4
-1 -10 0 6.26 0.8
-1 -10 0 5.68 0.76
-2 -10 0 3.68 0.53
-2 -10 0 2.49 0.65
-3 -10 0 21.75 2.45
-3 -10 0 25.64 2.39
-4 -10 0 0.13 0.43
-4 -10 0 0.75 0.59
-4 -10 0 0.26 0.39
-5 -10 0 -0.02 0.6
-5 -10 0 0.66 0.41
-5 -10 0 0.68 0.48
-6 -10 0 0.97 0.53
-6 -10 0 0.6 0.42
-6 -10 0 0.18 0.64
-7 -10 0 0.93 0.45
-7 -10 0 1.68 0.73
-7 -10 0 1.24 0.43
-7 -10 0 1.18 0.58
-8 -10 0 6.23 0.82
-9 -10 0 10.46 1.3
-9 -10 0 12.43 1.09
-10 -10 0 1.83 0.6
-10 -10 0 2.22 0.47
-11 -10 0 4.51 0.51
-11 -10 0 3.12 0.64
10 -11 0 0.01 0.43
9 -11 0 10.63 1.35
8 -11 0 9.44 1.37
8 -11 0 12.4 1.44
7 -11 0 0.33 0.53
7 -11 0 0.64 0.54
6 -11 0 1.43 0.48
6 -11 0 2.58 0.61
5 -11 0 2.16 0.49
5 -11 0 2.8 0.6
4 -11 0 0.33 0.45
4 -11 0 -0.25 0.41
3 -11 0 0.97 0.36
3 -11 0 0.48 0.44
2 -11 0 5.21 0.66
1 -11 0 26.45 2.58
0 -11 0 1.31 0.46
-1 -11 0 36.92 3.58
-2 -11 0 3.1 0.48
-2 -11 0 2.66 0.41
-2 -11 0 2.57 0.63
-3 -11 0 0.25 0.56
-3 -11 0 0.7 0.41
-3 -11 0 0.84 0.35
-4 -11 0 0.26 0.41
-4 -11 0 -0.04 0.45
-4 -11 0 0.06 0.61
-5 -11 0 4.26 0.87
-5 -11 0 5.38 0.8
-5 -11 0 5.12 0.64
-6 -11 0 0.75 0.45
-6 -11 0 0.52 0.66
-7 -11 0 2.23 0.51
-7 -11 0 1 0.76
-7 -11 0 2.57 0.53
-8 -11 0 2.88 0.53
-8 -11 0 2.61 0.63
-9 -11 0 1.09 0.57
-9 -11 0 2.44 0.51
-10 -11 0 0.81 0.51
-10 -11 0 1.71 0.44
10 -12 0 0.62 0.43
9 -12 0 1.39 0.52
8 -12 0 9.95 1.31
7 -12 0 3.67 0.68
7 -12 0 1.74 0.66
6 -12 0 0.25 0.51
5 -12 0 -0.01 0.48
4 -12 0 1.49 0.51
4 -12 0 1.39 0.49
3 -12 0 7.13 0.93
3 -12 0 6.65 0.85
2 -12 0 2.06 0.55
2 -12 0 1.77 0.47
1 -12 0 1.3 0.49
1 -12 0 0.74 0.44
0 -12 0 8.12 0.95
0 -12 0 6.58 0.98
-1 -12 0 2.73 0.4
-1 -12 0 2.44 0.57
-1 -12 0 1.92 0.56
-2 -12 0 0.54 0.54
-2 -12 0 0.82 0.32
-2 -12 0 -0.09 0.51
-3 -12 0 3.22 0.71
-3 -12 0 1.03 0.64
-3 -12 0 3.99 0.49
-4 -12 0 0.56 0.44
-4 -12 0 1.01 0.64
-5 -12 0 0.57 0.66
-5 -12 0 0.47 0.48
-6 -12 0 0.22 0.46
-6 -12 0 -0.77 0.45
-6 -12 0 0.5 0.65
-7 -12 0 1.55 0.51
-7 -12 0 1.09 0.5
-7 -12 0 0.55 0.7
-8 -12 0 2.06 0.5
-9 -12 0 0.55 0.45
-10 -12 0 7.91 0.76
9 -13 0 0.41 0.45
8 -13 0 14.31 1.68
7 -13 0 11.96 1.49
6 -13 0 0.98 0.54
5 -13 0 0.78 0.51
4 -13 0 1.43 0.56
3 -13 0 0.58 0.52
3 -13 0 0.2 0.51
2 -13 0 3.34 0.6
2 -13 0 4.06 0.69
1 -13 0 3.57 0.66
1 -13 0 3.28 0.62
0 -13 0 1.19 0.52
0 -13 0 1.52 0.52
0 -13 0 1.91 0.36
-1 -13 0 1 0.54
-1 -13 0 1.82 0.56
-1 -13 0 1.42 0.37
-2 -13 0 5.11 0.8
-2 -13 0 4.25 0.82
-2 -13 0 5.73 0.59
-3 -13 0 -1.42 0.6
-3 -13 0 -0.46 0.42
-3 -13 0 -0.14 0.56
-4 -13 0 0.45 0.63
-4 -13 0 0.43 0.47
-5 -13 0 -0.07 0.46
-5 -13 0 0.03 0.5
-5 -13 0 0.24 0.63
-6 -13 0 -0.34 0.63
-6 -13 0 0.05 0.5
-6 -13 0 -0.32 0.49
-7 -13 0 9.1 0.93
-7 -13 0 5.61 0.76
-9 -13 0 0.09 0.43
8 -14 0 -0.13 0.47
7 -14 0 6.96 0.99
6 -14 0 1.19 0.58
5 -14 0 6.33 0.95
4 -14 0 12.87 1.61
3 -14 0 1.69 0.59
2 -14 0 1.91 0.58
2 -14 0 1.26 0.51
1 -14 0 8.48 1.06
1 -14 0 6.12 0.93
0 -14 0 1.07 0.54
0 -14 0 1.1 0.56
0 -14 0 0.56 0.34
-1 -14 0 8.96 1.35
-1 -14 0 10.6 0.99
-1 -14 0 11.35 1.3
-2 -14 0 4.27 0.51
-2 -14 0 2.7 0.5
-2 -14 0 1.68 0.69
-2 -14 0 2.52 0.69
-3 -14 0 -0.16 0.6
-3 -14 0 -0.01 0.47
-3 -14 0 0.49 0.41
-4 -14 0 8.55 0.86
-4 -14 0 5.42 0.66
-4 -14 0 4.58 0.95
-5 -14 0 4.69 0.67
-5 -14 0 3.74 0.59
-6 -14 0 3.08 0.58
-6 -14 0 3.1 0.61
-7 -14 0 2.5 0.53
-7 -14 0 3.01 0.6
-8 -14 0 0.18 0.42
7 -15 0 1.85 0.57
6 -15 0 1.84 0.58
5 -15 0 4.08 0.74
4 -15 0 3.98 0.75
3 -15 0 2.29 0.64
2 -15 0 1.89 0.63
2 -15 0 0.81 0.56
1 -15 0 2.15 0.64
1 -15 0 2.03 0.6
1 -15 0 2.08 0.39
0 -15 0 0.02 0.56
0 -15 0 0.43 0.35
0 -15 0 0.83 0.56
-1 -15 0 1.01 0.41
-1 -15 0 -0.08 0.56
-1 -15 0 0.88 0.6
-2 -15 0 0.85 0.47
-2 -15 0 0.78 0.41
-2 -15 0 0.19 0.61
-2 -15 0 -0.25 0.6
-3 -15 0 0.34 0.41
-3 -15 0 0.75 0.49
-4 -15 0 6.08 0.77
-4 -15 0 6.32 0.68
-5 -15 0 5.61 0.68
-5 -15 0 5.68 0.74
-6 -15 0 2.81 0.59
-6 -15 0 2.68 0.52
-7 -15 0 0.7 0.47
-7 -15 0 0.6 0.48
6 -16 0 1.93 0.55
5 -16 0 0.05 0.5
4 -16 0 5.26 0.83
3 -16 0 -0.02 0.52
3 -16 0 -0.12 0.28
2 -16 0 2.44 0.66
2 -16 0 2.8 0.41
1 -16 0 1.07 0.58
1 -16 0 0.56 0.33
0 -16 0 3.55 0.77
0 -16 0 4.32 0.53
-1 -16 0 0.22 0.58
-1 -16 0 0.54 0.44
-2 -16 0 1.47 0.49
-2 -16 0 0.71 0.45
-3 -16 0 0.51 0.47
-3 -16 0 -0.07 0.42
-4 -16 0 1.84 0.53
-4 -16 0 1.35 0.44
-5 -16 0 1.17 0.48
-5 -16 0 0.83 0.51
-6 -16 0 5.62 0.72
-6 -16 0 5.62 0.64
5 -17 0 0.45 0.49
4 -17 0 1.41 0.3
4 -17 0 1.58 0.55
3 -17 0 0.39 0.53
3 -17 0 0.52 0.29
2 -17 0 0.48 0.54
2 -17 0 0.53 0.31
1 -17 0 1.18 0.59
1 -17 0 1.75 0.39
0 -17 0 -0.57 0.39
0 -17 0 -0.21 0.55
-1 -17 0 3.38 0.5
-1 -17 0 1.08 0.64
-2 -17 0 0.15 0.44
-3 -17 0 -0.2 0.45
-3 -17 0 0.29 0.42
-4 -17 0 2.34 0.46
-4 -17 0 1.68 0.52
-5 -17 0 0.1 0.4
-5 -17 0 0.31 0.46
3 -18 0 0.36 0.52
3 -18 0 0.13 0.27
2 -18 0 -0.04 0.53
2 -18 0 -0.01 0.29
1 -18 0 0.41 0.33
1 -18 0 0.01 0.51
0 -18 0 1 0.38
0 -18 0 0.11 0.52
-1 -18 0 0.99 0.41
-2 -18 0 0.1 0.41
-3 -18 0 0.31 0.41
-3 -18 1 0.29 0.42
-2 -18 1 3.07 0.51
-1 -18 1 0.94 0.4
0 -18 1 1.63 0.38
0 -18 1 0.36 0.56
1 -18 1 1.63 0.36
1 -18 1 1.81 0.61
2 -18 1 3.98 0.45
2 -18 1 3.02 0.72
3 -18 1 0.28 0.26
3 -18 1 0.42 0.52
-5 -17 1 0.08 0.45
-5 -17 1 0.3 0.39
-4 -17 1 -0.14 0.47
-4 -17 1 0.39 0.42
-3 -17 1 5.12 0.63
-3 -17 1 3.88 0.57
-2 -17 1 1.56 0.46
-1 -17 1 0.41 0.41
-1 -17 1 0.62 0.6
0 -17 1 0.49 0.59
0 -17 1 1.36 0.4
1 -17 1 0.58 0.34
1 -17 1 0.56 0.59
2 -17 1 2.15 0.37
2 -17 1 2.05 0.63
3 -17 1 8.46 1.18
3 -17 1 8.42 0.8
4 -17 1 1.19 0.55
5 -17 1 0.86 0.53
-7 -16 1 6.64 0.81
-7 -16 1 8.42 0.81
-6 -16 1 0.06 0.43
-6 -16 1 0.21 0.47
-5 -16 1 1.32 0.52
-5 -16 1 1.36 0.47
-4 -16 1 0.88 0.45
-4 -16 1 1.09 0.51
-3 -16 1 1.07 0.48
-3 -16 1 0.06 0.47
-2 -16 1 16.27 1.44
-2 -16 1 18.53 1.58
-1 -16 1 1.46 0.44
-1 -16 1 1.52 0.65
0 -16 1 2.96 0.48
0 -16 1 3.62 0.74
1 -16 1 2.12 0.38
1 -16 1 1.72 0.64
2 -16 1 15.46 1.78
2 -16 1 14.89 1.32
3 -16 1 -0.1 0.52
3 -16 1 0.43 0.28
4 -16 1 1.56 0.57
5 -16 1 0.23 0.5
6 -16 1 -0.21 0.48
7 -16 1 3.16 0.6
-8 -15 1 4.34 0.55
-7 -15 1 3.15 0.6
-7 -15 1 4.02 0.56
-6 -15 1 0.79 0.47
-6 -15 1 0.76 0.51
-5 -15 1 6.52 0.8
-5 -15 1 6.52 0.72
-4 -15 1 2.54 0.56
-4 -15 1 1.58 0.49
-3 -15 1 4.94 0.92
-3 -15 1 6.11 0.66
-3 -15 1 6.2 0.72
-2 -15 1 3.4 0.53
-2 -15 1 2.39 0.72
-2 -15 1 2.33 0.48
-2 -15 1 3.04 0.68
-1 -15 1 0.44 0.38
-1 -15 1 -0.16 0.58
-1 -15 1 0.61 0.55
0 -15 1 0.35 0.33
0 -15 1 0.29 0.57
0 -15 1 -0.28 0.53
1 -15 1 0.89 0.57
1 -15 1 0.1 0.53
1 -15 1 0.45 0.32
2 -15 1 7.1 0.86
2 -15 1 6.47 0.92
2 -15 1 5.67 0.67
3 -15 1 2.41 0.62
4 -15 1 3.92 0.74
5 -15 1 6.97 0.99
6 -15 1 2.8 0.65
7 -15 1 2.21 0.59
8 -15 1 0.31 0.43
-9 -14 1 0.3 0.4
-8 -14 1 0.97 0.46
-7 -14 1 15.64 1.48
-7 -14 1 15.47 1.35
-6 -14 1 1.21 0.48
-6 -14 1 0.66 0.5
-5 -14 1 11.65 1.1
-5 -14 1 11.87 1.2
-4 -14 1 9.76 0.98
-4 -14 1 9.45 1.28
-4 -14 1 10.95 1.08
-3 -14 1 1.79 0.48
-3 -14 1 1.88 0.45
-3 -14 1 1.76 0.65
-2 -14 1 0.65 0.37
-2 -14 1 1.68 0.42
-2 -14 1 1.41 0.62
-2 -14 1 0.62 0.55
-1 -14 1 2.51 0.61
-1 -14 1 2.74 0.43
-1 -14 1 2.95 0.68
0 -14 1 0.88 0.5
0 -14 1 0.77 0.33
0 -14 1 0.23 0.54
1 -14 1 3.46 0.46
1 -14 1 3.96 0.65
1 -14 1 3.9 0.69
2 -14 1 3.88 0.63
2 -14 1 3.68 0.7
3 -14 1 1.96 0.59
4 -14 1 4.51 0.76
5 -14 1 13.39 1.64
6 -14 1 3.64 0.73
8 -14 1 2.41 0.57
9 -14 1 0.49 0.42
-9 -13 1 0.36 0.42
-8 -13 1 18.94 1.57
-7 -13 1 18.6 1.59
-7 -13 1 19.96 1.77
-6 -13 1 1.06 0.49
-6 -13 1 0.25 0.49
-6 -13 1 0.05 0.64
-5 -13 1 2.04 0.72
-5 -13 1 1.29 0.47
-5 -13 1 2.65 0.53
-4 -13 1 0.48 0.62
-4 -13 1 -0.39 0.44
-4 -13 1 0.47 0.42
-3 -13 1 -0.38 0.35
-3 -13 1 0.75 0.58
-3 -13 1 0.1 0.39
-2 -13 1 2.73 0.44
-2 -13 1 1.97 0.65
-2 -13 1 2.39 0.63
-2 -13 1 3.14 0.42
-1 -13 1 2.72 0.41
-1 -13 1 2.06 0.39
-1 -13 1 2.39 0.59
-1 -13 1 2.39 0.6
0 -13 1 0.51 0.44
0 -13 1 0.53 0.3
0 -13 1 0.69 0.49
1 -13 1 1.76 0.52
1 -13 1 0.39 0.43
2 -13 1 1.85 0.46
2 -13 1 1.92 0.55
3 -13 1 0.74 0.43
3 -13 1 0.68 0.51
4 -13 1 0.35 0.48
5 -13 1 5.66 0.85
6 -13 1 -0.33 0.46
7 -13 1 14.96 1.74
9 -13 1 0.71 0.44
-10 -12 1 2.46 0.45
-10 -12 1 1.11 0.51
-9 -12 1 -0.16 0.52
-9 -12 1 0.14 0.43
-8 -12 1 6.96 0.75
-7 -12 1 10.11 0.97
-7 -12 1 8.44 0.98
-7 -12 1 7.8 1.21
-6 -12 1 -0.51 0.63
-6 -12 1 0.21 0.46
-6 -12 1 0.01 0.46
-5 -12 1 0.36 0.45
-5 -12 1 0.02 0.63
-5 -12 1 0.69 0.42
-4 -12 1 12.22 1.17
-4 -12 1 11.9 1.5
-3 -12 1 4.89 0.54
-3 -12 1 2.01 0.72
-3 -12 1 4.93 0.76
-2 -12 1 1.17 0.57
-2 -12 1 2.28 0.37
-2 -12 1 2.17 0.59
-1 -12 1 11.72 1.47
-1 -12 1 11.95 1.11
-1 -12 1 14.71 1.41
0 -12 1 0.68 0.43
1 -12 1 12 1.28
1 -12 1 8.98 1.13
2 -12 1 1.73 0.5
2 -12 1 0.99 0.37
3 -12 1 3.99 0.6
3 -12 1 2.26 0.46
4 -12 1 8.86 1.14
5 -12 1 0.81 0.47
6 -12 1 0.94 0.5
7 -12 1 6.57 0.89
8 -12 1 3.5 0.71
9 -12 1 0.9 0.45
10 -12 1 1.73 0.49
-10 -11 1 -0.41 0.49
-10 -11 1 0.44 0.4
-9 -11 1 15.46 1.3
-9 -11 1 14.1 1.5
-8 -11 1 10.99 1.02
-8 -11 1 9.13 1.06
-7 -11 1 0.57 0.45
-7 -11 1 1.28 0.47
-7 -11 1 1.46 0.73
-7 -11 1 0.31 0.54
-6 -11 1 0.47 0.42
-6 -11 1 0.71 0.66
-6 -11 1 0.93 0.44
-5 -11 1 0.97 0.64
-5 -11 1 0.98 0.43
-4 -11 1 -0.61 0.58
-4 -11 1 -0.12 0.38
-3 -11 1 2.88 0.43
-3 -11 1 2 0.65
-2 -11 1 4.1 0.7
-1 -11 1 2.62 0.56
0 -11 1 2.23 0.48
1 -11 1 1.29 0.38
2 -11 1 1.82 0.38
3 -11 1 2.72 0.45
3 -11 1 3.65 0.58
4 -11 1 -0.24 0.36
4 -11 1 0.16 0.43
5 -11 1 2.01 0.54
6 -11 1 0.86 0.42
6 -11 1 1.23 0.5
7 -11 1 0.5 0.48
7 -11 1 2.75 0.59
8 -11 1 6.23 0.88
10 -11 1 0.28 0.42
-11 -10 1 1.15 0.39
-11 -10 1 -0.14 0.53
-10 -10 1 0.09 0.59
-10 -10 1 1.31 0.42
-9 -10 1 0.93 0.46
-9 -10 1 1.05 0.61
-8 -10 1 21.99 1.65
-8 -10 1 18.78 1.92
-7 -10 1 2.13 0.47
-7 -10 1 2.23 0.75
-7 -10 1 0.99 0.45
-7 -10 1 0.97 0.57
-6 -10 1 1.35 0.7
-6 -10 1 2.85 0.58
-6 -10 1 2.79 0.48
-5 -10 1 1.34 0.65
-5 -10 1 2.28 0.44
-5 -10 1 1.32 0.52
-4 -10 1 2.01 0.5
-4 -10 1 1.93 0.64
-3 -10 1 8.57 1.03
-3 -10 1 7.98 1.05
-2 -10 1 5.12 0.74
-2 -10 1 5.27 0.76
-1 -10 1 1.14 0.48
0 -10 1 9.74 1.11
1 -10 1 1.4 0.37
2 -10 1 6.11 0.72
3 -10 1 7.93 0.86
4 -10 1 1.63 0.4
5 -10 1 4.81 0.58
5 -10 1 4.12 0.72
6 -10 1 3.82 0.64
6 -10 1 2.49 0.49
7 -10 1 0.84 0.44
7 -10 1 0.64 0.49
8 -10 1 15.37 1.7
9 -10 1 0.25 0.5
9 -10 1 0.8 0.6
10 -10 1 0.38 0.45
-11 -9 1 0.06 0.55
-10 -9 1 0.37 0.58
-10 -9 1 0.32 0.4
-9 -9 1 1.86 0.61
-9 -9 1 1.05 0.44
-8 -9 1 0.17 0.41
-8 -9 1 0.46 0.55
-7 -9 1 0.95 0.4
-7 -9 1 0.19 0.67
-7 -9 1 1.47 0.54
-6 -9 1 0.98 0.49
-6 -9 1 1.35 0.52
-6 -9 1 0.87 0.64
-6 -9 1 0.59 0.39
-5 -9 1 6.5 0.98
-5 -9 1 6.75 0.88
-4 -9 1 0.47 0.56
-4 -9 1 0.63 0.44
-3 -9 1 10.06 1.21
-3 -9 1 9.16 1.14
-2 -9 1 10.69 1.26
-1 -9 1 7.82 0.98
0 -9 1 1.9 0.43
1 -9 1 14.64 1.47
2 -9 1 9.09 1.06
2 -9 1 10.54 1.03
3 -9 1 14.1 1.39
4 -9 1 1.18 0.35
5 -9 1 2.19 0.38
6 -9 1 0.09 0.34
6 -9 1 0.95 0.48
6 -9 1 -0.06 0.31
7 -9 1 0.32 0.39
7 -9 1 0.95 0.35
7 -9 1 1.18 0.51
8 -9 1 0.53 0.53
8 -9 1 0.91 0.49
8 -9 1 0.82 0.47
9 -9 1 1.14 0.56
9 -9 1 0.76 0.58
9 -9 1 0.45 0.5
-12 -8 1 -0.19 0.54
-11 -8 1 2 0.63
-10 -8 1 2.81 0.64
-10 -8 1 0.75 0.42
-9 -8 1 5.68 0.62
-8 -8 1 0.3 0.37
-8 -8 1 0.67 0.5
-7 -8 1 1.24 0.38
-7 -8 1 2.19 0.58
-7 -8 1 1.32 0.7
-7 -8 1 1.95 0.49
-6 -8 1 6.94 1.06
-6 -8 1 8.82 1.09
-5 -8 1 0.28 0.46
-5 -8 1 -0.16 0.56
-4 -8 1 0.91 0.56
-3 -8 1 39.4 3.82
-2 -8 1 85.9 8.11
-1 -8 1 41.22 3.94
0 -8 1 37.51 3.57
1 -8 1 37.84 3.66
1 -8 1 40.2 3.7
2 -8 1 83.99 7.78
2 -8 1 84.4 7.9
3 -8 1 40.37 3.89
3 -8 1 42.87 3.93
4 -8 1 1.04 0.34
5 -8 1 0.37 0.28
6 -8 1 2.27 0.37
7 -8 1 2.3 0.43
7 -8 1 1.91 0.45
7 -8 1 2.75 0.58
8 -8 1 -0.05 0.41
8 -8 1 0.86 0.52
8 -8 1 0.3 0.47
9 -8 1 12.22 1.44
9 -8 1 12.2 1.51
9 -8 1 11.66 1.44
-12 -7 1 2.04 0.59
-11 -7 1 1.11 0.65
-10 -7 1 13.37 1.44
-9 -7 1 3.65 0.67
-9 -7 1 3.32 0.49
-8 -7 1 4.02 0.68
-8 -7 1 4.9 0.54
-7 -7 1 9.02 1.07
-7 -7 1 8 1.2
-7 -7 1 10.29 0.86
-7 -7 1 11.18 1.34
-6 -7 1 0.89 0.48
-6 -7 1 0.32 0.58
-5 -7 1 12.74 1.51
-4 -7 1 11.54 1.38
-3 -7 1 9.54 1.16
-2 -7 1 32.08 3.1
-1 -7 1 46.64 4.42
0 -7 1 0.16 0.27
1 -7 1 46.72 4.35
1 -7 1 46.78 4.4
2 -7 1 27.05 2.52
2 -7 1 26.4 2.52
3 -7 1 6.65 0.78
4 -7 1 14.93 1.48
5 -7 1 16.74 1.64
6 -7 1 0.78 0.29
7 -7 1 6.15 0.86
7 -7 1 7.78 0.87
8 -7 1 3.02 0.55
8 -7 1 3.11 0.61
8 -7 1 3.32 0.64
9 -7 1 7.18 0.92
9 -7 1 5 0.83
10 -7 1 13.93 1.65
-12 -6 1 1.22 0.61
-11 -6 1 2.2 0.67
-10 -6 1 7.6 0.95
-9 -6 1 3.31 0.67
-9 -6 1 3.54 0.5
8 6 -1 6.95 1.04
-8 -6 1 7.97 0.81
-8 -6 1 5.85 0.62
7 6 -1 21.58 2.26
-7 -6 1 21.64 2.27
-7 -6 1 21.21 1.64
6 6 -1 11.93 1.43
-6 -6 1 11.9 1.45
5 6 -1 12.71 1.49
-5 -6 1 13.26 1.52
4 6 -1 26.99 2.65
-4 -6 1 26.6 2.67
3 6 -1 30.96 3.04
-3 -6 1 31.96 3.05
-2 -6 1 37.4 3.58
-1 -6 1 73.99 5.93
-1 -6 1 74.99 7.01
0 -6 1 70.09 5.65
0 -6 1 72.44 6.66
0 -6 1 70.14 6.55
1 -6 1 61.66 4.97
1 -6 1 61.78 5.78
1 -6 1 63.84 5.86
2 -6 1 50.27 4.73
2 -6 1 51.88 4.07
3 -6 1 20.94 1.99
4 -6 1 19.23 1.96
4 -6 1 21.76 1.98
5 -6 1 15.74 1.56
6 -6 1 8.95 0.96
7 -6 1 14.99 1.55
8 -6 1 10.21 1.25
8 -6 1 13.05 1.34
9 -6 1 1.84 0.61
9 -6 1 1.81 0.56
10 -6 1 10.35 1.41
10 -6 1 12.13 1.45
-13 -5 1 3.12 0.61
-12 -5 1 6.05 0.86
-11 -5 1 5.77 0.88
10 5 -1 9.1 1.45
-10 -5 1 11.81 1.26
9 5 -1 11.63 1.48
-9 -5 1 11.38 1.22
8 5 -1 8.54 1.1
-8 -5 1 6.59 0.73
-8 -5 1 8.38 0.87
7 5 -1 6.3 0.91
6 5 -1 6.34 0.87
-6 -5 1 6.14 0.87
5 5 -1 33.11 3.21
-5 -5 1 32.38 3.22
4 5 -1 17.73 1.84
-4 -5 1 18.33 1.87
3 5 -1 22.24 2.12
-3 -5 1 20.69 2.14
2 5 -1 11.12 1.17
-2 -5 1 11.45 1.2
-1 -5 1 87.78 8.11
-1 -5 1 84.92 6.86
0 -5 1 -0.27 0.26
0 -5 1 0.21 0.3
1 -5 1 88.74 8.1
1 -5 1 87.07 6.97
2 -5 1 6.09 0.68
3 -5 1 34.32 3.2
4 -5 1 21.28 2.14
4 -5 1 23.82 2.16
5 -5 1 18.34 1.8
6 -5 1 5.52 0.71
7 -5 1 6.43 0.86
8 -5 1 8.18 1.06
8 -5 1 9.82 1.15
9 -5 1 22.57 2.21
9 -5 1 19.6 2.19
10 -5 1 10.36 1.32
10 -5 1 11.01 1.37
-13 -4 1 0.63 0.56
-12 -4 1 10.59 1.17
11 4 -1 -0.51 0.9
-11 -4 1 1.45 0.69
10 4 -1 4.6 1.09
-10 -4 1 6.87 0.84
9 4 -1 1.05 0.76
-9 -4 1 1.24 0.55
8 4 -1 9.62 1.3
-8 -4 1 11.04 1.06
7 4 -1 15.43 1.72
6 4 -1 14.46 1.66
-6 -4 1 15.74 1.66
5 4 -1 2.5 0.57
-5 -4 1 1.68 0.55
4 4 -1 0.94 0.4
-4 -4 1 0.86 0.4
3 4 -1 67.11 6.35
-3 -4 1 67.62 6.36
2 4 -1 64.66 6.24
-2 -4 1 66.71 5.29
-2 -4 1 67.64 6.25
-1 -4 1 163.84 12.96
3 -4 1 125.38 11.73
4 -4 1 1.28 0.32
4 -4 1 1.94 0.28
5 -4 1 1.06 0.3
5 -4 1 1.45 0.35
6 -4 1 5.63 0.75
7 -4 1 30.65 2.98
8 -4 1 7.22 0.82
8 -4 1 5.98 0.87
9 -4 1 0.69 0.52
9 -4 1 0.83 0.54
10 -4 1 8.52 1.17
-11 4 -1 0.25 0.57
11 -4 1 -0.92 0.64
-12 4 -1 1.36 0.58
-13 -3 1 0.31 0.58
-12 -3 1 3.23 0.75
11 3 -1 -2.02 0.84
-11 -3 1 1.24 0.66
10 3 -1 12.94 1.64
-10 -3 1 13.06 1.4
9 3 -1 2.5 0.8
-9 -3 1 3.38 0.62
8 3 -1 1.31 0.65
-8 -3 1 2.22 0.51
7 3 -1 3.89 0.73
6 3 -1 37.94 3.62
-6 -3 1 36.23 3.6
5 3 -1 48.66 4.7
-5 -3 1 49.67 4.7
4 3 -1 139.72 13.36
-4 -3 1 145.1 13.36
3 3 -1 102.56 9.81
-3 -3 1 106.41 9.82
2 3 -1 763.91 71.38
3 -3 1 158.61 14.84
4 -3 1 124.43 11.61
4 -3 1 123.39 11.4
5 -3 1 67.94 6.29
5 -3 1 68.01 6.4
6 -3 1 42.35 3.98
6 -3 1 41.01 3.9
7 -3 1 9.39 1.11
8 -3 1 1.81 0.52
9 -3 1 2.39 0.65
9 -3 1 1.91 0.57
10 -3 1 20.34 2.24
-11 3 -1 2.32 0.63
11 -3 1 0.64 0.73
-12 3 -1 5.09 0.76
-13 3 -1 -0.5 0.53
-13 -2 1 7.14 0.88
-12 -2 1 7.12 0.94
11 2 -1 9.58 1.49
-11 -2 1 12.15 1.21
9 2 -1 7.15 1.12
-9 -2 1 7.49 0.86
8 2 -1 5.36 0.87
7 2 -1 2.24 0.6
6 2 -1 5.14 0.73
5 2 -1 6 0.76
-5 -2 1 6.12 0.76
4 2 -1 96.52 9.25
-4 -2 1 100.32 9.25
3 2 -1 382.11 35.96
-3 -2 1 387.04 35.96
2 2 -1 21.92 2.11
0 2 -1 91.35 7.34
2 -2 1 16.04 1.52
3 -2 1 380.49 35.56
4 -2 1 145.43 13.46
4 -2 1 147.36 13.71
5 -2 1 7.45 0.89
5 -2 1 8.01 0.88
6 -2 1 13.18 1.39
6 -2 1 12.8 1.34
7 -2 1 3.63 0.56
7 -2 1 2.66 0.52
8 -2 1 5.77 0.81
9 -2 1 4.07 0.67
9 -2 1 4.05 0.78
10 -2 1 9.31 1.28
-11 2 -1 4.92 0.78
11 -2 1 6.41 1.04
-12 2 -1 2.74 0.69
-13 2 -1 3 0.63
-13 -1 1 0.89 0.56
-12 -1 1 1.26 0.66
11 1 -1 11.77 1.64
-11 -1 1 12.94 1.3
10 1 -1 0.63 0.78
-10 -1 1 1.41 0.58
9 1 -1 0.77 0.69
-9 -1 1 1.01 0.5
8 1 -1 0.63 0.54
7 1 -1 2.5 0.56
6 1 -1 6.7 0.84
5 1 -1 2.06 0.48
-5 -1 1 2.94 0.47
4 1 -1 25.94 2.5
-4 -1 1 25.79 2.5
3 1 -1 651.47 63.96
-3 -1 1 717.47 63.96
2 1 -1 75.43 7.09
2 -1 1 89.24 8.36
3 -1 1 707.88 66.14
4 -1 1 12.17 1.24
5 -1 1 1.03 0.36
6 -1 1 8.11 0.99
7 -1 1 4.44 0.7
7 -1 1 5.28 0.71
8 -1 1 -0.04 0.43
8 -1 1 0.89 0.5
9 -1 1 1.04 0.65
10 -1 1 -0.5 0.72
-11 1 -1 6.5 0.88
11 -1 1 7.3 1.16
-12 1 -1 5.74 0.86
-13 1 -1 1.24 0.6
-13 0 1 0.85 0.53
-12 0 1 1.42 0.65
11 0 -1 0.99 0.84
-11 0 1 1.47 0.64
10 0 -1 1.94 0.84
-10 0 1 2.19 0.59
9 0 -1 1.28 0.69
8 0 -1 0.37 0.49
7 0 -1 2.22 0.57
6 0 -1 25.65 2.54
5 0 -1 8.87 1.03
4 0 -1 36.88 3.52
-4 0 1 37.04 3.51
3 0 -1 44.12 4.17
2 0 -1 71.05 6.66
2 0 1 71.54 6.72
3 0 1 54.87 5.17
4 0 1 21.45 2.09
5 0 1 19.95 1.98
6 0 1 20 2.02
7 0 1 3.03 0.6
8 0 1 0.51 0.54
9 0 1 0.65 0.66
10 0 1 1.57 0.81
-11 0 -1 0.36 0.64
11 0 1 -0.49 0.81
-12 0 -1 1.14 0.69
-13 0 -1 2.82 0.68
-13 1 1 0.9 0.51
-12 1 1 -0.09 0.61
11 -1 -1 7.49 1.2
-11 1 1 6.35 0.89
10 -1 -1 2.69 0.86
-10 1 1 3.52 0.64
9 -1 -1 5.75 0.92
8 -1 -1 2.03 0.56
7 -1 -1 8.23 1.09
6 -1 -1 2.55 0.54
5 -1 -1 20.62 2.04
4 -1 -1 2.24 0.38
3 -1 -1 218.27 20.42
2 -1 -1 80.15 7.51
-2 -1 -1 77.55 7.24
2 1 1 76.71 7.24
-3 -1 -1 221.51 20.2
3 1 1 210.12 20.2
-4 -1 -1 1.38 0.37
4 1 1 0.91 0.35
-5 -1 -1 34.18 3.24
5 1 1 33.18 3.25
6 1 1 2.93 0.59
7 1 1 19.56 2.04
8 1 1 1.62 0.62
9 1 1 6.02 0.99
-10 -1 -1 0.47 0.59
10 1 1 0.23 0.78
-11 -1 -1 4.66 0.77
11 1 1 2.18 0.95
-12 -1 -1 1.5 0.69
-13 -1 -1 4.84 0.79
-13 2 1 3.3 0.58
-12 2 1 5.66 0.81
11 -2 -1 3.75 0.96
-11 2 1 4.44 0.74
10 -2 -1 4.33 0.91
-10 2 1 4.08 0.69
9 -2 -1 2.14 0.69
8 -2 -1 10.27 1.21
7 -2 -1 1.26 0.5
6 -2 -1 24.22 2.4
5 -2 -1 16.49 1.64
5 -2 -1 18 1.72
4 -2 -1 0.94 0.29
3 -2 -1 88.56 8.3
2 -2 -1 428.04 40
1 -2 -1 285.61 26.73
0 -2 -1 4.52 0.52
-1 -2 -1 264.87 24.8
-2 -2 -1 412.07 38.13
2 2 1 403.6 38.12
-3 -2 -1 73.24 6.85
3 2 1 72.27 6.85
-4 -2 -1 3.06 0.51
4 2 1 3.03 0.5
-5 -2 -1 15.48 1.64
5 2 1 15.83 1.64
6 2 1 52.26 5.01
7 2 1 0.37 0.53
8 2 1 8.09 1.08
9 2 1 1.53 0.75
-10 -2 -1 2.42 0.62
10 2 1 1.13 0.83
-11 -2 -1 4.15 0.79
11 2 1 3.93 1.03
-12 -2 -1 3.91 0.78
-13 -2 -1 2.48 0.68
-12 3 1 0.74 0.58
11 -3 -1 -0.88 0.71
-11 3 1 0.55 0.59
10 -3 -1 1.41 0.75
-10 3 1 1.74 0.57
9 -3 -1 3.36 0.75
8 -3 -1 4.95 0.79
8 -3 -1 5.58 0.72
7 -3 -1 5.34 0.73
6 -3 -1 2.41 0.49
5 -3 -1 32.47 3.12
4 -3 -1 12.8 1.29
3 -3 -1 8.17 0.87
2 -3 -1 2.98 0.4
1 -3 -1 46.91 4.41
0 -3 -1 1.03 0.26
-1 -3 -1 33.96 3.23
-2 -3 -1 8.43 0.94
2 3 1 8.05 0.92
-3 -3 -1 3.9 0.57
3 3 1 3.95 0.54
-4 -3 -1 14.69 1.54
4 3 1 14.73 1.53
-5 -3 -1 24.17 2.47
5 3 1 25.07 2.46
-6 -3 -1 7.45 0.96
6 3 1 7.61 0.97
7 3 1 9.59 1.28
8 3 1 10.46 1.31
-9 -3 -1 5.61 0.76
9 3 1 5.96 1.04
-10 -3 -1 3 0.67
10 3 1 1.9 0.91
-11 -3 -1 0.48 0.66
11 3 1 0.21 0.92
-12 -3 -1 0.99 0.67
-13 -3 -1 6.4 0.86
10 -4 -1 1.41 0.69
9 -4 -1 12.33 1.54
8 -4 -1 1.83 0.58
8 -4 -1 1.21 0.47
7 -4 -1 13.98 1.51
6 -4 -1 36.62 3.52
5 -4 -1 21.96 2.16
4 -4 -1 32.29 3.08
3 -4 -1 2.27 0.38
2 -4 -1 9.88 0.99
1 -4 -1 1.94 0.3
0 -4 -1 190.12 17.78
-1 -4 -1 2.3 0.4
-2 -4 -1 18.68 1.84
2 4 1 18.25 1.83
-3 -4 -1 6.58 0.87
3 4 1 6.27 0.83
-4 -4 -1 35.04 3.4
4 4 1 34.99 3.39
-5 -4 -1 14.28 1.6
5 4 1 14.4 1.59
-6 -4 -1 18.86 2.1
6 4 1 21 2.1
7 4 1 7.76 1.04
-8 -4 -1 1.33 0.5
8 4 1 0.61 0.69
-9 -4 -1 8.24 0.94
9 4 1 8.4 1.23
-10 -4 -1 7.78 0.94
10 4 1 6.33 1.22
-11 -4 -1 4.12 0.79
-12 -4 -1 8.21 1.04
-13 -4 -1 5.47 0.81
10 -5 -1 -0.61 0.63
9 -5 -1 0.11 0.6
9 -5 -1 0.92 0.56
8 -5 -1 14.46 1.55
8 -5 -1 11.13 1.46
8 -5 -1 15.21 1.61
7 -5 -1 11.78 1.31
6 -5 -1 6.46 0.85
5 -5 -1 11.66 1.24
4 -5 -1 48.15 4.56
3 -5 -1 7.68 0.89
2 -5 -1 3.91 0.5
1 -5 -1 64.68 6.07
0 -5 -1 1.34 0.32
-1 -5 -1 74.77 7.04
-2 -5 -1 8.36 0.99
-3 -5 -1 7.78 1.02
3 5 1 8.09 0.99
-4 -5 -1 56.93 5.33
4 5 1 54.56 5.31
-5 -5 -1 4.61 0.78
5 5 1 4.62 0.73
-6 -5 -1 16.21 1.71
6 5 1 14.01 1.7
7 5 1 6.98 0.99
-8 -5 -1 5.51 0.73
8 5 1 6.73 1
-9 -5 -1 2.82 0.63
9 5 1 2.73 0.88
-10 -5 -1 0.66 0.63
-11 -5 -1 5.79 0.88
-12 -5 -1 6.56 0.88
10 -6 -1 2.3 0.63
10 -6 -1 1.23 0.69
9 -6 -1 0.5 0.55
9 -6 -1 1.15 0.66
8 -6 -1 0.34 0.47
8 -6 -1 0.64 0.54
8 -6 -1 1.49 0.56
7 -6 -1 1.43 0.43
7 -6 -1 2.04 0.46
6 -6 -1 3.7 0.57
5 -6 -1 11.58 1.24
4 -6 -1 9.06 1.01
3 -6 -1 50.7 4.79
2 -6 -1 39.44 3.54
2 -6 -1 35.45 3.48
1 -6 -1 35.15 3.33
0 -6 -1 164 15.36
-1 -6 -1 41.03 3.91
-2 -6 -1 34.88 3.36
-3 -6 -1 56.85 5.42
-4 -6 -1 14.79 1.61
4 6 1 13.32 1.58
-5 -6 -1 4.46 0.77
5 6 1 4.32 0.75
-6 -6 -1 1.55 0.62
6 6 1 1.39 0.6
-7 -6 -1 2.98 0.72
7 6 1 2.67 0.73
-8 -6 -1 1.55 0.54
-9 -6 -1 4.73 0.56
-9 -6 -1 4.94 0.76
-10 -6 -1 2.49 0.68
-11 -6 -1 4.83 0.83
-12 -6 -1 1.73 0.65
10 -7 -1 1.64 0.65
10 -7 -1 0.88 0.58
9 -7 -1 3.43 0.72
9 -7 -1 2.52 0.77
8 -7 -1 0.89 0.54
8 -7 -1 3.1 0.66
8 -7 -1 2.7 0.64
7 -7 -1 1.1 0.41
7 -7 -1 -0.02 0.43
7 -7 -1 0.07 0.49
6 -7 -1 2.28 0.48
5 -7 -1 16.35 1.66
4 -7 -1 7.44 0.93
3 -7 -1 22.87 2.22
2 -7 -1 27.98 2.68
1 -7 -1 5.19 0.69
0 -7 -1 0.5 0.37
-1 -7 -1 2.93 0.55
-2 -7 -1 34.65 3.37
-3 -7 -1 14.92 1.66
-4 -7 -1 6.45 0.92
-5 -7 -1 15.53 1.76
-6 -7 -1 0.15 0.59
-6 -7 -1 0.68 0.46
-7 -7 -1 0.4 0.47
-7 -7 -1 -0.26 0.61
-7 -7 -1 -0.18 0.49
-8 -7 -1 0.67 0.53
-9 -7 -1 4.02 0.72
-9 -7 -1 3.9 0.54
-10 -7 -1 6 0.84
-11 -7 -1 2.11 0.66
-12 -7 -1 1.54 0.58
10 -8 -1 0.88 0.59
9 -8 -1 3.35 0.76
9 -8 -1 4.29 0.79
8 -8 -1 1.09 0.6
8 -8 -1 1.1 0.54
8 -8 -1 1.68 0.62
7 -8 -1 3.08 0.56
7 -8 -1 1.31 0.49
7 -8 -1 2.4 0.62
6 -8 -1 1.11 0.53
6 -8 -1 1.27 0.44
5 -8 -1 0.78 0.38
4 -8 -1 3.43 0.53
3 -8 -1 0.96 0.36
2 -8 -1 19.24 1.89
1 -8 -1 97.77 9.18
0 -8 -1 95.19 8.96
-1 -8 -1 101.99 9.61
-2 -8 -1 28.33 2.81
-3 -8 -1 1.07 0.58
-4 -8 -1 13.15 1.39
-4 -8 -1 9.87 1.3
-5 -8 -1 1.66 0.48
-5 -8 -1 1.29 0.65
-6 -8 -1 1.44 0.5
-6 -8 -1 1.69 0.67
-7 -8 -1 0.57 0.67
-7 -8 -1 0.68 0.48
-7 -8 -1 0.11 0.52
-8 -8 -1 1.44 0.53
-8 -8 -1 1.12 0.62
-9 -8 -1 13.51 1.17
-9 -8 -1 13.02 1.38
-10 -8 -1 4.74 0.57
-10 -8 -1 4.1 0.76
-11 -8 -1 2.37 0.63
-12 -8 -1 -0.81 0.51
11 -9 -1 1.67 0.52
10 -9 -1 0.07 0.53
9 -9 -1 5.72 0.96
9 -9 -1 6.16 0.92
8 -9 -1 0.06 0.55
8 -9 -1 0.04 0.56
8 -9 -1 0.34 0.57
7 -9 -1 4.06 0.63
7 -9 -1 1.78 0.58
7 -9 -1 3.5 0.7
6 -9 -1 0.71 0.43
6 -9 -1 -0.06 0.51
6 -9 -1 -0.31 0.37
5 -9 -1 3.45 0.69
5 -9 -1 3.7 0.57
4 -9 -1 1.27 0.43
3 -9 -1 6.81 0.84
2 -9 -1 28.09 2.71
1 -9 -1 0.69 0.37
0 -9 -1 0.11 0.44
-1 -9 -1 2.08 0.56
-2 -9 -1 29.24 3.19
-2 -9 -1 32.91 3.04
-3 -9 -1 7.05 0.92
-3 -9 -1 6.03 0.88
-4 -9 -1 5.48 0.73
-4 -9 -1 4.57 0.84
-5 -9 -1 0.98 0.48
-5 -9 -1 0.82 0.64
-6 -9 -1 0.1 0.41
-6 -9 -1 0.2 0.48
-6 -9 -1 0.07 0.65
-7 -9 -1 1.81 0.56
-7 -9 -1 1.41 0.74
-7 -9 -1 2.21 0.6
-8 -9 -1 -0.57 0.61
-8 -9 -1 -1.03 0.41
-8 -9 -1 0.19 0.56
-9 -9 -1 1.62 0.48
-9 -9 -1 1.28 0.6
-10 -9 -1 0.35 0.42
-10 -9 -1 0.66 0.57
-11 -9 -1 -0.57 0.53
11 -10 -1 0.51 0.41
10 -10 -1 0.19 0.49
9 -10 -1 2.51 0.67
8 -10 -1 2.86 0.73
7 -10 -1 -0.28 0.5
7 -10 -1 0.47 0.49
7 -10 -1 0.43 0.57
6 -10 -1 0.98 0.45
6 -10 -1 0.4 0.55
6 -10 -1 -0.09 0.45
5 -10 -1 0.99 0.55
5 -10 -1 1.46 0.44
4 -10 -1 0.9 0.45
4 -10 -1 2.31 0.52
3 -10 -1 2.47 0.49
2 -10 -1 4.31 0.59
1 -10 -1 16.46 1.68
0 -10 -1 -0.13 0.41
0 -10 -1 -0.11 0.26
-1 -10 -1 10.5 1.2
-1 -10 -1 11.24 1.27
-2 -10 -1 5.83 0.83
-2 -10 -1 7.24 0.9
-3 -10 -1 1.18 0.41
-3 -10 -1 0.57 0.59
-4 -10 -1 5.21 0.61
-4 -10 -1 4.46 0.7
-4 -10 -1 4 0.82
-5 -10 -1 0.64 0.64
-5 -10 -1 0.16 0.47
-5 -10 -1 0.62 0.42
-6 -10 -1 0.35 0.44
-6 -10 -1 -0.73 0.64
-6 -10 -1 -0.04 0.55
-7 -10 -1 0.46 0.7
-7 -10 -1 1.12 0.62
-8 -10 -1 3.75 0.72
-8 -10 -1 4.29 0.61
-9 -10 -1 0.83 0.46
-9 -10 -1 0.98 0.58
-10 -10 -1 3.55 0.66
-10 -10 -1 3.63 0.55
-11 -10 -1 1.14 0.54
-11 -10 -1 2.82 0.43
10 -11 -1 0.69 0.46
9 -11 -1 5.58 0.88
8 -11 -1 8.09 1.13
7 -11 -1 0.57 0.57
6 -11 -1 2.09 0.57
6 -11 -1 2.31 0.63
5 -11 -1 4.26 0.7
5 -11 -1 3.44 0.62
4 -11 -1 -0.23 0.45
4 -11 -1 0.12 0.47
3 -11 -1 2.76 0.58
3 -11 -1 3.6 0.62
2 -11 -1 7.99 1.04
2 -11 -1 9.74 1.15
1 -11 -1 24.44 2.42
0 -11 -1 -0.36 0.42
-1 -11 -1 24.93 2.68
-1 -11 -1 27.07 2.57
-2 -11 -1 8.36 0.87
-2 -11 -1 9.2 1.17
-2 -11 -1 8.84 1.06
-3 -11 -1 3.88 0.78
-3 -11 -1 3.64 0.52
-3 -11 -1 4.47 0.63
-4 -11 -1 0.11 0.63
-4 -11 -1 0.65 0.43
-4 -11 -1 0.23 0.47
-5 -11 -1 2.4 0.77
-5 -11 -1 4.15 0.6
-5 -11 -1 4.64 0.75
-6 -11 -1 1.16 0.72
-6 -11 -1 2.46 0.68
-6 -11 -1 1.61 0.52
-7 -11 -1 1.02 0.75
-7 -11 -1 1.2 0.5
-7 -11 -1 2.14 0.52
-8 -11 -1 0.91 0.49
-9 -11 -1 2.25 0.52
-10 -11 -1 0.5 0.48
-10 -11 -1 0.64 0.41
10 -12 -1 2.22 0.51
9 -12 -1 0.45 0.48
8 -12 -1 2.08 0.62
7 -12 -1 2.76 0.68
6 -12 -1 0.56 0.55
5 -12 -1 -0.06 0.5
4 -12 -1 1.4 0.54
4 -12 -1 1.88 0.54
3 -12 -1 -0.08 0.47
3 -12 -1 0.62 0.53
2 -12 -1 9.69 1.2
2 -12 -1 8.95 1.1
1 -12 -1 2.04 0.54
1 -12 -1 2.36 0.55
0 -12 -1 2.28 0.55
0 -12 -1 2.23 0.56
-1 -12 -1 1.27 0.54
-1 -12 -1 2.15 0.58
-1 -12 -1 2.59 0.4
-2 -12 -1 10.35 1.25
-2 -12 -1 7.9 1.26
-2 -12 -1 10.57 0.96
-3 -12 -1 0.64 0.59
-3 -12 -1 0.74 0.47
-3 -12 -1 0.08 0.4
-4 -12 -1 0.62 0.64
-4 -12 -1 0.84 0.53
-4 -12 -1 0.36 0.48
-5 -12 -1 -0.34 0.62
-5 -12 -1 0.57 0.49
-6 -12 -1 0.16 0.5
-6 -12 -1 0.27 0.7
-7 -12 -1 -0.29 0.67
-7 -12 -1 0.57 0.51
-7 -12 -1 1.03 0.5
-8 -12 -1 10.42 0.98
-9 -12 -1 0.41 0.45
-10 -12 -1 8.78 0.88
9 -13 -1 0.07 0.46
8 -13 -1 7.87 1.12
7 -13 -1 1.46 0.6
6 -13 -1 5.26 0.85
5 -13 -1 0.22 0.54
4 -13 -1 1.35 0.54
4 -13 -1 -0.63 0.55
3 -13 -1 1.99 0.65
3 -13 -1 1.91 0.59
2 -13 -1 0.31 0.51
2 -13 -1 0.63 0.49
1 -13 -1 14.62 1.59
1 -13 -1 12.11 1.5
0 -13 -1 2.92 0.62
0 -13 -1 3.4 0.65
-1 -13 -1 13.63 1.17
-1 -13 -1 11.33 1.51
-1 -13 -1 12.94 1.48
-2 -13 -1 -0.48 0.52
-2 -13 -1 1.12 0.57
-2 -13 -1 0.52 0.38
-3 -13 -1 3.87 0.58
-3 -13 -1 2.82 0.76
-4 -13 -1 2.4 0.55
-4 -13 -1 1.77 0.72
-5 -13 -1 -0.31 0.52
-5 -13 -1 0.55 0.67
-6 -13 -1 3.28 0.62
-6 -13 -1 3.46 0.58
-7 -13 -1 2.15 0.58
-7 -13 -1 2.75 0.55
-8 -13 -1 0.9 0.47
-9 -13 -1 1.99 0.47
8 -14 -1 1.05 0.54
7 -14 -1 2.83 0.67
6 -14 -1 2 0.64
5 -14 -1 0.98 0.6
4 -14 -1 0.38 0.56
3 -14 -1 0.87 0.63
3 -14 -1 1.97 0.59
2 -14 -1 2.71 0.7
2 -14 -1 3.28 0.66
1 -14 -1 1.63 0.54
1 -14 -1 0.41 0.54
0 -14 -1 23.08 2.26
0 -14 -1 20.72 2.4
0 -14 -1 21.72 1.87
-1 -14 -1 5.12 0.82
-1 -14 -1 5.06 0.59
-1 -14 -1 3.23 0.78
-2 -14 -1 2.2 0.73
-2 -14 -1 5 0.55
-2 -14 -1 3.63 0.78
-2 -14 -1 4.38 0.58
-3 -14 -1 3.61 0.59
-3 -14 -1 2.86 0.51
-3 -14 -1 1.93 0.73
-4 -14 -1 0.94 0.46
-4 -14 -1 0.8 0.53
-4 -14 -1 0.72 0.67
-5 -14 -1 -0.15 0.53
-5 -14 -1 -0.49 0.47
-6 -14 -1 2.18 0.58
-6 -14 -1 0.89 0.5
-7 -14 -1 2.96 0.61
-7 -14 -1 3.68 0.57
-8 -14 -1 6.57 0.71
7 -15 -1 0.18 0.5
6 -15 -1 1.51 0.57
5 -15 -1 -0.07 0.55
4 -15 -1 1.59 0.6
3 -15 -1 0.68 0.55
2 -15 -1 0.92 0.55
1 -15 -1 0.28 0.35
1 -15 -1 -0.13 0.54
1 -15 -1 0.04 0.55
0 -15 -1 -0.16 0.57
0 -15 -1 0.17 0.56
0 -15 -1 -0.15 0.39
-1 -15 -1 -0.25 0.59
-1 -15 -1 0.9 0.61
-1 -15 -1 0.22 0.41
-2 -15 -1 0.51 0.49
-2 -15 -1 -0.19 0.6
-2 -15 -1 1.31 0.43
-3 -15 -1 2.17 0.48
-3 -15 -1 2.04 0.56
-4 -15 -1 1.81 0.47
-4 -15 -1 1.69 0.56
-5 -15 -1 -0.84 0.52
-5 -15 -1 0.28 0.45
-6 -15 -1 0.49 0.46
-6 -15 -1 1.16 0.52
-7 -15 -1 0.31 0.44
-7 -15 -1 0.36 0.48
6 -16 -1 3.06 0.65
5 -16 -1 0.11 0.49
4 -16 -1 0.21 0.5
3 -16 -1 1.49 0.59
3 -16 -1 2.63 0.38
2 -16 -1 0.62 0.33
2 -16 -1 0.4 0.55
1 -16 -1 -0.48 0.36
1 -16 -1 0.33 0.55
0 -16 -1 0.36 0.4
0 -16 -1 -0.19 0.56
-1 -16 -1 0.55 0.57
-1 -16 -1 0.36 0.44
-2 -16 -1 1.37 0.51
-3 -16 -1 4.28 0.67
-3 -16 -1 5.16 0.61
-4 -16 -1 2.16 0.49
-4 -16 -1 1.32 0.55
-5 -16 -1 1.66 0.54
-5 -16 -1 1.91 0.47
-6 -16 -1 0.43 0.42
-6 -16 -1 -0.1 0.46
4 -17 -1 1.61 0.3
4 -17 -1 1.45 0.54
3 -17 -1 0.81 0.29
3 -17 -1 0.23 0.52
2 -17 -1 1.38 0.34
2 -17 -1 0.75 0.54
1 -17 -1 1.26 0.58
1 -17 -1 1.7 0.4
0 -17 -1 0.6 0.41
0 -17 -1 0.43 0.54
-1 -17 -1 -1.08 0.54
-1 -17 -1 0.58 0.43
-2 -17 -1 2.7 0.52
-3 -17 -1 0.36 0.41
-3 -17 -1 -0.1 0.45
-4 -17 -1 0.62 0.4
-4 -17 -1 0.06 0.45
2 -18 -1 -0.24 0.31
1 -18 -1 -0.05 0.34
1 -18 -1 -0.26 0.48
0 -18 -1 -0.66 0.35
0 -18 -1 -0.6 0.5
-1 -18 -1 -0.24 0.38
0 -19 2 -0.04 0.3
-4 -18 2 2.37 0.49
-4 -18 2 1.65 0.4
-3 -18 2 0.21 0.42
-3 -18 2 0.42 0.37
-2 -18 2 2.79 0.5
-1 -18 2 1.44 0.41
0 -18 2 -0.56 0.55
0 -18 2 0.53 0.34
1 -18 2 0.21 0.56
1 -18 2 0.51 0.31
2 -18 2 2.03 0.62
2 -18 2 1.31 0.31
3 -18 2 -0.17 0.53
3 -18 2 1.99 0.55
4 -18 2 2.02 0.59
-6 -17 2 1.95 0.49
-6 -17 2 2.08 0.44
-5 -17 2 3.74 0.54
-5 -17 2 4.9 0.64
-4 -17 2 0.06 0.45
-4 -17 2 0.16 0.41
-3 -17 2 8.63 0.8
-3 -17 2 7.88 0.92
-2 -17 2 1.85 0.47
-1 -17 2 2.47 0.45
-1 -17 2 1.37 0.68
0 -17 2 -0.13 0.6
0 -17 2 0.47 0.36
1 -17 2 3.03 0.75
1 -17 2 3.65 0.47
2 -17 2 0.68 0.58
2 -17 2 0.61 0.31
3 -17 2 7.9 1.1
3 -17 2 7.06 0.71
4 -17 2 0.61 0.53
5 -17 2 6.15 0.89
6 -17 2 0.88 0.5
-7 -16 2 2.17 0.45
-6 -16 2 -0.13 0.42
-6 -16 2 0.45 0.49
-5 -16 2 8.09 0.88
-5 -16 2 7.74 0.8
-4 -16 2 5.73 0.71
-4 -16 2 5.07 0.64
-3 -16 2 0.33 0.45
-3 -16 2 -0.41 0.43
-2 -16 2 0.59 0.43
-2 -16 2 0.53 0.43
-1 -16 2 0.31 0.39
-1 -16 2 0.99 0.63
0 -16 2 7.52 0.73
0 -16 2 4.3 0.86
0 -16 2 6.78 0.98
1 -16 2 1.33 0.57
1 -16 2 1.29 0.63
1 -16 2 1.56 0.35
2 -16 2 1.95 0.64
2 -16 2 1.93 0.34
3 -16 2 0.04 0.53
3 -16 2 -0.04 0.26
4 -16 2 10.25 1.32
5 -16 2 8.46 1.15
6 -16 2 0.35 0.48
7 -16 2 0.68 0.46
-8 -15 2 0.55 0.41
-7 -15 2 1.93 0.48
-7 -15 2 2.07 0.53
-6 -15 2 0.44 0.48
-6 -15 2 0.92 0.5
-5 -15 2 10.17 1.03
-5 -15 2 10.55 1.1
-4 -15 2 13.24 1.76
-4 -15 2 16.21 1.31
-4 -15 2 15.95 1.44
-3 -15 2 1.9 0.45
-3 -15 2 1.54 0.64
-3 -15 2 1.34 0.48
-2 -15 2 -0.06 0.54
-2 -15 2 1.37 0.42
-2 -15 2 1.15 0.66
-2 -15 2 1.02 0.42
-1 -15 2 7.08 1.04
-1 -15 2 8.52 1.21
-1 -15 2 9.54 0.88
0 -15 2 0.06 0.48
0 -15 2 0.59 0.58
0 -15 2 0.51 0.32
1 -15 2 8.44 1.17
1 -15 2 7.75 1.06
1 -15 2 8.32 0.8
2 -15 2 2.64 0.36
2 -15 2 1.97 0.62
3 -15 2 1.03 0.53
4 -15 2 16.61 1.91
5 -15 2 12.58 1.54
6 -15 2 2.03 0.58
7 -15 2 0.74 0.5
8 -15 2 0.05 0.41
-9 -14 2 0.25 0.4
-8 -14 2 1.9 0.47
-7 -14 2 6.35 0.75
-7 -14 2 5.13 0.67
-6 -14 2 0.34 0.49
-6 -14 2 -0.38 0.47
-5 -14 2 4.57 0.63
-5 -14 2 3.88 0.57
-5 -14 2 2.47 0.8
-4 -14 2 1.33 0.48
-4 -14 2 0.89 0.43
-4 -14 2 0.42 0.63
-3 -14 2 0.46 0.39
-3 -14 2 1.28 0.43
-3 -14 2 0.68 0.59
-2 -14 2 12.52 1.06
-2 -14 2 10.45 1.53
-2 -14 2 12.6 1.15
-2 -14 2 13.47 1.45
-1 -14 2 0.64 0.51
-1 -14 2 1.32 0.59
-1 -14 2 1.15 0.34
0 -14 2 -0.33 0.44
0 -14 2 0.7 0.3
0 -14 2 1.02 0.54
1 -14 2 1.71 0.31
1 -14 2 1.74 0.49
1 -14 2 1.39 0.56
2 -14 2 12.23 1.33
2 -14 2 9.19 1.19
3 -14 2 2.96 0.64
4 -14 2 2.93 0.63
5 -14 2 2.31 0.6
6 -14 2 1.9 0.58
7 -14 2 2.17 0.56
8 -14 2 1.66 0.5
9 -14 2 1.22 0.46
-9 -13 2 0 0.42
-8 -13 2 3.74 0.59
-7 -13 2 5.48 0.74
-7 -13 2 6.04 0.72
-6 -13 2 1.4 0.48
-6 -13 2 0.29 0.48
-6 -13 2 0.12 0.66
-5 -13 2 11.09 1.44
-5 -13 2 11.22 1.03
-5 -13 2 10.27 1.1
-4 -13 2 1.29 0.42
-4 -13 2 1.48 0.46
-4 -13 2 1.55 0.66
-3 -13 2 0.36 0.36
-3 -13 2 0.95 0.56
-3 -13 2 0.83 0.39
-2 -13 2 1.23 0.36
-2 -13 2 0.67 0.57
-2 -13 2 1.33 0.54
-2 -13 2 1.06 0.36
-1 -13 2 0.31 0.29
-1 -13 2 0.06 0.49
-1 -13 2 0.07 0.33
-1 -13 2 0.11 0.46
0 -13 2 0.42 0.26
0 -13 2 0 0.46
0 -13 2 0.16 0.42
1 -13 2 -0.04 0.44
1 -13 2 0.02 0.37
2 -13 2 2.19 0.45
2 -13 2 2.13 0.57
3 -13 2 1.91 0.55
4 -13 2 2.61 0.59
5 -13 2 10.38 1.33
6 -13 2 -0.08 0.46
7 -13 2 2.96 0.62
7 -13 2 1.85 0.55
8 -13 2 2.14 0.64
8 -13 2 1.82 0.54
9 -13 2 -0.11 0.41
10 -13 2 -0.02 0.35
-10 -12 2 0.79 0.5
-10 -12 2 0.72 0.4
-9 -12 2 3.07 0.51
-9 -12 2 1.86 0.6
-8 -12 2 6.15 0.69
-8 -12 2 4.73 0.75
-7 -12 2 1.49 0.51
-7 -12 2 0.95 0.73
-7 -12 2 2.72 0.54
-6 -12 2 0.63 0.44
-6 -12 2 0.84 0.46
-6 -12 2 -0.5 0.63
-5 -12 2 9.62 0.94
-5 -12 2 7.79 1.15
-5 -12 2 8.79 0.89
-4 -12 2 1.09 0.42
-4 -12 2 0.5 0.38
-4 -12 2 1.25 0.63
-3 -12 2 1.12 0.57
-3 -12 2 1.53 0.37
-3 -12 2 -0.03 0.58
-3 -12 2 1.03 0.36
-2 -12 2 5.75 0.9
-2 -12 2 7.29 0.91
-2 -12 2 7.42 0.63
-2 -12 2 6.33 0.7
-1 -12 2 1.22 0.33
-1 -12 2 1.71 0.49
-1 -12 2 1.52 0.32
-1 -12 2 1.06 0.49
0 -12 2 8.49 1.09
0 -12 2 8.44 1.01
1 -12 2 1.35 0.48
1 -12 2 0.91 0.37
2 -12 2 6.06 0.71
2 -12 2 3.55 0.56
3 -12 2 2.15 0.5
3 -12 2 1.52 0.36
4 -12 2 1.02 0.45
5 -12 2 14.96 1.7
6 -12 2 0.32 0.42
6 -12 2 0.01 0.44
7 -12 2 0.74 0.48
7 -12 2 0.42 0.46
8 -12 2 5.3 0.74
8 -12 2 2.53 0.62
9 -12 2 2.29 0.66
9 -12 2 1.62 0.51
10 -12 2 0.81 0.42
-11 -11 2 2.01 0.58
-11 -11 2 2.68 0.44
-10 -11 2 0.49 0.54
-10 -11 2 0.71 0.42
-9 -11 2 1.85 0.47
-9 -11 2 1.92 0.56
-8 -11 2 2.08 0.51
-8 -11 2 1.96 0.6
-7 -11 2 7.06 0.78
-7 -11 2 7.9 0.85
-7 -11 2 6.94 1.09
-7 -11 2 6.08 0.72
-6 -11 2 5.37 0.73
-6 -11 2 5.66 0.64
-6 -11 2 6.18 0.68
-6 -11 2 5.58 0.96
-5 -11 2 1.06 0.42
-5 -11 2 1.17 0.4
-5 -11 2 1.25 0.65
-4 -11 2 7.28 0.98
-4 -11 2 6.74 0.73
-3 -11 2 5.32 0.84
-3 -11 2 5.56 0.6
-2 -11 2 0.15 0.46
-1 -11 2 22.26 2.23
0 -11 2 0.16 0.37
1 -11 2 19.23 1.9
2 -11 2 0.08 0.27
3 -11 2 7.86 0.82
3 -11 2 6.99 0.98
4 -11 2 7.69 1.02
5 -11 2 0.7 0.37
5 -11 2 0.95 0.44
6 -11 2 6.93 0.98
6 -11 2 9.55 1.1
7 -11 2 10.58 1.24
7 -11 2 8.29 1.13
8 -11 2 2.39 0.59
8 -11 2 2.24 0.57
9 -11 2 6.53 0.95
9 -11 2 6.96 0.93
-11 -10 2 -0.18 0.37
-11 -10 2 0.12 0.53
-10 -10 2 1.65 0.62
-10 -10 2 0.89 0.41
-9 -10 2 0.37 0.43
-9 -10 2 1.08 0.61
-8 -10 2 11.99 1.32
-7 -10 2 0.02 0.67
-7 -10 2 0.37 0.4
-7 -10 2 0.13 0.54
-7 -10 2 0.22 0.42
-6 -10 2 6.14 0.63
-6 -10 2 5.58 0.76
-6 -10 2 5.22 0.94
-6 -10 2 6.12 0.67
-5 -10 2 10.39 1.39
-5 -10 2 11.06 1.04
-4 -10 2 0.26 0.55
-3 -10 2 1.56 0.55
-2 -10 2 4.72 0.7
-1 -10 2 0.01 0.39
0 -10 2 89.43 8.42
1 -10 2 0.56 0.31
2 -10 2 3.48 0.45
2 -10 2 3.54 0.54
3 -10 2 2.06 0.44
3 -10 2 2.21 0.33
5 -10 2 14.4 1.65
6 -10 2 4.15 0.6
6 -10 2 4.26 0.68
7 -10 2 -0.36 0.44
7 -10 2 0.13 0.39
8 -10 2 7.93 1.08
8 -10 2 8.76 1.15
9 -10 2 2.62 0.59
9 -10 2 2.31 0.66
-11 -9 2 3.21 0.68
-10 -9 2 1.37 0.63
-10 -9 2 0.99 0.41
-9 -9 2 0.15 0.41
-9 -9 2 0.87 0.6
-8 -9 2 1.66 0.44
-8 -9 2 2.38 0.6
-7 -9 2 4.76 0.54
-7 -9 2 4.63 0.9
-7 -9 2 3.92 0.67
-6 -9 2 7.82 0.83
-6 -9 2 9.56 0.99
-6 -9 2 7.49 0.73
-6 -9 2 7.68 1.11
-5 -9 2 1.11 0.46
-5 -9 2 1.23 0.6
-4 -9 2 1.84 0.6
-4 -9 2 2.67 0.53
-3 -9 2 6.55 0.88
-3 -9 2 6.07 0.85
-2 -9 2 0.82 0.46
-1 -9 2 8.38 0.99
0 -9 2 0.55 0.34
1 -9 2 8.2 0.87
1 -9 2 7.83 0.94
2 -9 2 1.49 0.45
2 -9 2 2.02 0.32
3 -9 2 5.8 0.74
5 -9 2 1.33 0.29
6 -9 2 8.5 1.09
6 -9 2 9.88 1
6 -9 2 10.23 1.22
7 -9 2 2.83 0.47
7 -9 2 2.31 0.56
7 -9 2 2.05 0.41
8 -9 2 0.95 0.5
8 -9 2 0.33 0.43
8 -9 2 0.67 0.44
9 -9 2 1.62 0.59
9 -9 2 1.95 0.57
10 -9 2 1.08 0.62
-12 -8 2 -0.15 0.57
-11 -8 2 7.37 0.92
-10 -8 2 2.62 0.49
-10 -8 2 5.24 0.69
-9 -8 2 8.41 0.91
-9 -8 2 11.4 1.19
-8 -8 2 2.46 0.57
-8 -8 2 2.22 0.44
-7 -8 2 1.34 0.38
-7 -8 2 1.65 0.69
-7 -8 2 1.76 0.5
-6 -8 2 7.54 0.71
-6 -8 2 8.86 1.09
-6 -8 2 7.33 1.06
-5 -8 2 1.52 0.49
-5 -8 2 1.89 0.6
-4 -8 2 34.18 3.35
-3 -8 2 29.88 2.93
-2 -8 2 27.92 2.74
-1 -8 2 82.06 7.73
0 -8 2 1.22 0.39
0 -8 2 1.27 0.37
0 -8 2 0.88 0.34
1 -8 2 70.22 6.64
1 -8 2 71.5 6.56
1 -8 2 70.45 5.64
2 -8 2 21.64 1.79
2 -8 2 21.65 2.09
3 -8 2 17.53 1.72
4 -8 2 38.74 3.63
5 -8 2 4.03 0.48
6 -8 2 13.06 1.3
7 -8 2 1.23 0.39
7 -8 2 1.06 0.47
7 -8 2 0.75 0.31
8 -8 2 5.34 0.75
8 -8 2 3.78 0.66
8 -8 2 3.84 0.64
9 -8 2 10.1 1.21
9 -8 2 8.5 1.08
10 -8 2 8.27 1.09
-12 -7 2 1.22 0.58
-11 -7 2 1.5 0.63
-10 -7 2 6.47 0.87
-9 -7 2 6.63 0.68
-9 -7 2 7.98 0.88
-8 -7 2 3.27 0.46
-8 -7 2 3.77 0.62
-7 -7 2 2.02 0.54
-7 -7 2 2.44 0.39
-7 -7 2 1.22 0.65
-6 -7 2 3.18 0.68
-6 -7 2 2.19 0.54
-5 -7 2 36.01 3.54
-4 -7 2 52.29 5.01
-3 -7 2 6.2 0.81
-2 -7 2 5.8 0.66
-2 -7 2 5.79 0.73
-1 -7 2 4.58 0.54
-1 -7 2 4.63 0.59
0 -7 2 0.9 0.38
0 -7 2 0.57 0.29
1 -7 2 2.43 0.36
1 -7 2 2.69 0.44
2 -7 2 6.35 0.63
2 -7 2 6.3 0.76
3 -7 2 3.92 0.56
3 -7 2 4.55 0.45
4 -7 2 58.11 5.39
5 -7 2 19.33 1.86
6 -7 2 5.4 0.64
7 -7 2 0.91 0.35
7 -7 2 0.53 0.33
8 -7 2 6.18 0.87
8 -7 2 8.83 0.94
9 -7 2 8.16 1.19
9 -7 2 10.9 1.17
10 -7 2 6.46 0.86
10 -7 2 4.23 0.78
-12 -6 2 3.01 0.65
-11 -6 2 0.88 0.63
-10 -6 2 10.86 1.26
-9 -6 2 5.23 0.75
8 6 -2 12.12 1.6
-8 -6 2 13.34 1.3
-8 -6 2 12.43 1.06
7 6 -2 15.96 1.82
-7 -6 2 16.75 1.84
-7 -6 2 16.77 1.3
6 6 -2 47.57 4.7
-6 -6 2 50 4.71
5 6 -2 11.64 1.37
-5 -6 2 12.17 1.41
4 6 -2 4.04 0.65
-4 -6 2 3.79 0.67
3 6 -2 187.96 17.63
-3 -6 2 188.29 17.64
-2 -6 2 116.78 9.27
-1 -6 2 7.07 0.71
0 -6 2 85.84 6.79
0 -6 2 85.11 7.89
1 -6 2 9.31 0.82
1 -6 2 8.92 0.97
2 -6 2 95.99 8.71
2 -6 2 92.93 7.49
3 -6 2 152.27 12.41
3 -6 2 161.66 14.44
4 -6 2 5.21 0.62
4 -6 2 5.81 0.67
5 -6 2 5.97 0.68
5 -6 2 4.98 0.62
6 -6 2 86.37 8.12
7 -6 2 15.55 1.59
8 -6 2 15.23 1.65
8 -6 2 16.47 1.69
9 -6 2 7.51 0.94
9 -6 2 6.38 0.89
10 -6 2 7.33 0.89
10 -6 2 4.49 0.81
-13 -5 2 3.67 0.65
-12 -5 2 1.11 0.63
-11 -5 2 3.47 0.73
10 5 -2 0.3 0.87
-10 -5 2 4.14 0.7
9 5 -2 12.07 1.45
-9 -5 2 10.3 1.19
8 5 -2 2.15 0.71
-8 -5 2 1.61 0.52
7 5 -2 4.39 0.76
-7 -5 2 4.65 0.77
6 5 -2 4.92 0.74
-6 -5 2 4.29 0.73
5 5 -2 24.37 2.41
-5 -5 2 23.52 2.41
4 5 -2 59.93 5.68
-4 -5 2 59.9 5.7
3 5 -2 93.8 8.8
-3 -5 2 94.78 8.81
-3 -5 2 91.97 7.44
-2 -5 2 137.69 10.91
-1 -5 2 26.84 2.25
-1 -5 2 28.6 2.62
0 -5 2 1.1 0.32
0 -5 2 0.87 0.29
1 -5 2 30.67 2.51
1 -5 2 31.78 2.93
2 -5 2 163.32 15.01
3 -5 2 71.65 6.62
4 -5 2 37.29 3.23
4 -5 2 32.16 3.25
5 -5 2 16.24 1.61
5 -5 2 17.01 1.63
6 -5 2 7.99 0.89
7 -5 2 7.36 0.91
8 -5 2 1.47 0.4
8 -5 2 -0.43 0.43
9 -5 2 9.6 1.15
9 -5 2 7.77 1.05
10 -5 2 5.36 0.85
10 -5 2 5.4 0.88
-12 5 -2 4.44 0.7
-13 -4 2 0.81 0.53
-12 -4 2 2.18 0.67
11 4 -2 -1.21 0.84
-11 -4 2 0.42 0.67
10 4 -2 4.66 1.08
-10 -4 2 5.78 0.81
9 4 -2 0.19 0.7
-9 -4 2 0.37 0.53
8 4 -2 7.54 1.08
-8 -4 2 7.55 0.84
7 4 -2 31.54 3.15
6 4 -2 1.91 0.6
-6 -4 2 2.17 0.56
5 4 -2 30.63 3.07
-5 -4 2 32.01 3.07
4 4 -2 33.27 3.26
-4 -4 2 34.51 3.27
3 4 -2 256.91 23.87
-3 -4 2 253.13 20.16
2 4 -2 294.8 27.55
-2 -4 2 294.03 23.27
-1 -4 2 294.17 23.2
-1 -4 2 293.03 26.95
-1 4 -2 235.18 18.89
3 -4 2 180.03 16.54
4 -4 2 27.42 2.65
4 -4 2 28.73 2.64
5 -4 2 54.73 5.12
5 -4 2 53.84 5.05
6 -4 2 3.76 0.53
6 -4 2 3.01 0.5
7 -4 2 21.8 2.17
8 -4 2 3.44 0.62
8 -4 2 4.28 0.58
9 -4 2 1.5 0.53
9 -4 2 1.31 0.58
10 -4 2 4.13 0.74
10 -4 2 3.58 0.78
11 -4 2 -0.29 0.66
-12 4 -2 1.64 0.59
-13 4 -2 0.14 0.51
-13 -3 2 0.59 0.55
-12 -3 2 1.9 0.65
11 3 -2 2.77 1.02
-11 -3 2 4.76 0.79
10 3 -2 7.02 1.18
-10 -3 2 7.29 0.89
9 3 -2 1.93 0.8
-9 -3 2 2.86 0.59
8 3 -2 5.74 0.96
-8 -3 2 6.57 0.82
7 3 -2 6.65 0.93
6 3 -2 71.62 6.76
-6 -3 2 70.75 6.76
5 3 -2 51.11 4.95
-5 -3 2 52.84 4.95
4 3 -2 43.34 4.21
-4 -3 2 45.11 4.22
3 3 -2 622.15 57.34
-3 -3 2 604.69 48.43
2 3 -2 1000 93.43
0 3 -2 1.47 0.24
3 -3 2 530.6 50.92
3 -3 2 559.46 49.99
4 -3 2 20.21 1.93
5 -3 2 26.23 2.51
5 -3 2 26.73 2.55
6 -3 2 33.93 3.24
6 -3 2 34.64 3.3
7 -3 2 2.96 0.51
7 -3 2 3.12 0.53
8 -3 2 2.61 0.55
9 -3 2 2.2 0.57
9 -3 2 2.17 0.64
10 -3 2 9.49 1.32
10 -3 2 11.07 1.33
11 -3 2 1.99 0.79
-12 3 -2 2.48 0.66
-13 3 -2 0.25 0.55
-13 -2 2 3.63 0.67
-12 -2 2 1.44 0.65
11 2 -2 -0.03 0.82
-11 -2 2 1.17 0.64
10 2 -2 0.75 0.82
-10 -2 2 1.7 0.61
9 2 -2 0.03 0.7
-9 -2 2 1.05 0.53
8 2 -2 12.19 1.5
7 2 -2 15.29 1.68
6 2 -2 11.98 1.38
5 2 -2 4.55 0.67
-5 -2 2 5.04 0.65
4 2 -2 107.76 10.31
-4 -2 2 111.93 10.32
3 2 -2 101.07 9.49
2 2 -2 609.03 56.91
1 2 -2 114.44 9.21
2 -2 2 488.12 45.6
3 -2 2 59.41 5.58
4 -2 2 59.12 5.42
4 -2 2 56 5.34
5 -2 2 8.68 0.97
5 -2 2 8.62 0.97
6 -2 2 8.04 0.95
6 -2 2 7.38 0.94
7 -2 2 21.79 2.15
7 -2 2 21.03 2.11
8 -2 2 22.57 2.24
8 -2 2 22.78 2.32
9 -2 2 0.8 0.6
9 -2 2 0.29 0.5
10 -2 2 1.16 0.7
11 -2 2 0.44 0.77
-12 2 -2 1.7 0.66
-13 2 -2 1.76 0.61
-13 -1 2 1.09 0.53
-12 -1 2 0.02 0.65
11 1 -2 2.62 0.92
-11 -1 2 2.91 0.71
10 1 -2 -0.06 0.78
-10 -1 2 0.17 0.56
9 1 -2 -0.25 0.66
-9 -1 2 1.16 0.5
8 1 -2 1.81 0.6
7 1 -2 12.64 1.47
6 1 -2 3.52 0.63
5 1 -2 1.05 0.45
-5 -1 2 1.75 0.4
4 1 -2 16.36 1.63
-4 -1 2 15.98 1.62
3 1 -2 235.56 22.04
2 1 -2 4.13 0.54
1 1 -2 31.59 2.56
2 -1 2 6.74 0.7
3 -1 2 161.62 15.12
4 -1 2 7.61 0.85
5 -1 2 3.19 0.49
6 -1 2 1.24 0.43
7 -1 2 9.25 1.15
8 -1 2 1.99 0.58
8 -1 2 2.23 0.6
9 -1 2 0.49 0.5
9 -1 2 1.69 0.67
10 -1 2 -0.22 0.73
11 -1 2 5.87 1.08
-12 1 -2 0.38 0.66
-13 1 -2 0.4 0.6
-13 0 2 0.93 0.51
-12 0 2 0.73 0.63
11 0 -2 1.55 0.9
-11 0 2 1.23 0.64
10 0 -2 0.18 0.75
-10 0 2 0.59 0.56
9 0 -2 1.31 0.67
-9 0 2 0.34 0.49
8 0 -2 1.12 0.54
7 0 -2 1.15 0.52
6 0 -2 24.81 2.48
5 0 -2 38.29 3.67
4 0 -2 32.06 3.21
-4 0 2 35.14 3.21
3 0 -2 105 9.84
2 0 -2 11.17 1.13
1 0 -2 136.24 11.44
1 0 -2 147.6 13.32
1 0 2 157.61 14.78
2 0 2 8.35 0.87
3 0 2 108.39 10.16
-4 0 -2 69.67 6.56
4 0 2 69.74 6.56
5 0 2 29.82 2.89
6 0 2 34.68 3.37
7 0 2 0.5 0.49
8 0 2 5.71 0.88
9 0 2 0.91 0.66
9 0 2 0.59 0.6
10 0 2 2.96 0.88
-11 0 -2 0.94 0.65
11 0 2 -1.64 0.78
-12 0 -2 1.3 0.68
-13 0 -2 1.97 0.65
-13 1 2 2.87 0.56
-12 1 2 -0.45 0.59
11 -1 -2 -0.44 0.77
-11 1 2 1.45 0.62
10 -1 -2 0.7 0.76
-10 1 2 1.43 0.56
9 -1 -2 2.22 0.7
-9 1 2 1.21 0.52
8 -1 -2 1.16 0.56
7 -1 -2 28.5 2.83
6 -1 -2 11.37 1.31
5 -1 -2 29.34 2.85
4 -1 -2 67.49 6.36
3 -1 -2 29.99 2.87
2 -1 -2 378.5 35.38
1 -1 -2 57.34 5.39
0 -1 -2 0.54 0.26
-1 -1 -2 62.31 5.87
1 1 2 62.89 5.87
-2 -1 -2 389.68 36.56
2 1 2 392.62 36.56
-3 -1 -2 68.31 6.34
3 1 2 66.16 6.33
-4 -1 -2 95.11 9.02
4 1 2 96.88 9.02
-5 -1 -2 13.33 1.46
5 1 2 14.49 1.49
6 1 2 28.72 2.84
7 1 2 21.52 2.22
8 1 2 2.07 0.64
9 1 2 2.68 0.8
10 1 2 5.35 1.06
-11 -1 -2 4.72 0.78
11 1 2 2.86 0.99
-12 -1 -2 0.29 0.69
-13 -1 -2 2.15 0.68
-12 2 2 6.82 0.86
11 -2 -2 0.55 0.8
-11 2 2 0.93 0.61
10 -2 -2 7.96 1.13
-10 2 2 6.53 0.84
9 -2 -2 0.93 0.66
-9 2 2 0.72 0.49
8 -2 -2 5.23 0.83
7 -2 -2 1.7 0.53
6 -2 -2 67.39 6.39
5 -2 -2 56.66 5.37
4 -2 -2 7.69 0.89
3 -2 -2 41.69 3.95
2 -2 -2 163.1 15.27
1 -2 -2 11.87 1.18
0 -2 -2 18.74 1.8
-1 -2 -2 24.45 2.34
-2 -2 -2 170.38 15.7
2 2 2 165.06 15.7
-3 -2 -2 48.34 4.54
3 2 2 47.43 4.54
-4 -2 -2 5.57 0.69
4 2 2 5.23 0.68
-5 -2 -2 62.34 5.86
5 2 2 61.09 5.86
6 2 2 48.78 4.69
7 2 2 3.65 0.71
8 2 2 0.64 0.62
9 2 2 1.72 0.78
-10 -2 -2 14.72 1.5
10 2 2 14.33 1.77
-11 -2 -2 0.27 0.65
11 2 2 -1.26 0.8
-12 -2 -2 3.43 0.76
-13 -2 -2 5.63 0.85
11 -3 -2 2.75 0.87
10 -3 -2 4.76 0.96
9 -3 -2 17.68 2
8 -3 -2 4.22 0.77
7 -3 -2 4.21 0.68
6 -3 -2 12.04 1.34
5 -3 -2 3.98 0.59
4 -3 -2 24.94 2.1
-4 3 2 18.38 2.67
3 -3 -2 6.73 0.79
2 -3 -2 74.49 7
1 -3 -2 6.68 0.73
0 -3 -2 3.4 0.45
-1 -3 -2 8.89 0.97
-2 -3 -2 86.61 8.06
2 3 2 84.85 8.06
-3 -3 -2 4.86 0.62
3 3 2 4.47 0.61
-4 -3 -2 48.99 4.79
4 3 2 51.51 4.79
-5 -3 -2 3.97 0.69
5 3 2 4.57 0.7
-6 -3 -2 5.14 0.81
6 3 2 6.31 0.84
7 3 2 8.03 1.06
8 3 2 9.92 1.27
9 3 2 14.11 1.8
-10 -3 -2 1.63 0.62
10 3 2 -0.07 0.86
-11 -3 -2 0.52 0.67
11 3 2 -0.21 0.87
-12 -3 -2 3.5 0.77
-13 -3 -2 2.42 0.67
10 -4 -2 10.44 1.38
9 -4 -2 14.39 1.67
8 -4 -2 3.48 0.69
7 -4 -2 2.66 0.55
6 -4 -2 1.14 0.44
4 -4 -2 38.5 3.67
3 -4 -2 47.3 4.48
2 -4 -2 293.14 27.41
1 -4 -2 28.72 2.73
0 -4 -2 270.59 25.3
-1 -4 -2 24.59 2.38
-2 -4 -2 279.35 26.14
-3 -4 -2 32.51 3.2
3 4 2 33.71 3.19
-4 -4 -2 29.38 2.88
4 4 2 28.93 2.86
-5 -4 -2 55.15 5.24
5 4 2 54.23 5.24
-6 -4 -2 1.07 0.56
6 4 2 0.98 0.59
7 4 2 11.31 1.36
8 4 2 12.87 1.55
-9 -4 -2 2.84 0.6
9 4 2 2.77 0.87
-10 -4 -2 10.98 1.32
10 4 2 12.21 1.58
-11 -4 -2 7.54 1
-12 -4 -2 3.9 0.79
-13 -4 -2 3.56 0.7
10 -5 -2 0.26 0.58
10 -5 -2 -0.36 0.68
9 -5 -2 1.07 0.61
9 -5 -2 1.82 0.73
8 -5 -2 2.4 0.64
8 -5 -2 1.91 0.55
7 -5 -2 0.99 0.45
6 -5 -2 12.8 1.42
5 -5 -2 1.07 0.45
4 -5 -2 0.21 0.38
3 -5 -2 11.92 1.29
2 -5 -2 3.06 0.44
1 -5 -2 2.03 0.36
0 -5 -2 -0.21 0.32
-1 -5 -2 1.2 0.4
-2 -5 -2 3.15 0.55
-3 -5 -2 4.04 0.68
3 5 2 4.87 0.66
-4 -5 -2 0.73 0.56
4 5 2 0.03 0.54
-5 -5 -2 1.96 0.62
5 5 2 1.67 0.62
-6 -5 -2 4.54 0.76
6 5 2 4.19 0.75
7 5 2 0.38 0.62
-8 -5 -2 1.15 0.51
8 5 2 1.75 0.75
-9 -5 -2 0.07 0.57
9 5 2 -0.04 0.78
-10 -5 -2 -0.49 0.63
-11 -5 -2 12.06 1.36
-12 -5 -2 11.03 1.27
10 -6 -2 1.6 0.73
10 -6 -2 1.53 0.64
9 -6 -2 2.68 0.79
9 -6 -2 2.47 0.68
8 -6 -2 1.77 0.63
8 -6 -2 1.44 0.61
8 -6 -2 1.58 0.55
7 -6 -2 3.15 0.51
7 -6 -2 1.13 0.51
6 -6 -2 1.86 0.49
5 -6 -2 9.12 1.09
4 -6 -2 46.99 4.47
3 -6 -2 2.7 0.54
2 -6 -2 35.44 3.37
1 -6 -2 2.54 0.43
0 -6 -2 123.13 11.55
-1 -6 -2 2.25 0.49
-2 -6 -2 53.82 5.13
-3 -6 -2 2.54 0.63
-4 -6 -2 43.01 4.2
4 6 2 43.42 4.19
-5 -6 -2 21.09 2.2
5 6 2 20.49 2.2
-6 -6 -2 5.71 0.83
-6 -6 -2 5.28 0.88
6 6 2 5.47 0.9
-7 -6 -2 5.68 0.71
7 6 2 5.77 0.97
-8 -6 -2 0.3 0.52
-9 -6 -2 7.62 0.72
-9 -6 -2 6.92 0.91
-10 -6 -2 1.5 0.64
-11 -6 -2 4.28 0.79
-12 -6 -2 1.82 0.65
11 -7 -2 1.74 0.6
10 -7 -2 3.12 0.72
9 -7 -2 6.66 1.01
9 -7 -2 6.26 1.02
8 -7 -2 4.67 0.85
8 -7 -2 5.11 0.82
7 -7 -2 0.91 0.5
7 -7 -2 3.11 0.51
7 -7 -2 0.79 0.56
6 -7 -2 0.36 0.45
5 -7 -2 7.17 0.86
4 -7 -2 1.72 0.49
3 -7 -2 45.77 4.37
2 -7 -2 5.59 0.69
1 -7 -2 39.63 3.78
0 -7 -2 6.33 0.78
-1 -7 -2 39.96 3.84
-2 -7 -2 1.74 0.59
-3 -7 -2 57.93 5.54
-4 -7 -2 -0.31 0.59
-5 -7 -2 1.72 0.63
-5 -7 -2 1.13 0.47
-6 -7 -2 1.49 0.51
-6 -7 -2 1.33 0.65
-7 -7 -2 6.38 0.91
-7 -7 -2 5.9 0.98
-7 -7 -2 6.09 0.75
-8 -7 -2 5.76 0.77
-9 -7 -2 0.93 0.43
-9 -7 -2 1.29 0.58
-10 -7 -2 0.78 0.61
-10 -7 -2 0.78 0.42
-11 -7 -2 0.77 0.61
-12 -7 -2 -0.02 0.56
11 -8 -2 1.63 0.57
10 -8 -2 6.41 0.97
9 -8 -2 14.49 1.69
9 -8 -2 11.89 1.65
8 -8 -2 0.52 0.57
8 -8 -2 0.02 0.57
7 -8 -2 1.38 0.63
7 -8 -2 4.36 0.6
7 -8 -2 2.07 0.6
6 -8 -2 2.85 0.66
6 -8 -2 3.49 0.6
5 -8 -2 1.69 0.47
4 -8 -2 24.98 2.47
3 -8 -2 0.06 0.42
2 -8 -2 4.97 0.65
1 -8 -2 116.83 10.97
0 -8 -2 4.44 0.66
-1 -8 -2 111.33 10.48
-2 -8 -2 4.02 0.72
-3 -8 -2 0.6 0.59
-3 -8 -2 0.32 0.38
-4 -8 -2 14.23 1.65
-4 -8 -2 16.01 1.71
-5 -8 -2 0.77 0.49
-5 -8 -2 0.56 0.63
-6 -8 -2 0.94 0.67
-6 -8 -2 0.42 0.5
-7 -8 -2 7.83 1.17
-7 -8 -2 7.29 1.19
-7 -8 -2 10.53 0.97
-8 -8 -2 4.5 0.7
-8 -8 -2 3.8 0.79
-9 -8 -2 0.85 0.66
-9 -8 -2 2.19 0.57
-10 -8 -2 0.85 0.57
-10 -8 -2 0.23 0.43
-11 -8 -2 -0.27 0.53
11 -9 -2 0.66 0.5
10 -9 -2 1.37 0.59
9 -9 -2 0.69 0.61
8 -9 -2 -0.06 0.6
8 -9 -2 0.55 0.6
7 -9 -2 2.95 0.64
7 -9 -2 3.14 0.73
7 -9 -2 3.6 0.68
6 -9 -2 0.6 0.56
6 -9 -2 1.27 0.51
6 -9 -2 -0.22 0.45
5 -9 -2 -0.1 0.43
5 -9 -2 0.4 0.5
4 -9 -2 2.3 0.54
3 -9 -2 2.9 0.55
2 -9 -2 2.13 0.45
1 -9 -2 5 0.68
0 -9 -2 0.69 0.46
-1 -9 -2 6.54 0.83
-1 -9 -2 5.67 0.78
-2 -9 -2 6.42 0.86
-2 -9 -2 7.19 0.94
-3 -9 -2 8.48 0.99
-3 -9 -2 5.84 0.91
-4 -9 -2 1.24 0.47
-4 -9 -2 0.31 0.61
-5 -9 -2 -0.08 0.41
-5 -9 -2 -0.35 0.45
-5 -9 -2 -0.13 0.61
-6 -9 -2 0.57 0.54
-6 -9 -2 1.47 0.69
-6 -9 -2 1.09 0.45
-7 -9 -2 7.1 0.96
-7 -9 -2 5.53 1.04
-8 -9 -2 2.91 0.74
-8 -9 -2 0.9 0.6
-9 -9 -2 0.45 0.58
-9 -9 -2 0.68 0.46
-10 -9 -2 2.82 0.48
-10 -9 -2 2 0.6
-11 -9 -2 -0.05 0.39
-11 -9 -2 0.11 0.51
11 -10 -2 4.04 0.66
10 -10 -2 4.2 0.78
9 -10 -2 2.05 0.68
8 -10 -2 11.9 1.51
8 -10 -2 10.21 1.36
7 -10 -2 1.67 0.59
7 -10 -2 1.2 0.64
6 -10 -2 0.93 0.52
6 -10 -2 0.27 0.57
5 -10 -2 1.16 0.56
5 -10 -2 0.94 0.5
4 -10 -2 6.42 0.9
4 -10 -2 8.36 1.09
3 -10 -2 1.23 0.51
3 -10 -2 0.99 0.49
2 -10 -2 3.23 0.56
1 -10 -2 21.31 2.13
0 -10 -2 40.92 4.32
0 -10 -2 43.72 4.06
-1 -10 -2 30.14 2.85
-1 -10 -2 27.87 2.99
-2 -10 -2 0.94 0.57
-2 -10 -2 1.81 0.42
-3 -10 -2 0.29 0.39
-3 -10 -2 0.33 0.36
-3 -10 -2 0.12 0.57
-4 -10 -2 3.11 0.57
-4 -10 -2 2.64 0.5
-4 -10 -2 2.4 0.71
-5 -10 -2 0.87 0.64
-5 -10 -2 1.61 0.55
-5 -10 -2 0.35 0.46
-6 -10 -2 -0.06 0.67
-6 -10 -2 -0.06 0.55
-6 -10 -2 -0.57 0.45
-7 -10 -2 -0.4 0.68
-7 -10 -2 0.4 0.62
-8 -10 -2 4.32 0.64
-8 -10 -2 4.97 0.92
-9 -10 -2 14.33 1.15
-9 -10 -2 10.31 1.32
-10 -10 -2 0.85 0.53
-10 -10 -2 1.36 0.43
-11 -10 -2 0.95 0.37
10 -11 -2 0.35 0.46
9 -11 -2 0.36 0.55
8 -11 -2 2.77 0.71
7 -11 -2 0.88 0.62
6 -11 -2 -0.15 0.56
6 -11 -2 0.92 0.52
5 -11 -2 2.96 0.64
5 -11 -2 3.97 0.73
4 -11 -2 -0.34 0.49
4 -11 -2 0.63 0.51
3 -11 -2 0.54 0.55
3 -11 -2 0.77 0.49
2 -11 -2 1.83 0.49
2 -11 -2 1.38 0.5
1 -11 -2 35.88 3.82
1 -11 -2 37 3.53
0 -11 -2 0.1 0.44
0 -11 -2 0.57 0.5
-1 -11 -2 35.72 3.48
-1 -11 -2 35.35 3.67
-2 -11 -2 0.95 0.59
-2 -11 -2 1.43 0.42
-2 -11 -2 0.93 0.38
-3 -11 -2 1.78 0.45
-3 -11 -2 1.9 0.66
-3 -11 -2 2.07 0.51
-4 -11 -2 0 0.46
-4 -11 -2 -0.19 0.49
-4 -11 -2 0.06 0.62
-5 -11 -2 0.42 0.64
-5 -11 -2 0.82 0.48
-5 -11 -2 1.45 0.59
-6 -11 -2 1.69 0.66
-6 -11 -2 1.5 0.53
-6 -11 -2 0.8 0.71
-7 -11 -2 0.23 0.7
-7 -11 -2 0.15 0.51
-7 -11 -2 0.25 0.67
-8 -11 -2 -0.05 0.5
-9 -11 -2 1.16 0.5
-10 -11 -2 -0.08 0.4
9 -12 -2 0 0.48
8 -12 -2 3.37 0.73
7 -12 -2 1.17 0.61
6 -12 -2 0.31 0.56
5 -12 -2 2.5 0.6
5 -12 -2 2.31 0.65
4 -12 -2 0.54 0.57
4 -12 -2 0.79 0.54
3 -12 -2 1.61 0.55
3 -12 -2 2.04 0.67
2 -12 -2 5.56 0.79
2 -12 -2 5.82 0.83
1 -12 -2 0.19 0.5
1 -12 -2 -0.51 0.47
0 -12 -2 4.93 0.76
0 -12 -2 4.66 0.75
-1 -12 -2 -0.11 0.36
-1 -12 -2 -0.15 0.46
-1 -12 -2 0.57 0.55
-2 -12 -2 6.32 0.7
-2 -12 -2 7.13 0.89
-2 -12 -2 5.04 0.91
-3 -12 -2 0.33 0.43
-3 -12 -2 0.81 0.5
-3 -12 -2 0.57 0.61
-4 -12 -2 0.22 0.49
-4 -12 -2 0.2 0.64
-4 -12 -2 0.92 0.57
-5 -12 -2 2.68 0.75
-5 -12 -2 3.25 0.73
-5 -12 -2 1.86 0.58
-6 -12 -2 -0.22 0.68
-6 -12 -2 0.02 0.53
-7 -12 -2 1.33 0.54
-7 -12 -2 1.23 0.54
-8 -12 -2 4.02 0.62
-9 -12 -2 2.81 0.52
9 -13 -2 2.18 0.57
8 -13 -2 0.95 0.55
7 -13 -2 4.39 0.8
6 -13 -2 0.69 0.57
5 -13 -2 0.25 0.55
4 -13 -2 10.18 1.4
4 -13 -2 12.66 1.46
3 -13 -2 0 0.61
3 -13 -2 0.29 0.54
2 -13 -2 5.63 0.88
2 -13 -2 5.33 0.83
1 -13 -2 1.6 0.57
1 -13 -2 2.3 0.58
0 -13 -2 1.32 0.55
0 -13 -2 2.13 0.62
-1 -13 -2 5.45 0.6
-1 -13 -2 4.88 0.81
-1 -13 -2 3.75 0.77
-2 -13 -2 2.77 0.73
-2 -13 -2 2.73 0.49
-3 -13 -2 1.32 0.51
-3 -13 -2 0.63 0.65
-4 -13 -2 17.59 1.55
-4 -13 -2 14.7 1.89
-5 -13 -2 1.56 0.58
-5 -13 -2 0.83 0.72
-6 -13 -2 0.89 0.54
-6 -13 -2 -0.37 0.48
-7 -13 -2 0.73 0.5
-7 -13 -2 1.22 0.53
-8 -13 -2 0.4 0.46
-9 -13 -2 0.22 0.43
8 -14 -2 0.37 0.51
7 -14 -2 0.16 0.56
6 -14 -2 1.64 0.62
5 -14 -2 0.42 0.57
4 -14 -2 -0.14 0.57
3 -14 -2 4.37 0.78
3 -14 -2 2.99 0.71
2 -14 -2 2.06 0.61
2 -14 -2 2.64 0.72
1 -14 -2 0.1 0.5
1 -14 -2 0.59 0.56
0 -14 -2 2.98 0.7
0 -14 -2 4.69 0.55
0 -14 -2 3.76 0.77
-1 -14 -2 0.7 0.45
-1 -14 -2 0.63 0.62
-1 -14 -2 0.91 0.59
-2 -14 -2 7.41 1.12
-2 -14 -2 9 0.94
-3 -14 -2 2.78 0.59
-3 -14 -2 0.96 0.69
-4 -14 -2 1.72 0.58
-5 -14 -2 -0.52 0.54
-5 -14 -2 0.02 0.48
-6 -14 -2 2.47 0.6
-6 -14 -2 1.7 0.53
-7 -14 -2 0.85 0.46
-7 -14 -2 0.56 0.49
-8 -14 -2 0.87 0.45
7 -15 -2 0.34 0.5
6 -15 -2 0.95 0.54
5 -15 -2 0.12 0.54
4 -15 -2 2.81 0.68
3 -15 -2 0.4 0.53
2 -15 -2 -0.41 0.51
1 -15 -2 0.57 0.39
1 -15 -2 0.2 0.55
0 -15 -2 -0.16 0.54
0 -15 -2 0.38 0.44
-1 -15 -2 1.26 0.61
-1 -15 -2 1.22 0.46
-2 -15 -2 -0.13 0.42
-2 -15 -2 -0.4 0.48
-3 -15 -2 1.45 0.56
-3 -15 -2 1.8 0.46
-4 -15 -2 3.75 0.56
-4 -15 -2 3.23 0.63
-5 -15 -2 4.03 0.6
-5 -15 -2 4.16 0.67
-6 -15 -2 2.57 0.51
-6 -15 -2 2.89 0.58
-7 -15 -2 2.31 0.48
-7 -15 -2 2.25 0.53
6 -16 -2 0.02 0.47
5 -16 -2 5.15 0.8
4 -16 -2 0.88 0.52
3 -16 -2 1.72 0.37
3 -16 -2 1.29 0.56
2 -16 -2 -0.43 0.5
2 -16 -2 -0.12 0.36
1 -16 -2 4.24 0.54
1 -16 -2 3.41 0.7
0 -16 -2 12.23 1.07
0 -16 -2 9.05 1.37
-1 -16 -2 3.14 0.68
-2 -16 -2 -0.29 0.48
-3 -16 -2 1.22 0.51
-3 -16 -2 0.78 0.43
-4 -16 -2 -0.03 0.5
-4 -16 -2 -0.19 0.41
-5 -16 -2 1.46 0.52
-5 -16 -2 1.52 0.44
4 -17 -2 0.6 0.48
4 -17 -2 0.23 0.27
3 -17 -2 -0.6 0.47
3 -17 -2 0 0.3
2 -17 -2 0.65 0.33
2 -17 -2 -0.2 0.48
1 -17 -2 0.3 0.53
1 -17 -2 1.22 0.38
0 -17 -2 -0.27 0.48
0 -17 -2 0.26 0.41
-1 -17 -2 2.36 0.51
-2 -17 -2 0.76 0.45
-3 -17 -2 0.06 0.41
-3 -17 -2 0.34 0.45
-4 -17 -2 1.8 0.44
-4 -17 -2 1.89 0.5
-2 -19 3 -0.07 0.36
-1 -19 3 2.89 0.43
0 -19 3 0.09 0.29
1 -19 3 3.04 0.7
1 -19 3 3.12 0.4
1 -19 3 4.28 0.8
2 -19 3 0.63 0.24
2 -19 3 1.47 0.65
2 -19 3 0.08 0.54
-4 -18 3 3.96 0.52
-4 -18 3 4.54 0.59
-3 -18 3 0.88 0.39
-3 -18 3 1.27 0.43
-2 -18 3 0.77 0.41
-1 -18 3 1.67 0.4
0 -18 3 0.38 0.34
0 -18 3 0.17 0.59
1 -18 3 2.52 0.37
1 -18 3 1.8 0.65
2 -18 3 0.64 0.28
2 -18 3 0.91 0.59
3 -18 3 3.65 0.73
3 -18 3 2.12 0.67
4 -18 3 2.09 0.59
-6 -17 3 1.17 0.41
-6 -17 3 0.35 0.47
-5 -17 3 0.93 0.42
-5 -17 3 1.3 0.48
-4 -17 3 0.84 0.47
-4 -17 3 0.55 0.41
-3 -17 3 0.8 0.41
-3 -17 3 0.98 0.46
-2 -17 3 2.36 0.48
-1 -17 3 0.61 0.37
-1 -17 3 0.36 0.65
0 -17 3 1.29 0.65
0 -17 3 1.1 0.36
1 -17 3 0.7 0.33
1 -17 3 0.87 0.63
2 -17 3 5.07 0.52
2 -17 3 4.06 0.81
3 -17 3 0.8 0.57
3 -17 3 1.91 0.58
4 -17 3 0.43 0.54
5 -17 3 -0.02 0.5
6 -17 3 0.39 0.49
-7 -16 3 0.58 0.41
-6 -16 3 1.43 0.47
-6 -16 3 1.17 0.51
-5 -16 3 6.96 0.79
-5 -16 3 6.34 0.71
-4 -16 3 24.87 2.2
-4 -16 3 26.03 1.99
-3 -16 3 1.96 0.5
-3 -16 3 2.05 0.5
-2 -16 3 1.11 0.46
-2 -16 3 2.43 0.45
-1 -16 3 12.82 1.56
-1 -16 3 12.99 1.73
-1 -16 3 15.22 1.27
0 -16 3 1.29 0.64
0 -16 3 -0.12 0.51
0 -16 3 0.87 0.34
1 -16 3 8.42 1.28
1 -16 3 12.04 1.04
1 -16 3 14.03 1.5
2 -16 3 3.97 0.46
2 -16 3 4.28 0.77
3 -16 3 1.76 0.6
4 -16 3 18.77 2.36
4 -16 3 21.47 2.24
5 -16 3 3.07 0.63
6 -16 3 0.81 0.48
7 -16 3 -0.2 0.41
-8 -15 3 2.24 0.46
-7 -15 3 1.01 0.5
-7 -15 3 0.17 0.44
-6 -15 3 5.99 0.73
-6 -15 3 6.99 0.8
-5 -15 3 20.39 1.61
-5 -15 3 19.05 1.76
-4 -15 3 7.5 0.74
-4 -15 3 6.08 1.02
-4 -15 3 7.13 0.8
-3 -15 3 1.66 0.46
-3 -15 3 0.99 0.6
-3 -15 3 0.71 0.45
-2 -15 3 1.57 0.7
-2 -15 3 1.81 0.45
-2 -15 3 2.56 0.62
-2 -15 3 1.38 0.42
-1 -15 3 1.81 0.66
-1 -15 3 1.82 0.39
-1 -15 3 0.97 0.54
0 -15 3 1.27 0.5
0 -15 3 1.78 0.36
1 -15 3 4.01 0.62
1 -15 3 3.08 0.7
1 -15 3 3.28 0.42
2 -15 3 0.7 0.28
2 -15 3 1.39 0.55
3 -15 3 2.54 0.61
4 -15 3 4.42 0.74
4 -15 3 4.32 0.73
5 -15 3 17.41 1.97
6 -15 3 2.24 0.57
7 -15 3 -0.06 0.43
8 -15 3 6.29 0.91
-9 -14 3 2.06 0.45
-8 -14 3 2.73 0.5
-7 -14 3 0.79 0.51
-7 -14 3 -0.89 0.45
-6 -14 3 3.24 0.58
-6 -14 3 2.89 0.55
-5 -14 3 0.8 0.47
-5 -14 3 -0.66 0.47
-5 -14 3 0.21 0.63
-4 -14 3 0.89 0.63
-4 -14 3 0.06 0.45
-4 -14 3 0.52 0.4
-3 -14 3 10.2 0.95
-3 -14 3 7.93 1.15
-3 -14 3 9.55 0.9
-2 -14 3 0.6 0.6
-2 -14 3 1.07 0.37
-2 -14 3 0.18 0.51
-2 -14 3 0.85 0.38
-1 -14 3 10.4 0.92
-1 -14 3 9.44 1.19
-1 -14 3 9.09 1.3
-1 -14 3 9.86 0.93
0 -14 3 25.07 2.54
0 -14 3 22.31 1.95
0 -14 3 22.79 2.33
1 -14 3 8.42 1.01
1 -14 3 6.76 0.66
1 -14 3 5.63 0.81
2 -14 3 1.61 0.29
2 -14 3 1.59 0.5
3 -14 3 9.74 1.24
4 -14 3 0.54 0.48
5 -14 3 0.58 0.49
6 -14 3 6.86 0.95
7 -14 3 0.43 0.59
7 -14 3 0.71 0.48
8 -14 3 1.85 0.51
8 -14 3 2.64 0.65
9 -14 3 5.1 0.74
-10 -13 3 -0.19 0.47
-10 -13 3 0.2 0.4
-9 -13 3 0.63 0.43
-9 -13 3 0.14 0.51
-8 -13 3 2.57 0.51
-8 -13 3 1.61 0.57
-7 -13 3 0.65 0.47
-7 -13 3 1.34 0.52
-6 -13 3 1.34 0.49
-6 -13 3 1.6 0.7
-6 -13 3 2.4 0.51
-5 -13 3 6.5 1.08
-5 -13 3 8.68 0.88
-5 -13 3 7.33 0.76
-4 -13 3 0.59 0.38
-4 -13 3 0.76 0.42
-4 -13 3 0.56 0.63
-3 -13 3 0.98 0.59
-3 -13 3 0.96 0.39
-3 -13 3 1.62 0.37
-2 -13 3 2.81 0.41
-2 -13 3 2.43 0.4
-2 -13 3 1.44 0.61
-2 -13 3 2.39 0.59
-1 -13 3 1.37 0.48
-1 -13 3 0.85 0.53
-1 -13 3 1.09 0.31
-1 -13 3 0.68 0.34
0 -13 3 1.73 0.3
0 -13 3 1.61 0.46
1 -13 3 1.31 0.41
1 -13 3 1.68 0.5
1 -13 3 1.47 0.28
2 -13 3 0.48 0.33
2 -13 3 1.82 0.48
3 -13 3 0.74 0.45
4 -13 3 0.97 0.47
5 -13 3 9.15 1.21
6 -13 3 3.74 0.64
6 -13 3 2.1 0.55
7 -13 3 1.75 0.55
7 -13 3 2.32 0.55
8 -13 3 8.41 1.01
8 -13 3 5.89 0.96
9 -13 3 -0.47 0.6
9 -13 3 0.25 0.4
-10 -12 3 1.1 0.54
-10 -12 3 2.17 0.46
-9 -12 3 2.25 0.59
-9 -12 3 1.73 0.48
-8 -12 3 0.35 0.55
-8 -12 3 0.75 0.47
-7 -12 3 -0.18 0.68
-7 -12 3 0.92 0.48
-7 -12 3 0.02 0.54
-7 -12 3 0.49 0.48
-6 -12 3 2.17 0.47
-6 -12 3 1.85 0.47
-6 -12 3 2.23 0.6
-6 -12 3 1.09 0.71
-5 -12 3 25.97 2.31
-5 -12 3 27.89 2.8
-5 -12 3 27.99 2.08
-4 -12 3 0.9 0.38
-4 -12 3 1.8 0.41
-4 -12 3 0.92 0.63
-3 -12 3 2.41 0.41
-3 -12 3 2.37 0.64
-3 -12 3 3.14 0.43
-2 -12 3 0.76 0.49
-2 -12 3 0.33 0.49
-2 -12 3 0.56 0.32
-2 -12 3 1.1 0.33
-1 -12 3 0.38 0.46
-1 -12 3 0.54 0.44
-1 -12 3 0.8 0.31
0 -12 3 5.61 0.73
0 -12 3 5.93 0.8
1 -12 3 0.31 0.33
1 -12 3 0.63 0.43
2 -12 3 0.59 0.28
2 -12 3 0 0.41
3 -12 3 3.6 0.62
4 -12 3 2.39 0.53
5 -12 3 23.33 2.42
5 -12 3 21.5 2.24
6 -12 3 3.42 0.58
6 -12 3 3.31 0.61
7 -12 3 0.6 0.42
7 -12 3 -0.03 0.45
8 -12 3 0.62 0.46
8 -12 3 1.41 0.55
9 -12 3 2.06 0.54
9 -12 3 2.98 0.69
-11 -11 3 -0.51 0.51
-11 -11 3 0.22 0.38
-10 -11 3 4.74 0.54
-10 -11 3 2.75 0.65
-9 -11 3 2.49 0.6
-9 -11 3 2.61 0.49
-8 -11 3 8.28 0.91
-8 -11 3 6.99 0.78
-7 -11 3 9.12 0.95
-7 -11 3 9.62 0.84
-7 -11 3 7.62 0.94
-7 -11 3 7.92 1.24
-6 -11 3 2.48 0.58
-6 -11 3 3.18 0.48
-6 -11 3 3.7 0.5
-6 -11 3 2.07 0.74
-5 -11 3 1.4 0.39
-5 -11 3 1.35 0.64
-5 -11 3 1.68 0.42
-5 -11 3 2.06 0.53
-4 -11 3 9.53 1.19
-4 -11 3 8.16 0.8
-4 -11 3 7.7 0.87
-3 -11 3 24.86 1.94
-3 -11 3 26.73 2.59
-2 -11 3 -0.54 0.43
-1 -11 3 46.07 4.4
0 -11 3 0.26 0.33
1 -11 3 50.75 4.8
2 -11 3 -0.07 0.25
2 -11 3 -0.36 0.36
3 -11 3 18.38 1.82
4 -11 3 6.84 0.93
5 -11 3 2.67 0.5
5 -11 3 1.77 0.44
6 -11 3 2.89 0.54
6 -11 3 3.6 0.6
7 -11 3 11.38 1.31
7 -11 3 9.95 1.22
8 -11 3 10.33 1.27
8 -11 3 9.93 1.24
9 -11 3 3.73 0.75
9 -11 3 4.48 0.68
10 -11 3 5.08 0.82
-11 -10 3 0.21 0.53
-11 -10 3 -0.12 0.38
-10 -10 3 2.75 0.49
-10 -10 3 4.35 0.69
-9 -10 3 10.42 1.13
-9 -10 3 10.04 0.99
-8 -10 3 8.41 0.83
-8 -10 3 8.66 1
-7 -10 3 1.13 0.71
-7 -10 3 2.96 0.45
-7 -10 3 2.11 0.49
-7 -10 3 2.3 0.61
-6 -10 3 4.54 0.53
-6 -10 3 3.09 0.82
-6 -10 3 3.86 0.55
-6 -10 3 5.71 0.68
-5 -10 3 7.17 0.69
-5 -10 3 7.46 0.78
-5 -10 3 7.48 1.02
-4 -10 3 1 0.36
-4 -10 3 1.49 0.55
-3 -10 3 4.35 0.69
-2 -10 3 6.65 0.84
-1 -10 3 7.11 0.9
0 -10 3 36.26 3.46
1 -10 3 7.4 0.89
1 -10 3 6.91 0.79
2 -10 3 5.74 0.72
2 -10 3 5.27 0.62
3 -10 3 3.64 0.56
5 -10 3 8.35 1.06
6 -10 3 5.92 0.77
6 -10 3 6.6 0.91
7 -10 3 2.6 0.55
7 -10 3 1.98 0.48
8 -10 3 4.36 0.65
9 -10 3 9.62 1.24
10 -10 3 8.65 1.11
-12 -9 3 0.31 0.51
-11 -9 3 2.87 0.66
-10 -9 3 1.25 0.42
-10 -9 3 0.82 0.61
-9 -9 3 2.95 0.68
-9 -9 3 3.2 0.5
-8 -9 3 3.47 0.52
-8 -9 3 4.19 0.69
-7 -9 3 4.11 0.86
-7 -9 3 5.26 0.68
-7 -9 3 3.86 0.52
-6 -9 3 5.4 0.65
-6 -9 3 5.57 0.92
-6 -9 3 6.1 0.76
-6 -9 3 6.03 0.6
-5 -9 3 32.13 3.11
-5 -9 3 30.38 2.33
-4 -9 3 11.4 1.35
-3 -9 3 23.79 2.39
-2 -9 3 18.63 1.91
-1 -9 3 54.2 4.32
-1 -9 3 52.79 5.07
0 -9 3 5.9 0.73
0 -9 3 5.03 0.63
0 -9 3 5.01 0.63
1 -9 3 51.66 4.88
1 -9 3 52.23 4.92
1 -9 3 52.63 4.19
2 -9 3 14.54 1.51
2 -9 3 15.09 1.29
3 -9 3 15.21 1.54
4 -9 3 6.26 0.79
6 -9 3 4.18 0.59
7 -9 3 7.87 0.99
7 -9 3 6.26 0.84
8 -9 3 4.7 0.75
8 -9 3 7.46 0.87
9 -9 3 6.78 0.91
10 -9 3 2.94 0.72
-12 -8 3 1.24 0.58
-11 -8 3 2.5 0.66
-10 -8 3 3.8 0.71
-10 -8 3 3.94 0.54
-9 -8 3 1.42 0.58
-9 -8 3 0.87 0.39
-8 -8 3 2.53 0.6
-8 -8 3 2.1 0.43
-7 -8 3 0.87 0.52
-7 -8 3 0.81 0.64
-7 -8 3 1.11 0.35
-6 -8 3 30.47 2.26
-6 -8 3 29.94 3.04
-5 -8 3 27.69 2.78
-4 -8 3 32.62 3.21
-3 -8 3 13.98 1.53
-2 -8 3 2.29 0.52
-2 -8 3 2.64 0.52
-1 -8 3 0.39 0.37
0 -8 3 0.33 0.32
0 -8 3 0.2 0.44
1 -8 3 0.44 0.31
1 -8 3 0.41 0.38
2 -8 3 2.15 0.37
2 -8 3 2.46 0.48
3 -8 3 16.19 1.54
3 -8 3 14.56 1.29
4 -8 3 34.36 3.24
5 -8 3 43.54 4.1
6 -8 3 33.3 3.16
7 -8 3 1.25 0.47
7 -8 3 0.1 0.38
7 -8 3 0.5 0.3
8 -8 3 1.22 0.41
8 -8 3 0.91 0.43
9 -8 3 3.16 0.61
9 -8 3 2.69 0.58
10 -8 3 3.03 0.72
-12 -7 3 3.19 0.67
-11 -7 3 0.73 0.57
-10 -7 3 9.35 1.06
-9 -7 3 13.25 1.09
-9 -7 3 12.2 1.37
-8 -7 3 9.53 0.95
-8 -7 3 12 1.1
-7 -7 3 0.16 0.32
-7 -7 3 0.18 0.54
-7 -7 3 0 0.46
-6 -7 3 17.44 1.89
-5 -7 3 67.34 6.42
-4 -7 3 81.75 7.74
-3 -7 3 3.03 0.59
-3 -7 3 3.28 0.56
-2 -7 3 12.62 1.15
-1 -7 3 1.6 0.38
-1 -7 3 2.38 0.49
0 -7 3 1.37 0.33
0 -7 3 1.54 0.38
1 -7 3 2.47 0.44
1 -7 3 2.06 0.35
2 -7 3 9.17 1
2 -7 3 9.36 0.84
3 -7 3 1.58 0.41
3 -7 3 2.32 0.31
4 -7 3 66.8 6.2
5 -7 3 93.43 8.59
5 -7 3 89.64 8.47
6 -7 3 26.66 2.55
7 -7 3 0.44 0.39
7 -7 3 1.25 0.35
8 -7 3 4.25 0.7
8 -7 3 6.81 0.79
9 -7 3 8.95 1.17
9 -7 3 11.86 1.24
10 -7 3 8.53 1.05
10 -7 3 7.29 1
-12 -6 3 2.03 0.61
-11 -6 3 1.66 0.65
-10 -6 3 6.42 0.85
-9 -6 3 5.61 0.75
8 6 -3 28.8 2.81
-8 -6 3 24.41 2.39
-8 -6 3 28.62 2.05
7 6 -3 18.49 1.99
-7 -6 3 19.27 1.98
-7 -6 3 17.84 1.43
6 6 -3 106.19 10.16
-6 -6 3 109.05 10.17
5 6 -3 21.45 2.14
-5 -6 3 20.3 2.17
4 6 -3 35.11 3.43
-4 -6 3 35.83 3.45
3 6 -3 20.74 2.07
-3 -6 3 21.38 1.78
-2 -6 3 17.19 1.47
-1 -6 3 9.39 1.04
-1 -6 3 9.46 0.88
0 -6 3 10.14 1.09
0 -6 3 10.39 0.93
-1 6 -3 5.07 0.51
1 -6 3 5.45 0.57
1 -6 3 5.82 0.69
-2 6 -3 9.05 0.87
2 -6 3 11.4 0.91
2 -6 3 11.66 1.08
3 -6 3 10.53 0.94
3 -6 3 11.49 1.12
4 -6 3 42.67 3.99
5 -6 3 30.33 2.94
5 -6 3 31.7 2.95
6 -6 3 102.59 9.72
6 -6 3 107.64 9.87
7 -6 3 21.08 2.08
8 -6 3 21.32 1.85
8 -6 3 14.04 1.84
9 -6 3 11.63 1.22
9 -6 3 8.91 1.22
10 -6 3 8.34 1.17
10 -6 3 11.13 1.21
-13 -5 3 1.71 0.57
-12 -5 3 3.91 0.7
-11 -5 3 4.32 0.78
10 5 -3 7.7 1.36
-10 -5 3 10.29 1.05
9 5 -3 12.88 1.52
-9 -5 3 10.94 1.27
8 5 -3 6.16 1.02
-8 -5 3 9.33 0.95
7 5 -3 39.69 3.86
-7 -5 3 39.06 3.85
6 5 -3 8.99 1.1
-6 -5 3 8.72 1.15
5 5 -3 16.83 1.8
-5 -5 3 17.07 1.8
4 5 -3 12.64 1.45
-4 -5 3 13.98 1.25
-4 -5 3 14.23 1.5
3 5 -3 8.81 1.02
-3 -5 3 9.54 0.88
-2 -5 3 129.11 10.24
-1 -5 3 110.81 10.05
-1 -5 3 107.4 8.65
0 5 -3 0.59 0.25
0 -5 3 0.56 0.3
0 -5 3 0.75 0.34
-1 5 -3 98.98 8.36
1 -5 3 106.7 8.24
1 -5 3 106.14 9.57
2 -5 3 79.98 7.21
2 -5 3 76.19 6.2
3 -5 3 14.7 1.45
4 -5 3 23.88 2.29
4 -5 3 24.11 2.27
5 -5 3 29.4 2.8
5 -5 3 29.65 2.81
6 -5 3 3.38 0.48
6 -5 3 3.81 0.55
7 -5 3 51.35 4.88
8 -5 3 13.95 1.41
8 -5 3 11.53 1.38
9 -5 3 4.31 0.78
9 -5 3 8.01 0.93
10 -5 3 11.34 1.38
10 -5 3 9.6 1.26
-12 5 -3 7.84 0.91
-13 5 -3 0.59 0.5
-13 -4 3 0.65 0.53
-12 -4 3 -0.4 0.59
11 4 -3 2.64 0.98
-11 -4 3 4.2 0.71
10 4 -3 0.79 0.84
-10 -4 3 0.9 0.61
9 4 -3 5.39 1.01
-9 -4 3 6.11 0.78
8 4 -3 0.4 0.64
-8 -4 3 0.61 0.49
7 4 -3 12.47 1.5
6 4 -3 38.65 3.73
-6 -4 3 37.88 3.71
5 4 -3 102.05 9.66
-5 -4 3 103.03 9.67
4 4 -3 28.45 2.76
-4 -4 3 28.56 2.34
3 4 -3 14.72 1.5
-3 -4 3 15 1.28
2 4 -3 45.75 4.29
-2 -4 3 45.05 3.64
-1 -4 3 19.34 1.83
-1 -4 3 18.79 1.58
0 4 -3 14.3 1.21
2 -4 3 24.67 2.33
3 -4 3 22.15 2.11
4 -4 3 20.94 2.05
4 -4 3 22.36 2.07
5 -4 3 104.2 9.76
5 -4 3 107.24 9.92
6 -4 3 71.7 6.69
6 -4 3 72.43 6.8
7 -4 3 6.4 0.73
7 -4 3 4.62 0.67
8 -4 3 0.06 0.37
8 -4 3 0.47 0.45
9 -4 3 1.51 0.6
9 -4 3 3.58 0.58
10 -4 3 1.05 0.63
10 -4 3 1.21 0.6
11 -4 3 15.42 1.81
-12 4 -3 -0.4 0.56
-13 4 -3 1.94 0.57
-13 -3 3 0.85 0.5
-12 -3 3 7.62 0.93
11 3 -3 1.78 0.96
-11 -3 3 2.79 0.69
10 3 -3 15.84 2.06
-10 -3 3 17.41 1.67
9 3 -3 2.71 0.84
-9 -3 3 4.03 0.64
8 3 -3 8.21 1.1
7 3 -3 -0.05 0.54
6 3 -3 2.11 0.58
-6 -3 3 1.68 0.51
5 3 -3 47.26 4.53
4 3 -3 10.94 1.19
-4 -3 3 10.72 0.99
3 3 -3 235.74 21.94
-3 -3 3 233.06 18.53
2 3 -3 45.17 4.27
1 3 -3 87.88 7.09
0 3 -3 2.61 0.32
4 -3 3 14.05 1.35
4 -3 3 13.36 1.37
5 -3 3 96.53 8.81
5 -3 3 90.87 8.66
6 -3 3 5.02 0.6
6 -3 3 3.44 0.59
7 -3 3 0.48 0.41
7 -3 3 0.3 0.38
8 -3 3 22.56 2.21
8 -3 3 20.63 2.15
9 -3 3 7.58 0.97
9 -3 3 8.2 1.07
10 -3 3 14.88 1.88
10 -3 3 16.97 1.79
11 -3 3 -0.08 0.66
-12 3 -3 3.87 0.72
-13 3 -3 4.88 0.75
-13 -2 3 2.74 0.59
-12 -2 3 6.45 0.85
11 2 -3 1.64 0.86
-11 -2 3 1.61 0.66
10 2 -3 0.84 0.8
-10 -2 3 2.03 0.6
9 2 -3 2.72 0.79
-9 -2 3 3.19 0.59
8 2 -3 8.52 1.13
7 2 -3 9.14 1.12
6 2 -3 2.04 0.56
5 2 -3 11.39 1.29
-5 -2 3 11 1.23
4 2 -3 9.39 1.07
3 2 -3 50.2 4.75
2 2 -3 12.53 1.26
1 2 -3 268.35 21.56
1 -2 3 287.15 26.84
2 -2 3 25.93 2.45
3 -2 3 59.05 5.51
3 -2 3 59.94 5.59
4 -2 3 10.63 1.07
4 -2 3 10.05 1.11
5 -2 3 4.17 0.51
5 -2 3 3.12 0.54
6 -2 3 5.21 0.74
6 -2 3 5.76 0.72
7 -2 3 2.18 0.53
7 -2 3 3.51 0.57
8 -2 3 3 0.6
8 -2 3 1.93 0.53
9 -2 3 11.85 1.29
9 -2 3 9.18 1.16
10 -2 3 2.59 0.8
11 -2 3 -0.01 0.74
-12 2 -3 2.4 0.69
-13 2 -3 2.23 0.64
-13 -1 3 0.96 0.49
-12 -1 3 6.58 0.84
11 1 -3 2.73 0.93
-11 -1 3 3.39 0.69
10 1 -3 1.33 0.81
-10 -1 3 1.23 0.59
9 1 -3 15.26 1.75
-9 -1 3 12.93 1.39
8 1 -3 3.25 0.7
7 1 -3 7.03 0.92
6 1 -3 1.51 0.54
5 1 -3 9.65 1.14
-5 -1 3 9.59 1.07
4 1 -3 13.09 1.37
3 1 -3 5.46 0.65
2 1 -3 9.4 0.99
1 1 -3 159.86 12.93
1 1 -3 161.45 15.05
1 -1 3 150.26 14.07
2 -1 3 6.59 0.72
3 -1 3 1.9 0.34
4 -1 3 10.53 1.11
5 -1 3 4.58 0.61
6 -1 3 5.28 0.73
7 -1 3 14.46 1.58
7 -1 3 14.76 1.6
8 -1 3 7.15 0.93
8 -1 3 5.74 0.9
9 -1 3 16.94 1.69
9 -1 3 16.22 1.81
9 -1 3 13.24 1.67
10 -1 3 2.67 0.82
11 -1 3 13.29 1.68
-12 1 -3 3.24 0.74
-13 1 -3 -0.59 0.61
-13 0 3 2.99 0.57
-12 0 3 0.77 0.55
11 0 -3 1.79 0.89
-11 0 3 1.59 0.63
10 0 -3 6.51 1.16
-10 0 3 7.23 0.86
9 0 -3 3.73 0.84
-9 0 3 3.44 0.62
8 0 -3 3.99 0.77
7 0 -3 4.13 0.72
6 0 -3 21.65 2.21
5 0 -3 2.15 0.5
4 0 -3 76.87 7.24
3 0 -3 42.25 4
2 0 -3 43.69 3.58
2 0 -3 44.4 4.16
1 0 -3 11.95 1.19
0 0 -3 43.47 4.1
1 0 3 17.49 1.68
2 0 3 71.18 6.69
-3 0 -3 23.01 2.33
3 0 3 25.1 2.33
-4 0 -3 49.05 4.86
4 0 3 54.06 4.88
5 0 3 0.73 0.42
6 0 3 16.72 1.77
7 0 3 4.66 0.73
8 0 3 1.76 0.61
9 0 3 8.05 1.17
9 0 3 9.83 1.23
10 0 3 10.07 1.38
11 0 3 0.64 0.85
-12 0 -3 0 0.67
-13 0 -3 1.81 0.66
-13 1 3 6 0.72
-12 1 3 2 0.55
11 -1 -3 -0.1 0.8
-11 1 3 0.08 0.6
10 -1 -3 1.47 0.85
-10 1 3 1.8 0.58
9 -1 -3 8.3 1.16
-9 1 3 7.53 0.88
8 -1 -3 1.93 0.63
7 -1 -3 10.71 1.32
6 -1 -3 8.96 1.15
5 -1 -3 7.57 0.97
4 -1 -3 15.17 1.55
3 -1 -3 269.48 25.2
2 -1 -3 15.5 1.33
2 -1 -3 15.9 1.56
1 -1 -3 104.6 9.81
0 -1 -3 0.58 0.27
-1 -1 -3 69.6 6.54
-2 -1 -3 21.75 2.12
2 1 3 21.84 2.12
-3 -1 -3 293.2 27.81
3 1 3 301.44 27.81
-4 -1 -3 7.1 0.89
4 1 3 7.67 0.91
-5 -1 -3 10.49 1.21
5 1 3 11.27 1.25
6 1 3 3.26 0.62
7 1 3 16.41 1.79
8 1 3 8.18 1.11
9 1 3 2.67 0.8
10 1 3 5.58 1.01
10 1 3 3.22 0.88
-11 -1 -3 7.65 0.95
11 1 3 6.14 1.23
-12 -1 -3 0.4 0.67
-13 -1 -3 1.71 0.65
11 -2 -3 1.7 0.84
10 -2 -3 2.29 0.82
9 -2 -3 0.26 0.68
8 -2 -3 4.8 0.84
7 -2 -3 7.92 1.01
6 -2 -3 36.7 3.56
5 -2 -3 8.38 0.98
4 -2 -3 3.13 0.43
-4 2 3 1.54 0.43
3 -2 -3 58.53 5.13
-3 2 3 50.18 6.58
2 -2 -3 126.72 10.58
2 -2 -3 136.6 12.33
1 -2 -3 9.44 1.01
0 -2 -3 257.32 24.06
-1 -2 -3 9.38 1.01
-2 -2 -3 104.38 9.94
2 2 3 107.52 9.94
-3 -2 -3 31.99 3.08
-4 -2 -3 13.35 1.44
4 2 3 13.62 1.44
-5 -2 -3 3.97 0.65
5 2 3 3.82 0.67
6 2 3 50.37 4.85
7 2 3 2.91 0.69
8 2 3 2.54 0.73
9 2 3 -0.67 0.71
10 2 3 15.33 2.03
10 2 3 17.4 1.93
-11 -2 -3 -0.56 0.67
11 2 3 -0.76 0.82
-12 -2 -3 1.27 0.69
-13 -2 -3 1.27 0.64
10 -3 -3 3.53 0.88
9 -3 -3 3.95 0.86
8 -3 -3 10.69 1.29
7 -3 -3 9.03 1.19
6 -3 -3 3.91 0.65
5 -3 -3 4.12 0.65
4 -3 -3 31.05 2.78
-4 3 3 26.38 3.54
3 -3 -3 23.52 2.29
2 -3 -3 2.98 0.52
1 -3 -3 110.16 10.33
0 -3 -3 0.38 0.32
-1 -3 -3 104.58 9.81
-2 -3 -3 0.51 0.38
-3 -3 -3 27.7 2.69
3 3 3 27.46 2.69
-4 -3 -3 20.8 2.12
4 3 3 21.26 2.13
-5 -3 -3 4.75 0.75
5 3 3 4.54 0.75
6 3 3 1.34 0.61
7 3 3 4.72 0.83
8 3 3 2.92 0.78
9 3 3 4.98 0.99
-10 -3 -3 9.87 1.08
10 3 3 9.14 1.41
-11 -3 -3 7.87 0.93
11 3 3 3.86 1.02
-12 -3 -3 0.88 0.68
-13 -3 -3 1.76 0.65
10 -4 -3 3.72 0.78
10 -4 -3 3.05 0.9
9 -4 -3 1.6 0.75
8 -4 -3 10.58 1.29
7 -4 -3 8.63 1.14
6 -4 -3 3.77 0.65
5 -4 -3 35.55 3.44
4 -4 -3 12.31 1.35
-4 4 3 12.17 1.77
3 -4 -3 21.35 2.12
2 -4 -3 1.4 0.4
1 -4 -3 0.11 0.31
0 -4 -3 135.64 12.71
-1 -4 -3 0.38 0.37
-2 -4 -3 2.29 0.49
-3 -4 -3 29.97 2.86
3 4 3 28.57 2.85
-4 -4 -3 9.03 1.19
4 4 3 9.26 1.2
-6 -4 -3 3.54 0.73
6 4 3 3.59 0.73
7 4 3 15.68 1.81
8 4 3 2.13 0.74
-9 -4 -3 1.66 0.56
9 4 3 0.52 0.82
-10 -4 -3 0.71 0.65
10 4 3 0.99 0.88
-11 -4 -3 0.25 0.68
11 4 3 -0.13 0.76
-12 -4 -3 2.54 0.72
11 -5 -3 0.03 0.54
10 -5 -3 -0.27 0.61
10 -5 -3 0.54 0.73
9 -5 -3 0.93 0.7
9 -5 -3 0.1 0.6
8 -5 -3 0.39 0.6
7 -5 -3 1.46 0.55
7 -5 -3 3.07 0.54
6 -5 -3 0.42 0.47
5 -5 -3 2.57 0.56
4 -5 -3 7.81 1.02
3 -5 -3 16.51 1.72
2 -5 -3 12.4 1.29
1 -5 -3 49.43 4.67
0 -5 -3 2.66 0.46
-1 -5 -3 76.4 7.2
-2 -5 -3 22.46 2.25
-3 -5 -3 19.03 1.99
-4 -5 -3 12.26 1.53
4 5 3 13.76 1.53
-5 -5 -3 2.7 0.67
5 5 3 2.69 0.7
-6 -5 -3 -0.02 0.58
6 5 3 -0.11 0.6
7 5 3 10.78 1.36
-8 -5 -3 1.18 0.51
8 5 3 0.66 0.76
-9 -5 -3 4.28 0.69
9 5 3 2.31 0.93
-10 -5 -3 4.77 0.81
-11 -5 -3 6.22 0.89
-12 -5 -3 1.01 0.67
11 -6 -3 0.61 0.55
10 -6 -3 9.96 1.27
10 -6 -3 8.82 1.24
9 -6 -3 2.42 0.75
9 -6 -3 2.75 0.8
8 -6 -3 0.3 0.58
8 -6 -3 -0.12 0.58
7 -6 -3 9.28 1.16
7 -6 -3 8.21 1.25
7 -6 -3 10.51 1.23
6 -6 -3 15.9 1.71
5 -6 -3 33 3.22
4 -6 -3 12.29 1.38
3 -6 -3 0.76 0.52
2 -6 -3 14.68 1.52
1 -6 -3 1.14 0.41
0 -6 -3 0.84 0.42
-1 -6 -3 3.59 0.61
-2 -6 -3 9.65 1.22
-3 -6 -3 2.79 0.67
-4 -6 -3 3.54 0.73
-6 -6 -3 20.84 2.54
-6 -6 -3 26.48 2.48
6 6 3 25.51 2.49
-7 -6 -3 10.2 1.1
-8 -6 -3 0.29 0.54
-9 -6 -3 3.84 0.71
-10 -6 -3 0.3 0.6
-11 -6 -3 2.31 0.72
-12 -6 -3 0.15 0.59
11 -7 -3 2.61 0.67
10 -7 -3 6.54 1.01
9 -7 -3 -0.09 0.62
9 -7 -3 0.22 0.68
8 -7 -3 9.07 1.22
8 -7 -3 8.6 1.16
7 -7 -3 13.14 1.68
7 -7 -3 14.19 1.59
6 -7 -3 0.99 0.57
6 -7 -3 1.55 0.5
5 -7 -3 0.5 0.46
4 -7 -3 2.45 0.6
3 -7 -3 2.69 0.62
2 -7 -3 23.07 2.28
1 -7 -3 11.14 1.24
0 -7 -3 1.59 0.51
-1 -7 -3 13.5 1.48
-2 -7 -3 26.56 2.66
-3 -7 -3 7.45 1
-4 -7 -3 1.34 0.64
-5 -7 -3 1.12 0.66
-5 -7 -3 1.27 0.48
-6 -7 -3 9.25 1.23
-6 -7 -3 10.02 1.25
-7 -7 -3 3.93 0.7
-7 -7 -3 3.85 0.61
-8 -7 -3 0.59 0.52
-9 -7 -3 7.59 0.92
-10 -7 -3 4.59 0.59
-10 -7 -3 5.08 0.78
-11 -7 -3 1.78 0.63
-12 -7 -3 -0.54 0.52
11 -8 -3 3.65 0.71
10 -8 -3 0.34 0.59
9 -8 -3 -0.04 0.62
9 -8 -3 -0.12 0.65
8 -8 -3 4.34 0.83
8 -8 -3 4.11 0.85
7 -8 -3 7.72 1.14
7 -8 -3 9.07 1.11
6 -8 -3 0.82 0.53
6 -8 -3 0.39 0.54
6 -8 -3 -0.06 0.46
5 -8 -3 0.24 0.48
5 -8 -3 0.08 0.46
4 -8 -3 0.48 0.51
3 -8 -3 16.4 1.76
2 -8 -3 26.16 2.57
1 -8 -3 2.63 0.55
0 -8 -3 0.85 0.5
-1 -8 -3 6.4 0.87
-2 -8 -3 26.53 2.51
-2 -8 -3 23.59 2.61
-3 -8 -3 18.85 2.24
-3 -8 -3 24.82 2.21
-4 -8 -3 3.18 0.55
-4 -8 -3 2.99 0.72
-5 -8 -3 1.7 0.69
-5 -8 -3 1.75 0.49
-6 -8 -3 0.73 0.69
-6 -8 -3 0.84 0.54
-7 -8 -3 6.84 0.95
-7 -8 -3 6.99 0.84
-8 -8 -3 3.61 0.74
-8 -8 -3 3.61 0.64
-9 -8 -3 0.96 0.73
-9 -8 -3 2.01 0.5
-9 -8 -3 1.23 0.6
-10 -8 -3 1.21 0.59
-10 -8 -3 2.04 0.47
-11 -8 -3 -0.01 0.53
11 -9 -3 1.48 0.55
10 -9 -3 0.06 0.57
9 -9 -3 3.51 0.83
8 -9 -3 6.77 1.03
8 -9 -3 8.01 1.13
7 -9 -3 8.45 1.06
7 -9 -3 7.17 1.11
6 -9 -3 4.77 0.82
6 -9 -3 4.39 0.76
5 -9 -3 0.38 0.51
5 -9 -3 0.46 0.5
4 -9 -3 0.48 0.53
4 -9 -3 1.34 0.53
3 -9 -3 3.34 0.64
2 -9 -3 1.43 0.47
1 -9 -3 21.73 2.3
1 -9 -3 22.91 2.22
0 -9 -3 5.99 0.85
0 -9 -3 6.53 0.79
-1 -9 -3 25.41 2.78
-1 -9 -3 28.72 2.67
-2 -9 -3 0.21 0.54
-2 -9 -3 0.73 0.36
-3 -9 -3 8.23 1.04
-3 -9 -3 8.48 1.08
-4 -9 -3 0.46 0.45
-4 -9 -3 -0.07 0.4
-4 -9 -3 0.05 0.62
-5 -9 -3 1.11 0.48
-5 -9 -3 0.71 0.67
-5 -9 -3 1.56 0.55
-6 -9 -3 9.47 0.97
-6 -9 -3 8.17 1.18
-6 -9 -3 8.26 1.2
-7 -9 -3 1 0.76
-7 -9 -3 1.91 0.59
-8 -9 -3 1.09 0.69
-9 -9 -3 1.53 0.51
-9 -9 -3 2.1 0.71
-9 -9 -3 2.12 0.6
-10 -9 -3 -0.15 0.41
-10 -9 -3 -0.69 0.49
-11 -9 -3 0.2 0.38
-11 -9 -3 -0.1 0.49
10 -10 -3 4.75 0.82
9 -10 -3 3.09 0.75
8 -10 -3 9.75 1.37
8 -10 -3 11.19 1.31
7 -10 -3 0.73 0.62
7 -10 -3 0.86 0.66
6 -10 -3 0.72 0.6
6 -10 -3 0.99 0.57
5 -10 -3 -0.14 0.53
5 -10 -3 0.97 0.55
4 -10 -3 0.73 0.55
4 -10 -3 0.91 0.54
3 -10 -3 0.25 0.57
2 -10 -3 4.97 0.71
1 -10 -3 3.73 0.63
0 -10 -3 4.2 0.62
0 -10 -3 4.42 0.7
-1 -10 -3 9.24 1.11
-1 -10 -3 10.01 1.23
-2 -10 -3 6.74 0.81
-2 -10 -3 7.72 0.95
-2 -10 -3 7.72 1
-3 -10 -3 1.57 0.64
-3 -10 -3 1.37 0.44
-3 -10 -3 0.93 0.44
-4 -10 -3 1.55 0.69
-4 -10 -3 1.74 0.48
-4 -10 -3 1.51 0.52
-5 -10 -3 -0.11 0.65
-5 -10 -3 -0.09 0.51
-5 -10 -3 0.53 0.47
-6 -10 -3 -0.21 0.59
-6 -10 -3 0.53 0.71
-6 -10 -3 0.32 0.49
-7 -10 -3 0.41 0.62
-7 -10 -3 0.56 0.77
-8 -10 -3 0.86 0.64
-9 -10 -3 3.03 0.56
-10 -10 -3 0.98 0.43
10 -11 -3 -0.05 0.47
9 -11 -3 0.87 0.6
8 -11 -3 -0.11 0.6
7 -11 -3 2.48 0.74
7 -11 -3 2.61 0.67
6 -11 -3 3.68 0.67
6 -11 -3 2.54 0.72
5 -11 -3 0.36 0.55
5 -11 -3 -0.12 0.56
4 -11 -3 0.25 0.54
4 -11 -3 -1.49 0.55
3 -11 -3 3.09 0.73
3 -11 -3 2.56 0.62
2 -11 -3 2.53 0.6
2 -11 -3 2.27 0.56
1 -11 -3 0.61 0.5
1 -11 -3 0.23 0.45
0 -11 -3 0.05 0.44
0 -11 -3 0.22 0.52
0 -11 -3 0.1 0.3
-1 -11 -3 1.03 0.49
-1 -11 -3 2.45 0.63
-1 -11 -3 1.99 0.44
-2 -11 -3 0.59 0.39
-2 -11 -3 1.01 0.61
-2 -11 -3 0.67 0.41
-3 -11 -3 1.09 0.65
-3 -11 -3 1.82 0.51
-3 -11 -3 0.67 0.43
-4 -11 -3 0.87 0.66
-4 -11 -3 -0.01 0.48
-4 -11 -3 0.31 0.54
-5 -11 -3 1.17 0.6
-5 -11 -3 0.74 0.52
-5 -11 -3 0.85 0.67
-6 -11 -3 9.77 1.45
-6 -11 -3 12.93 1.22
-6 -11 -3 12.57 1.55
-7 -11 -3 3.11 0.79
-8 -11 -3 -0.25 0.5
-9 -11 -3 2.67 0.55
-10 -11 -3 -0.28 0.39
9 -12 -3 2.17 0.6
8 -12 -3 1.75 0.64
7 -12 -3 0.61 0.61
6 -12 -3 3.62 0.68
6 -12 -3 2.04 0.7
5 -12 -3 3.37 0.7
5 -12 -3 3.67 0.75
4 -12 -3 2.91 0.66
4 -12 -3 1.83 0.7
3 -12 -3 1.63 0.54
3 -12 -3 0.97 0.66
2 -12 -3 11.13 1.32
2 -12 -3 9.21 1.25
1 -12 -3 4.93 0.77
1 -12 -3 4.14 0.73
0 -12 -3 5.54 0.88
0 -12 -3 6.05 0.85
-1 -12 -3 1.17 0.61
-1 -12 -3 1.54 0.55
-1 -12 -3 2.77 0.44
-2 -12 -3 7.94 0.89
-2 -12 -3 5.43 1.02
-2 -12 -3 8.94 1.01
-3 -12 -3 7.31 1.07
-3 -12 -3 7.37 0.81
-3 -12 -3 7.24 1.08
-4 -12 -3 1.04 0.58
-4 -12 -3 0.4 0.68
-4 -12 -3 0.63 0.54
-5 -12 -3 -0.13 0.53
-5 -12 -3 -0.34 0.67
-5 -12 -3 1.63 0.65
-6 -12 -3 -0.2 0.68
-6 -12 -3 0.88 0.55
-6 -12 -3 1.04 0.69
-7 -12 -3 6.12 0.79
-8 -12 -3 2.25 0.53
-9 -12 -3 0.77 0.48
8 -13 -3 0.99 0.56
7 -13 -3 1.97 0.64
6 -13 -3 0.27 0.58
5 -13 -3 3.06 0.71
4 -13 -3 2.37 0.7
4 -13 -3 2.72 0.67
3 -13 -3 0.87 0.65
3 -13 -3 1.48 0.58
2 -13 -3 21.13 2.18
2 -13 -3 19.08 2.22
1 -13 -3 11.13 1.27
1 -13 -3 8.75 1.25
0 -13 -3 0.07 0.49
0 -13 -3 0.18 0.59
-1 -13 -3 5.2 0.63
-1 -13 -3 4.63 0.87
-2 -13 -3 29.14 2.37
-2 -13 -3 25.53 2.83
-3 -13 -3 4.63 0.91
-3 -13 -3 5.47 0.72
-4 -13 -3 1.14 0.71
-4 -13 -3 1.08 0.58
-5 -13 -3 0.98 0.58
-6 -13 -3 0.12 0.54
-7 -13 -3 0.46 0.48
-7 -13 -3 0.73 0.5
-8 -13 -3 3.75 0.56
7 -14 -3 0.65 0.55
6 -14 -3 0.78 0.59
5 -14 -3 0.29 0.58
4 -14 -3 5.3 0.89
3 -14 -3 0.94 0.58
2 -14 -3 1.48 0.72
2 -14 -3 0.76 0.55
1 -14 -3 1.83 0.72
1 -14 -3 2.02 0.59
0 -14 -3 3.04 0.7
0 -14 -3 3.78 0.77
0 -14 -3 4.04 0.57
-1 -14 -3 4.38 0.59
-1 -14 -3 2.69 0.77
-1 -14 -3 1.5 0.66
-2 -14 -3 3.65 0.63
-2 -14 -3 4.8 0.88
-3 -14 -3 0.88 0.56
-4 -14 -3 -0.02 0.54
-5 -14 -3 1.1 0.5
-5 -14 -3 0.78 0.58
-6 -14 -3 -0.19 0.53
-6 -14 -3 0.18 0.49
-7 -14 -3 3.5 0.61
-7 -14 -3 3.97 0.56
6 -15 -3 0.86 0.54
5 -15 -3 1.2 0.57
4 -15 -3 -0.08 0.52
3 -15 -3 1.26 0.56
2 -15 -3 0.66 0.51
1 -15 -3 1.26 0.57
1 -15 -3 1.73 0.46
0 -15 -3 -0.42 0.52
0 -15 -3 0.13 0.47
-1 -15 -3 0.3 0.55
-1 -15 -3 0.6 0.48
-2 -15 -3 -0.01 0.52
-2 -15 -3 0.54 0.42
-3 -15 -3 0.7 0.55
-3 -15 -3 0.14 0.43
-4 -15 -3 -0.04 0.44
-4 -15 -3 -0.7 0.51
-5 -15 -3 1.11 0.47
-5 -15 -3 0.6 0.54
-6 -15 -3 1 0.5
-6 -15 -3 1.14 0.46
5 -16 -3 -0.08 0.47
4 -16 -3 1.47 0.54
3 -16 -3 1.2 0.53
3 -16 -3 1.66 0.39
2 -16 -3 -0.27 0.49
2 -16 -3 0.48 0.39
1 -16 -3 0.43 0.5
1 -16 -3 0.27 0.44
0 -16 -3 3.69 0.55
0 -16 -3 2.97 0.68
-1 -16 -3 0.45 0.48
-2 -16 -3 1.93 0.53
-3 -16 -3 2.94 0.48
-3 -16 -3 1.91 0.55
-4 -16 -3 1.41 0.53
-4 -16 -3 2.04 0.45
-5 -16 -3 0.15 0.49
-5 -16 -3 1.02 0.43
3 -17 -3 0.25 0.31
3 -17 -3 -0.03 0.46
2 -17 -3 2.17 0.4
2 -17 -3 1.79 0.54
1 -17 -3 -0.13 0.46
1 -17 -3 -0.05 0.36
0 -17 -3 0.29 0.41
0 -17 -3 -0.33 0.48
-1 -17 -3 -0.31 0.44
-2 -17 -3 2.11 0.49
-3 -17 -3 0.32 0.42
-3 -17 -3 -0.05 0.44
-2 -19 4 11.37 1.07
-1 -19 4 0.2 0.32
0 -19 4 0.08 0.28
1 -19 4 0.82 0.64
1 -19 4 0.87 0.27
1 -19 4 0.56 0.57
2 -19 4 15.36 1.81
2 -19 4 12.03 1.59
-5 -18 4 0.63 0.43
-5 -18 4 -0.13 0.38
-4 -18 4 1.16 0.44
-4 -18 4 0.93 0.4
-3 -18 4 2.05 0.45
-3 -18 4 3.49 0.51
-2 -18 4 1.71 0.42
-1 -18 4 17.7 1.55
0 -18 4 0.74 0.63
0 -18 4 -0.48 0.3
1 -18 4 16.01 1.38
1 -18 4 15.9 1.89
2 -18 4 0.98 0.61
2 -18 4 1.4 0.64
2 -18 4 1.58 0.3
3 -18 4 4.48 0.83
3 -18 4 3.79 0.77
4 -18 4 1.82 0.61
5 -18 4 0.27 0.5
-6 -17 4 0.86 0.42
-5 -17 4 1.48 0.48
-5 -17 4 0.59 0.41
-4 -17 4 3.83 0.55
-4 -17 4 4.53 0.61
-3 -17 4 2.12 0.45
-3 -17 4 2.55 0.5
-2 -17 4 21.19 1.84
-1 -17 4 6.17 1.02
-1 -17 4 6.55 0.69
0 -17 4 0.54 0.33
0 -17 4 0.29 0.62
1 -17 4 5.14 0.85
1 -17 4 4.2 0.51
2 -17 4 21.62 1.86
2 -17 4 23.11 2.47
3 -17 4 2.95 0.69
3 -17 4 3.23 0.69
4 -17 4 6.26 0.96
4 -17 4 5.8 0.9
5 -17 4 2.49 0.62
6 -17 4 -0.19 0.47
-7 -16 4 1.71 0.43
-6 -16 4 0.6 0.49
-6 -16 4 0.54 0.43
-5 -16 4 1.83 0.52
-5 -16 4 0.73 0.45
-4 -16 4 7.9 0.84
-4 -16 4 7.47 0.78
-3 -16 4 4.62 0.62
-3 -16 4 4.61 0.58
-2 -16 4 17.75 1.95
-2 -16 4 18.59 1.6
-2 -16 4 17.99 1.47
-1 -16 4 1.64 0.67
-1 -16 4 0.74 0.37
-1 -16 4 0.58 0.51
0 -16 4 1.25 0.52
0 -16 4 2.89 0.7
0 -16 4 2.07 0.38
1 -16 4 1.48 0.34
1 -16 4 1.57 0.65
2 -16 4 17.73 1.86
2 -16 4 14.64 1.35
3 -16 4 4.14 0.75
4 -16 4 6.04 0.94
4 -16 4 5.88 0.88
5 -16 4 2.13 0.58
6 -16 4 0.76 0.49
7 -16 4 2.83 0.58
-8 -15 4 8.14 0.8
-7 -15 4 1.56 0.47
-6 -15 4 0.19 0.46
-6 -15 4 1.37 0.51
-5 -15 4 0.08 0.47
-5 -15 4 0.79 0.48
-4 -15 4 2.79 0.51
-4 -15 4 2.84 0.53
-4 -15 4 1.05 0.67
-3 -15 4 3.56 0.79
-3 -15 4 4.79 0.59
-3 -15 4 4.75 0.6
-2 -15 4 0.32 0.52
-2 -15 4 0.32 0.42
-2 -15 4 0.73 0.38
-1 -15 4 6.1 0.63
-1 -15 4 5.51 0.83
-1 -15 4 5.93 0.94
0 -15 4 -0.09 0.45
0 -15 4 0.54 0.6
0 -15 4 0.27 0.31
1 -15 4 2.2 0.55
1 -15 4 3.65 0.43
1 -15 4 5.22 0.73
2 -15 4 1.12 0.56
3 -15 4 3.46 0.67
4 -15 4 2.99 0.66
4 -15 4 4.26 0.71
5 -15 4 0.38 0.46
6 -15 4 -0.28 0.45
7 -15 4 1.06 0.47
8 -15 4 5.27 0.72
8 -15 4 2.29 0.54
-9 -14 4 7.33 0.68
-9 -14 4 5.55 0.78
-8 -14 4 0.74 0.44
-7 -14 4 4.84 0.67
-7 -14 4 3.78 0.58
-6 -14 4 5.56 0.69
-6 -14 4 4.93 0.64
-6 -14 4 3.81 0.89
-5 -14 4 0.19 0.46
-5 -14 4 0.24 0.64
-5 -14 4 -0.11 0.46
-4 -14 4 12.99 1.2
-4 -14 4 12.94 1.56
-4 -14 4 11.67 1.13
-3 -14 4 3.81 0.75
-3 -14 4 4.33 0.54
-3 -14 4 3.82 0.52
-2 -14 4 4.19 0.73
-2 -14 4 4.2 0.52
-2 -14 4 4.28 0.54
-2 -14 4 4.27 0.81
-1 -14 4 10.32 1.31
-1 -14 4 8.91 1.17
-1 -14 4 10.06 0.91
-1 -14 4 8.97 0.89
0 -14 4 2.24 0.59
0 -14 4 2.06 0.34
0 -14 4 1.95 0.5
1 -14 4 12.05 1.34
1 -14 4 10.78 1.17
1 -14 4 9.75 0.93
2 -14 4 4.83 0.73
3 -14 4 5.42 0.79
4 -14 4 13.42 1.63
4 -14 4 14.69 1.74
5 -14 4 0.39 0.46
6 -14 4 2.99 0.6
7 -14 4 6.68 0.84
7 -14 4 4.75 0.8
8 -14 4 0.42 0.6
8 -14 4 1.07 0.45
9 -14 4 9.56 1.13
9 -14 4 8.74 1.2
-10 -13 4 1.6 0.43
-10 -13 4 1.26 0.53
-9 -13 4 1.6 0.44
-9 -13 4 0.44 0.54
-8 -13 4 12.34 1.31
-8 -13 4 11.81 1.12
-7 -13 4 7.92 0.74
-7 -13 4 7.92 0.81
-7 -13 4 5.03 1.05
-7 -13 4 4.85 0.81
-6 -13 4 8.03 0.92
-6 -13 4 8.39 0.81
-6 -13 4 7.11 1.14
-5 -13 4 5.28 0.99
-5 -13 4 6.13 0.68
-5 -13 4 7.41 0.75
-4 -13 4 -0.25 0.6
-4 -13 4 0.55 0.4
-4 -13 4 0.22 0.39
-3 -13 4 1.07 0.37
-3 -13 4 0.61 0.57
-3 -13 4 1.36 0.37
-2 -13 4 20.08 1.95
-2 -13 4 16.53 2.08
-2 -13 4 18.72 1.45
-2 -13 4 18.72 1.59
-1 -13 4 0.54 0.51
-1 -13 4 -0.09 0.32
-1 -13 4 0.4 0.29
-1 -13 4 0.62 0.45
0 -13 4 0.67 0.25
0 -13 4 0.08 0.38
0 -13 4 0.16 0.46
1 -13 4 0.25 0.35
1 -13 4 1.04 0.44
1 -13 4 0.76 0.23
2 -13 4 17.04 1.79
2 -13 4 19.86 2.01
3 -13 4 1.24 0.47
4 -13 4 0.02 0.41
5 -13 4 5.28 0.77
5 -13 4 5.15 0.75
6 -13 4 7.26 1.03
6 -13 4 8.94 1.11
7 -13 4 5.27 0.74
7 -13 4 4.86 0.75
8 -13 4 12.04 1.47
8 -13 4 13.15 1.45
9 -13 4 0.64 0.62
9 -13 4 0.55 0.42
-10 -12 4 0.37 0.54
-10 -12 4 -0.05 0.4
-9 -12 4 0.34 0.56
-9 -12 4 1.01 0.46
-8 -12 4 1.3 0.49
-8 -12 4 1.89 0.61
-7 -12 4 1.42 0.59
-7 -12 4 2.34 0.53
-7 -12 4 0.2 0.74
-7 -12 4 1.05 0.48
-6 -12 4 14.64 1.37
-6 -12 4 13.04 1.17
-6 -12 4 11.5 1.62
-6 -12 4 13.3 1.24
-5 -12 4 2.95 0.47
-5 -12 4 3.28 0.51
-5 -12 4 3.22 0.59
-5 -12 4 2.15 0.73
-4 -12 4 9.37 0.95
-4 -12 4 11.62 1.03
-4 -12 4 10.73 1.29
-3 -12 4 1.18 0.37
-3 -12 4 1.9 0.36
-3 -12 4 1.33 0.57
-2 -12 4 0.84 0.46
-2 -12 4 0.35 0.48
-2 -12 4 0.32 0.32
-2 -12 4 0.83 0.31
-1 -12 4 0.47 0.31
-1 -12 4 0.08 0.39
0 -12 4 23.7 2.33
1 -12 4 0.31 0.38
1 -12 4 0.23 0.31
2 -12 4 0.75 0.29
2 -12 4 1.1 0.42
2 -12 4 1.24 0.43
3 -12 4 0.73 0.43
3 -12 4 1.6 0.46
4 -12 4 11.91 1.4
5 -12 4 3.4 0.55
5 -12 4 3.48 0.6
6 -12 4 18.87 1.96
6 -12 4 16.33 1.83
7 -12 4 1.57 0.53
7 -12 4 3.13 0.57
8 -12 4 1.62 0.54
8 -12 4 1.23 0.49
9 -12 4 0.75 0.58
10 -12 4 1.23 0.63
-11 -11 4 2.31 0.43
-11 -11 4 2.71 0.6
-10 -11 4 1.25 0.44
-10 -11 4 1.44 0.59
-9 -11 4 4.98 0.72
-9 -11 4 4.52 0.61
-8 -11 4 6.02 0.77
-8 -11 4 4.43 0.62
-8 -11 4 5.08 1.02
-7 -11 4 7.78 0.93
-7 -11 4 7.46 1.19
-7 -11 4 8.06 0.88
-7 -11 4 9.23 0.8
-6 -11 4 1.44 0.42
-6 -11 4 1.4 0.41
-6 -11 4 0.51 0.65
-6 -11 4 0.9 0.53
-5 -11 4 5.71 0.62
-5 -11 4 4.65 0.85
-5 -11 4 4.99 0.56
-5 -11 4 5.05 0.69
-4 -11 4 10.28 0.94
-4 -11 4 11.97 1.36
-4 -11 4 10.93 1.03
-3 -11 4 1.32 0.53
-3 -11 4 1.92 0.36
-2 -11 4 3.09 0.58
-1 -11 4 4.09 0.61
0 -11 4 0.06 0.32
1 -11 4 3.36 0.46
1 -11 4 3.33 0.59
2 -11 4 2.99 0.55
2 -11 4 2.88 0.39
3 -11 4 1.73 0.46
4 -11 4 5.21 0.83
4 -11 4 7.87 0.9
5 -11 4 4.19 0.61
5 -11 4 3.77 0.57
6 -11 4 1.36 0.44
6 -11 4 0.98 0.41
7 -11 4 5.69 0.76
8 -11 4 6.73 0.88
8 -11 4 6.11 0.83
9 -11 4 9.53 1.15
10 -11 4 1.6 0.64
-11 -10 4 0.48 0.56
-11 -10 4 0.54 0.39
-10 -10 4 8.12 0.77
-10 -10 4 7.38 0.94
-9 -10 4 11.09 1.27
-8 -10 4 7.79 0.8
-8 -10 4 8.95 0.98
-7 -10 4 9.3 0.98
-7 -10 4 10.21 1.04
-7 -10 4 9.71 1.37
-7 -10 4 12.74 1.12
-6 -10 4 18.83 1.97
-6 -10 4 14.43 1.66
-6 -10 4 17.36 1.55
-6 -10 4 19.75 1.41
-5 -10 4 8.7 1.04
-5 -10 4 6.54 0.78
-5 -10 4 7.09 0.72
-4 -10 4 6.52 0.87
-4 -10 4 5.86 0.6
-3 -10 4 6.8 0.89
-2 -10 4 17.62 1.82
-1 -10 4 4.04 0.63
-1 -10 4 4.63 0.62
0 -10 4 0.53 0.39
0 -10 4 0.57 0.44
0 -10 4 0.14 0.32
1 -10 4 2.85 0.46
1 -10 4 2.78 0.56
1 -10 4 2.81 0.41
2 -10 4 15.75 1.64
2 -10 4 16.24 1.56
2 -10 4 16.22 1.4
3 -10 4 7.67 0.91
4 -10 4 3.18 0.55
6 -10 4 12.95 1.39
7 -10 4 13.11 1.45
7 -10 4 13.43 1.53
8 -10 4 8.76 1.11
9 -10 4 19.52 2.06
10 -10 4 5.8 0.88
-12 -9 4 2.22 0.57
-11 -9 4 7.62 0.93
-10 -9 4 7.5 0.91
-10 -9 4 6.51 0.71
-9 -9 4 5.21 0.62
-9 -9 4 6.56 0.82
-8 -9 4 10.38 1.05
-8 -9 4 8.54 0.9
-7 -9 4 15.71 1.83
-7 -9 4 15.91 1.28
-7 -9 4 15.07 1.52
-6 -9 4 1.11 0.63
-6 -9 4 0.67 0.35
-6 -9 4 1.79 0.51
-6 -9 4 0.68 0.42
-5 -9 4 51.79 4.88
-5 -9 4 49.56 3.7
-4 -9 4 30.07 2.98
-3 -9 4 3.07 0.6
-3 -9 4 2.78 0.6
-2 -9 4 1.45 0.48
-2 -9 4 0.9 0.49
-1 -9 4 2.91 0.5
0 -9 4 0.27 0.46
0 -9 4 0.97 0.38
1 -9 4 4.86 0.6
1 -9 4 5.73 0.74
2 -9 4 0.9 0.44
2 -9 4 0.65 0.32
3 -9 4 3.32 0.57
3 -9 4 3.75 0.46
4 -9 4 20.86 2.04
5 -9 4 27.36 2.62
7 -9 4 16.45 1.68
7 -9 4 15.59 1.78
8 -9 4 9.89 1.19
9 -9 4 8.99 1.17
10 -9 4 4.58 0.8
11 -9 4 6.22 0.91
-12 -8 4 4.28 0.71
-11 -8 4 5.44 0.82
-10 -8 4 -0.02 0.6
-10 -8 4 -0.21 0.39
-9 -8 4 6.33 0.67
-9 -8 4 6.78 0.85
-8 -8 4 5.95 0.73
-8 -8 4 5.36 0.59
-7 -8 4 -0.03 0.34
-7 -8 4 0.15 0.59
-7 -8 4 -0.37 0.47
-6 -8 4 27.72 2.77
-6 -8 4 26.94 2.05
-5 -8 4 55.85 5.36
-4 -8 4 92.47 8.74
-3 -8 4 26.43 2.25
-2 -8 4 34.06 2.8
-1 -8 4 3.15 0.51
-1 -8 4 4.24 0.66
0 -8 4 25.87 2.16
0 -8 4 26.38 2.52
1 -8 4 4.13 0.51
1 -8 4 4.37 0.63
2 -8 4 32.5 2.67
2 -8 4 33.35 3.12
3 -8 4 40.4 3.8
3 -8 4 40.46 3.26
4 -8 4 67.31 6.25
5 -8 4 33.33 3.16
6 -8 4 13.83 1.37
7 -8 4 -0.3 0.28
7 -8 4 0.27 0.38
8 -8 4 9.55 1.12
8 -8 4 9.62 1.15
9 -8 4 2.3 0.51
10 -8 4 -0.73 0.43
10 -8 4 0.65 0.59
11 -8 4 3.69 0.73
-12 -7 4 2.5 0.64
-11 -7 4 0.29 0.6
-10 -7 4 2.65 0.64
-9 -7 4 4.13 0.66
-9 -7 4 2.83 0.48
-8 -7 4 14.02 1.4
-7 -7 4 4.52 0.78
-7 -7 4 4.66 0.64
-7 -7 4 3.84 0.49
-6 -7 4 12.23 1.44
-5 -7 4 167.59 15.76
-4 -7 4 9.5 1.29
-4 -7 4 10.89 1.1
-3 -7 4 2.76 0.49
-2 -7 4 12.62 1.16
-1 -7 4 11.58 1.23
-1 -7 4 10.98 1.04
0 -7 4 0.26 0.36
0 -7 4 -0.06 0.3
1 -7 4 15.24 1.55
1 -7 4 15.76 1.32
-2 7 -4 8.81 0.82
2 -7 4 10.12 0.86
2 -7 4 9.75 1.03
3 -7 4 2.16 0.44
3 -7 4 1.56 0.32
4 -7 4 8.87 1
5 -7 4 112.34 10.84
5 -7 4 119.42 10.69
6 -7 4 5.78 0.69
6 -7 4 6.3 0.78
7 -7 4 5.02 0.66
7 -7 4 5.15 0.64
8 -7 4 25.24 2.36
8 -7 4 22.03 2.39
9 -7 4 0.91 0.49
9 -7 4 2.28 0.53
10 -7 4 4.02 0.74
10 -7 4 3.27 0.67
11 -7 4 0.78 0.63
-12 -6 4 5.81 0.82
-11 -6 4 3.29 0.66
-10 -6 4 3.7 0.69
-9 -6 4 9.39 1
-8 -6 4 2.34 0.54
-8 -6 4 1.88 0.38
7 6 -4 25.01 2.56
-7 -6 4 24.96 1.9
-7 -6 4 25.45 2.57
6 6 -4 76.45 7.3
-6 -6 4 77.26 7.31
5 6 -4 33.77 3.38
-5 -6 4 35.56 3.4
4 6 -4 32.09 3.15
-4 -6 4 32.71 2.68
3 6 -4 1.23 0.37
-3 -6 4 0.75 0.37
-2 -6 4 22.17 1.91
-2 -6 4 23.59 2.22
-1 -6 4 44.89 3.56
-1 -6 4 43.66 4.14
0 6 -4 135.78 11.33
0 -6 4 147.14 12.96
0 -6 4 139.64 11.16
-1 6 -4 36.62 3.05
1 -6 4 38.27 3.51
1 -6 4 37.65 3.02
2 -6 4 27.54 2.23
2 -6 4 27.33 2.6
3 -6 4 1.08 0.36
3 -6 4 1.49 0.3
4 -6 4 20.28 1.98
5 -6 4 16.66 1.63
5 -6 4 16.2 1.59
6 -6 4 36.95 3.39
6 -6 4 34.84 3.41
7 -6 4 18.21 1.82
8 -6 4 0.49 0.42
8 -6 4 0.32 0.41
9 -6 4 9.45 1.22
9 -6 4 10.14 1.22
10 -6 4 8.38 1.07
10 -6 4 8.13 1.08
11 -6 4 6.31 0.96
-12 6 -4 7.4 0.86
-13 -5 4 2.66 0.59
-12 -5 4 2.68 0.63
-11 -5 4 1.56 0.62
-10 -5 4 2.11 0.62
9 5 -4 2.19 0.78
-9 -5 4 1.67 0.57
8 5 -4 17.11 2.05
-8 -5 4 19.56 1.72
7 5 -4 33.67 3.22
-7 -5 4 30.8 3.18
6 5 -4 7.1 0.94
-6 -5 4 6.51 0.91
5 5 -4 47.47 4.57
-5 -5 4 47.77 4.58
4 5 -4 61.8 5.73
-4 -5 4 58.96 4.83
3 5 -4 26.13 2.45
-3 -5 4 24.35 2.09
-2 -5 4 5.65 0.63
-2 -5 4 6.48 0.76
-1 -5 4 144.26 12.99
-1 -5 4 137.89 11.18
0 5 -4 0.09 0.27
0 -5 4 0.06 0.3
0 -5 4 0.64 0.39
-1 5 -4 160.91 13.2
1 -5 4 167.27 15.1
1 -5 4 164.2 12.99
2 -5 4 4.24 0.47
2 -5 4 4.02 0.56
3 -5 4 18.15 1.53
3 -5 4 18.97 1.8
4 -5 4 59.21 5.43
4 -5 4 57.65 5.48
5 -5 4 23.5 2.35
5 -5 4 25.73 2.37
6 -5 4 3.11 0.51
6 -5 4 2.15 0.4
7 -5 4 17.18 1.75
7 -5 4 17.17 1.75
8 -5 4 13.22 1.28
8 -5 4 9.05 1.27
9 -5 4 1.56 0.5
9 -5 4 0.73 0.5
10 -5 4 2.06 0.66
10 -5 4 3.27 0.7
11 -5 4 1.38 0.64
-13 5 -4 3.19 0.61
-13 -4 4 1.39 0.57
-12 -4 4 1.79 0.62
11 4 -4 0 0.87
-11 -4 4 1.87 0.64
10 4 -4 1.61 0.84
-10 -4 4 2.41 0.6
9 4 -4 2.03 0.83
-9 -4 4 5.17 0.65
8 4 -4 4.54 0.82
-8 -4 4 3.25 0.61
7 4 -4 10.7 1.36
6 4 -4 60.92 5.93
-6 -4 4 63.26 5.93
5 4 -4 61.07 5.93
-5 -4 4 63.57 5.94
4 4 -4 7.39 0.83
-4 -4 4 6.01 0.71
3 4 -4 7.46 0.86
-3 -4 4 6.31 0.73
2 4 -4 31.47 2.89
-2 -4 4 30.04 2.46
-2 -4 4 29.06 2.85
1 4 -4 311.46 25.58
-1 -4 4 324.93 29.22
-1 -4 4 318.73 25.15
0 4 -4 2.59 0.37
0 -4 4 2.33 0.43
0 -4 4 2.21 0.37
1 -4 4 297.89 27.35
2 -4 4 17.8 1.73
3 -4 4 5.05 0.58
3 -4 4 4.12 0.49
4 -4 4 3.25 0.48
4 -4 4 2.84 0.38
5 -4 4 27.02 2.58
5 -4 4 26.88 2.59
6 -4 4 27.9 2.66
6 -4 4 27.53 2.68
7 -4 4 13.85 1.45
7 -4 4 13.15 1.43
8 -4 4 0.95 0.48
8 -4 4 1.53 0.45
8 -4 4 1.48 0.5
9 -4 4 10.81 1.22
9 -4 4 7.63 1.13
10 -4 4 4.15 0.81
10 -4 4 6.07 0.89
-13 4 -4 0.89 0.55
-13 -3 4 1.42 0.53
-12 -3 4 2.26 0.62
11 3 -4 3.97 1.05
-11 -3 4 4.31 0.71
10 3 -4 5.01 1.07
-10 -3 4 4.57 0.75
9 3 -4 17.44 2.04
-9 -3 4 17.04 1.65
8 3 -4 18.07 1.94
-8 -3 4 16.3 1.59
7 3 -4 0.19 0.58
6 3 -4 2.06 0.61
-6 -3 4 1.71 0.53
5 3 -4 81.54 7.79
-5 -3 4 83.38 7.8
4 3 -4 22.01 2.27
-4 -3 4 23.66 1.89
3 3 -4 6.41 0.74
-3 -3 4 6.15 0.63
2 3 -4 130.16 12.2
1 3 -4 35.47 2.91
1 -3 4 18.49 2.35
2 -3 4 135.06 12.58
2 -3 4 134.01 12.38
3 -3 4 4.03 0.49
3 -3 4 3.48 0.49
4 -3 4 39.54 3.75
4 -3 4 40.55 3.79
5 -3 4 38.38 3.5
5 -3 4 34.73 3.45
6 -3 4 1.46 0.44
6 -3 4 1.43 0.43
7 -3 4 0.41 0.42
7 -3 4 -0.4 0.39
8 -3 4 23.13 2.32
8 -3 4 22.33 2.27
9 -3 4 18.37 1.99
9 -3 4 20.03 2.06
10 -3 4 0.61 0.63
10 -3 4 2.09 0.61
11 -3 4 4.64 0.94
-12 3 -4 1.55 0.64
-13 3 -4 5.49 0.79
-13 -2 4 -0.11 0.48
-12 -2 4 4.62 0.71
11 2 -4 3.38 0.99
-11 -2 4 3.39 0.66
10 2 -4 -0.21 0.79
-10 -2 4 0.41 0.57
9 2 -4 10.44 1.35
-9 -2 4 9.88 1.05
8 2 -4 12.37 1.48
7 2 -4 3.91 0.75
6 2 -4 10.84 1.35
5 2 -4 1.89 0.54
4 2 -4 19.59 1.97
3 2 -4 63.04 5.95
2 2 -4 10.14 1.07
2 2 -4 9.82 0.95
-2 -2 4 9.88 1.42
1 2 -4 30.27 2.56
1 2 -4 31.77 2.97
-1 -2 4 31.81 3.84
0 -2 4 1.69 0.42
2 -2 4 6.49 0.68
2 -2 4 5.55 0.76
3 -2 4 59.52 5.64
3 -2 4 60.51 5.56
4 -2 4 14.4 1.46
4 -2 4 14.11 1.43
5 -2 4 0.02 0.42
5 -2 4 0.45 0.37
6 -2 4 4.58 0.6
6 -2 4 2.91 0.62
7 -2 4 1.93 0.53
7 -2 4 2.56 0.55
8 -2 4 1.59 0.55
8 -2 4 3.36 0.6
9 -2 4 1.43 0.56
9 -2 4 2.5 0.67
10 -2 4 0.16 0.69
10 -2 4 0.73 0.56
11 -2 4 5.23 1.05
-12 2 -4 2.36 0.7
-13 2 -4 -0.03 0.61
-13 -1 4 -0.28 0.44
-12 -1 4 1.13 0.55
11 1 -4 3.34 0.99
-11 -1 4 4.44 0.68
10 1 -4 3.46 0.94
-10 -1 4 3.14 0.66
9 1 -4 12.72 1.62
-9 -1 4 10.84 1.23
8 1 -4 13.24 1.63
7 1 -4 10.62 1.37
6 1 -4 0.12 0.54
5 1 -4 4.77 0.64
-5 -1 4 2.82 0.57
4 1 -4 27.39 2.66
3 1 -4 8.14 0.9
-3 -1 4 6.89 1.13
2 1 -4 33.88 3.29
2 1 -4 33.47 2.82
-2 -1 4 36.01 4.22
1 1 -4 71.8 6.89
-1 -1 4 75.09 8.86
2 -1 4 41.61 3.93
3 -1 4 3.81 0.49
4 -1 4 56.95 5.38
5 -1 4 7.91 0.97
6 -1 4 0.21 0.45
7 -1 4 6.98 0.91
7 -1 4 5.96 0.83
8 -1 4 23.35 2.31
8 -1 4 21.87 2.34
9 -1 4 13.09 1.51
9 -1 4 11.03 1.38
9 -1 4 10.66 1.38
10 -1 4 4.67 0.96
11 -1 4 10.17 1.43
-12 1 -4 6.78 0.94
-13 1 -4 0.72 0.65
-13 0 4 0.74 0.45
-12 0 4 0.15 0.51
11 0 -4 1.14 0.9
-11 0 4 1.04 0.6
10 0 -4 1.52 0.89
-10 0 4 2.02 0.6
9 0 -4 1.82 0.78
-9 0 4 1.56 0.54
8 0 -4 0.05 0.58
7 0 -4 5.36 0.81
6 0 -4 0.45 0.55
5 0 -4 11.25 1.3
4 0 -4 17.01 1.65
-4 0 4 15.23 2.05
3 0 -4 66.08 6.02
-3 0 4 61.69 7.71
2 0 -4 392.19 34.35
2 0 -4 374.75 29.5
-2 0 4 335.33 44.11
1 0 -4 33.89 3.03
-1 0 4 29.64 3.88
0 0 -4 8.34 1
0 0 4 9.46 1.29
-1 0 -4 19.88 1.95
1 0 4 20.2 2.56
-2 0 -4 305.98 28.42
2 0 4 296.3 36.51
2 0 4 309.53 28.42
-3 0 -4 47.72 4.81
3 0 4 51.75 6.18
3 0 4 53.18 4.81
-4 0 -4 10.82 1.14
4 0 4 12.38 1.16
4 0 4 8.89 1.42
5 0 4 21.83 2.19
6 0 4 0.28 0.49
7 0 4 12.6 1.46
8 0 4 0.51 0.58
9 0 4 6.32 1.01
9 0 4 6 1.02
10 0 4 1.1 0.82
10 0 4 0.55 0.68
11 0 4 -0.92 0.81
-12 0 -4 0.68 0.69
-13 0 -4 3.29 0.73
-12 1 4 -0.67 0.51
11 -1 -4 24.18 2.51
-11 1 4 20.65 2.03
10 -1 -4 6.09 1.12
-10 1 4 5.54 0.78
9 -1 -4 1.02 0.76
-9 1 4 0.79 0.52
8 -1 -4 10.67 1.31
7 -1 -4 4.66 0.79
6 -1 -4 4.04 0.72
5 -1 -4 0.25 0.49
-4 1 4 3.05 0.51
3 -1 -4 138.85 11.71
-3 1 4 111.25 15.02
2 -1 -4 3.02 0.4
2 -1 -4 2.55 0.45
-2 1 4 2.3 0.52
1 -1 -4 1.86 0.46
-1 1 4 2.28 0.54
0 -1 -4 2.96 0.49
-1 -1 -4 5.23 0.63
-2 -1 -4 3.01 0.48
2 1 4 3.16 0.49
-3 -1 -4 98.81 9.49
3 1 4 103.22 9.49
-4 -1 -4 11.21 1.24
4 1 4 11.73 1.27
5 1 4 -0.08 0.48
6 1 4 10 1.28
7 1 4 1.64 0.6
8 1 4 3.68 0.8
9 1 4 0.74 0.75
10 1 4 1.52 0.77
10 1 4 2.01 0.88
11 1 4 7.31 1.18
-12 -1 -4 0.83 0.68
-13 -1 -4 0.15 0.64
10 -2 -4 18.23 2.18
9 -2 -4 0.19 0.72
8 -2 -4 0.59 0.63
7 -2 -4 1.92 0.6
6 -2 -4 55.03 5.26
5 -2 -4 0.65 0.5
4 -2 -4 4.4 0.63
3 -2 -4 3.21 0.51
-3 2 4 2.76 0.54
2 -2 -4 0.26 0.28
2 -2 -4 0.65 0.43
1 -2 -4 62.62 5.91
0 -2 -4 927.49 86.69
-1 -2 -4 47.17 4.47
-2 -2 -4 0.33 0.36
-3 -2 -4 7.1 0.87
3 2 4 6.76 0.91
-4 -2 -4 16.85 1.69
4 2 4 15.74 1.71
-5 -2 -4 2.99 0.61
5 2 4 2.9 0.65
6 2 4 39.34 3.85
7 2 4 -0.15 0.59
8 2 4 -0.35 0.66
9 2 4 1.09 0.77
10 2 4 4.96 0.95
10 2 4 1.07 0.8
-11 -2 -4 3.08 0.71
11 2 4 1.32 0.83
-12 -2 -4 0.2 0.67
-13 -2 -4 0.79 0.63
11 -3 -4 4.74 0.85
10 -3 -4 14.91 1.81
9 -3 -4 2.62 0.83
8 -3 -4 4.38 0.84
7 -3 -4 -0.1 0.52
6 -3 -4 4.47 0.74
5 -3 -4 1.65 0.54
3 -3 -4 2.29 0.48
-3 3 4 2.34 0.56
2 -3 -4 2.51 0.55
2 -3 -4 3.08 0.36
1 -3 -4 6.2 0.79
0 -3 -4 6.11 0.78
-1 -3 -4 2.97 0.49
-2 -3 -4 1.23 0.41
-3 -3 -4 0.64 0.43
3 3 4 1.33 0.47
-4 -3 -4 79.14 7.48
4 3 4 79.04 7.49
-5 -3 -4 0.13 0.56
5 3 4 1.31 0.58
6 3 4 11.41 1.44
7 3 4 3.06 0.75
8 3 4 1.45 0.73
9 3 4 5.38 1.08
-10 -3 -4 5 0.78
10 3 4 4.45 1.05
-11 -3 -4 1.11 0.69
11 3 4 0.68 0.78
-12 -3 -4 7.11 0.98
11 -4 -4 0.86 0.63
10 -4 -4 0.38 0.78
9 -4 -4 -0.2 0.73
8 -4 -4 2.55 0.73
7 -4 -4 13.86 1.6
6 -4 -4 7.56 0.96
5 -4 -4 3.05 0.64
4 -4 -4 13.06 1.4
-4 4 4 10.89 1.79
2 -4 -4 4.72 0.7
1 -4 -4 19.36 1.92
0 -4 -4 20.65 2.04
-1 -4 -4 18.48 1.86
-2 -4 -4 1.27 0.47
-3 -4 -4 32.16 3.14
-4 -4 -4 6.04 0.85
4 4 4 6.02 0.87
-5 -4 -4 7.15 1.01
5 4 4 8.05 1.04
-6 -4 -4 9.89 1.31
6 4 4 10.53 1.38
7 4 4 17.52 1.99
8 4 4 1.74 0.8
-9 -4 -4 0.01 0.54
9 4 4 -0.89 0.82
-10 -4 -4 0.41 0.63
10 4 4 -1.43 0.84
-11 -4 -4 2.04 0.7
11 4 4 1.22 0.82
-12 -4 -4 2.27 0.7
11 -5 -4 6.52 0.98
10 -5 -4 4.82 0.91
10 -5 -4 4.38 0.95
9 -5 -4 3.54 0.85
9 -5 -4 5.85 0.95
8 -5 -4 0.38 0.63
7 -5 -4 3.15 0.69
6 -5 -4 2.19 0.6
4 -5 -4 0.17 0.51
3 -5 -4 0.69 0.53
2 -5 -4 67.62 6.4
1 -5 -4 36.2 3.47
0 -5 -4 0.33 0.42
-1 -5 -4 49.13 4.68
-2 -5 -4 50 4.78
-3 -5 -4 0.57 0.55
-4 -5 -4 2.51 0.67
-5 -5 -4 34.67 3.25
5 5 4 30.42 3.23
-6 -5 -4 2.5 0.69
6 5 4 2.39 0.72
7 5 4 0.54 0.7
-8 -5 -4 1.35 0.52
8 5 4 0.85 0.79
-9 -5 -4 7.18 0.88
-10 -5 -4 2.47 0.68
-11 -5 -4 1.08 0.65
-12 -5 -4 -0.43 0.62
12 -6 -4 0.08 0.48
11 -6 -4 0.57 0.56
10 -6 -4 0.71 0.63
9 -6 -4 1.26 0.72
9 -6 -4 -0.63 0.64
8 -6 -4 3.27 0.76
8 -6 -4 1.87 0.72
7 -6 -4 3.47 0.71
7 -6 -4 1.23 0.63
6 -6 -4 16.6 1.79
5 -6 -4 0.33 0.5
4 -6 -4 3.48 0.65
3 -6 -4 17.8 1.9
2 -6 -4 0.15 0.48
1 -6 -4 0.93 0.48
0 -6 -4 8.72 1.09
-1 -6 -4 3.33 0.66
-2 -6 -4 1.59 0.6
-3 -6 -4 4.35 0.74
-4 -6 -4 6.64 0.95
-5 -6 -4 0.44 0.63
-6 -6 -4 3.51 0.77
-7 -6 -4 0.46 0.47
-8 -6 -4 2.12 0.58
-9 -6 -4 9.92 1.17
-10 -6 -4 4.76 0.78
-11 -6 -4 2.48 0.71
-12 -6 -4 1.09 0.59
12 -7 -4 0.5 0.46
11 -7 -4 0.02 0.54
10 -7 -4 1.33 0.66
9 -7 -4 7.49 1.12
9 -7 -4 7.36 1.11
8 -7 -4 1.24 0.66
8 -7 -4 0.9 0.66
7 -7 -4 1.48 0.65
7 -7 -4 0.85 0.62
6 -7 -4 6.79 1.02
6 -7 -4 7.81 0.97
5 -7 -4 4.29 0.72
4 -7 -4 2.86 0.64
3 -7 -4 4.46 0.76
2 -7 -4 12.3 1.39
1 -7 -4 9.57 1.1
0 -7 -4 1 0.53
-1 -7 -4 2.82 0.63
-2 -7 -4 13.27 1.53
-3 -7 -4 7.34 1.01
-4 -7 -4 7.33 1.07
-4 -7 -4 11.43 1.27
-5 -7 -4 1.49 0.68
-5 -7 -4 1.05 0.47
-6 -7 -4 11.82 1.45
-6 -7 -4 9.4 1.26
-7 -7 -4 7.07 0.88
-7 -7 -4 8.75 1.09
-8 -7 -4 14.76 1.48
-9 -7 -4 1.17 0.6
-10 -7 -4 9.1 0.9
-10 -7 -4 8.55 1.02
-11 -7 -4 1.91 0.61
11 -8 -4 0.31 0.51
10 -8 -4 0.27 0.59
9 -8 -4 2.7 0.75
8 -8 -4 8.14 1.11
8 -8 -4 7.45 1.16
7 -8 -4 4.29 0.8
7 -8 -4 3.15 0.78
6 -8 -4 1.46 0.6
6 -8 -4 0.99 0.58
5 -8 -4 5.05 0.79
5 -8 -4 4.84 0.81
4 -8 -4 3.58 0.68
3 -8 -4 18.89 2.01
2 -8 -4 1.77 0.55
1 -8 -4 29.35 2.89
0 -8 -4 1.07 0.54
0 -8 -4 0.16 0.35
-1 -8 -4 33.18 3.02
-1 -8 -4 28.77 3.17
-2 -8 -4 1.98 0.64
-2 -8 -4 2.15 0.5
-3 -8 -4 10.51 1.37
-3 -8 -4 10.77 1.27
-4 -8 -4 13.33 1.47
-4 -8 -4 10.54 1.34
-5 -8 -4 4.56 0.71
-5 -8 -4 4.27 0.86
-6 -8 -4 2.67 0.6
-6 -8 -4 3.3 0.82
-7 -8 -4 0.59 0.53
-8 -8 -4 0.96 0.64
-8 -8 -4 -0.44 0.55
-9 -8 -4 11.33 1.14
-9 -8 -4 9.81 1.46
-10 -8 -4 2.31 0.47
-10 -8 -4 1.03 0.56
-11 -8 -4 -0.15 0.5
11 -9 -4 1.74 0.56
10 -9 -4 0.85 0.59
9 -9 -4 6.74 1.08
8 -9 -4 2.22 0.74
7 -9 -4 0.53 0.63
7 -9 -4 0.26 0.63
6 -9 -4 7.3 1.05
6 -9 -4 6.79 0.98
5 -9 -4 3.81 0.71
5 -9 -4 2.36 0.66
4 -9 -4 0.76 0.53
4 -9 -4 -0.32 0.58
3 -9 -4 11.4 1.4
2 -9 -4 14.7 1.6
1 -9 -4 7.83 0.88
1 -9 -4 5.65 0.78
0 -9 -4 0.47 0.55
0 -9 -4 0.81 0.37
-1 -9 -4 4.33 0.75
-1 -9 -4 4.41 0.62
-2 -9 -4 11.11 1.29
-2 -9 -4 11.2 1.39
-3 -9 -4 7.15 0.96
-4 -9 -4 0.58 0.43
-4 -9 -4 0.96 0.64
-4 -9 -4 -0.32 0.41
-5 -9 -4 -0.01 0.48
-5 -9 -4 0.2 0.45
-5 -9 -4 -0.09 0.67
-6 -9 -4 1.41 0.77
-6 -9 -4 1.91 0.58
-6 -9 -4 1.54 0.5
-7 -9 -4 0.02 0.63
-8 -9 -4 24.41 2.71
-9 -9 -4 0.65 0.48
-9 -9 -4 1.69 0.69
-10 -9 -4 1.69 0.45
-10 -9 -4 0.57 0.51
-11 -9 -4 -0.48 0.35
-11 -9 -4 0.23 0.48
10 -10 -4 0.3 0.57
9 -10 -4 7.56 1.12
8 -10 -4 -0.14 0.65
7 -10 -4 0.28 0.61
7 -10 -4 0.07 0.64
6 -10 -4 0.46 0.62
6 -10 -4 0.27 0.59
5 -10 -4 0.55 0.58
5 -10 -4 -0.51 0.56
4 -10 -4 2.42 0.64
4 -10 -4 0.89 0.65
3 -10 -4 0.97 0.53
3 -10 -4 0.6 0.61
2 -10 -4 12.91 1.58
2 -10 -4 14.15 1.54
1 -10 -4 4.58 0.65
1 -10 -4 6.24 0.8
0 -10 -4 5.2 0.65
0 -10 -4 4.65 0.81
-1 -10 -4 1.85 0.63
-1 -10 -4 2.09 0.42
-2 -10 -4 16.89 1.59
-2 -10 -4 17.59 1.94
-2 -10 -4 20.16 1.96
-3 -10 -4 1.57 0.5
-3 -10 -4 1.49 0.69
-3 -10 -4 1.97 0.51
-4 -10 -4 1.26 0.69
-4 -10 -4 1.2 0.55
-4 -10 -4 1.19 0.48
-5 -10 -4 -0.12 0.51
-5 -10 -4 0.64 0.71
-5 -10 -4 0.08 0.54
-6 -10 -4 3.57 0.66
-6 -10 -4 3.66 0.9
-6 -10 -4 5.17 0.8
-7 -10 -4 8.14 1.16
-8 -10 -4 0.76 0.67
-9 -10 -4 0.22 0.5
-10 -10 -4 0.44 0.44
10 -11 -4 1.53 0.56
9 -11 -4 -0.18 0.58
8 -11 -4 1.49 0.69
7 -11 -4 0.48 0.66
6 -11 -4 7.43 1.05
6 -11 -4 8.55 1.17
5 -11 -4 0.56 0.58
5 -11 -4 0.71 0.6
4 -11 -4 1.07 0.58
4 -11 -4 0.67 0.64
3 -11 -4 20.25 2.09
3 -11 -4 18.65 2.16
2 -11 -4 7.88 1.01
2 -11 -4 5.98 0.9
1 -11 -4 2.35 0.56
1 -11 -4 2.6 0.62
0 -11 -4 0.81 0.34
0 -11 -4 0.28 0.47
0 -11 -4 1.04 0.6
-1 -11 -4 3.01 0.74
-1 -11 -4 3.56 0.56
-2 -11 -4 2.03 0.47
-2 -11 -4 0.89 0.64
-2 -11 -4 2.65 0.51
-3 -11 -4 15.19 1.4
-3 -11 -4 16.12 1.7
-3 -11 -4 11.84 1.73
-4 -11 -4 0.48 0.55
-4 -11 -4 -0.1 0.64
-4 -11 -4 -0.17 0.5
-5 -11 -4 1.29 0.64
-5 -11 -4 1.24 0.71
-5 -11 -4 0.32 0.53
-6 -11 -4 3.21 0.72
-6 -11 -4 0.88 0.75
-6 -11 -4 1.43 0.58
-7 -11 -4 0.18 0.67
-8 -11 -4 1.97 0.72
-9 -11 -4 -0.67 0.44
9 -12 -4 1.79 0.59
8 -12 -4 -0.53 0.55
7 -12 -4 1.33 0.65
6 -12 -4 0.6 0.62
5 -12 -4 2.58 0.65
5 -12 -4 1.61 0.65
4 -12 -4 0.85 0.57
4 -12 -4 0.46 0.61
3 -12 -4 0.27 0.65
3 -12 -4 -0.03 0.51
2 -12 -4 5.07 0.89
2 -12 -4 3.66 0.7
1 -12 -4 0.42 0.5
1 -12 -4 1.21 0.6
0 -12 -4 3 0.65
0 -12 -4 3.87 0.75
-1 -12 -4 0.01 0.62
-1 -12 -4 0.26 0.4
-2 -12 -4 1.82 0.53
-2 -12 -4 1.22 0.71
-2 -12 -4 2.37 0.53
-3 -12 -4 0.81 0.5
-3 -12 -4 1.04 0.56
-3 -12 -4 1.09 0.66
-4 -12 -4 9.46 1.09
-4 -12 -4 6.08 1.09
-4 -12 -4 7.49 0.93
-5 -12 -4 4.12 0.96
-5 -12 -4 8.43 1.01
-5 -12 -4 5.75 0.81
-6 -12 -4 1.12 0.71
-6 -12 -4 0.77 0.58
-8 -12 -4 0.45 0.49
-9 -12 -4 2.09 0.51
8 -13 -4 3.1 0.69
7 -13 -4 1.18 0.6
6 -13 -4 0.06 0.57
5 -13 -4 1.83 0.65
4 -13 -4 4.35 0.77
4 -13 -4 2.73 0.71
3 -13 -4 8.95 1.23
3 -13 -4 8.88 1.18
2 -13 -4 2.1 0.77
2 -13 -4 1.44 0.59
1 -13 -4 7.82 1.1
1 -13 -4 9.75 1.21
0 -13 -4 -0.06 0.49
0 -13 -4 1.01 0.63
-1 -13 -4 1.7 0.7
-1 -13 -4 2.17 0.53
-2 -13 -4 0.34 0.69
-2 -13 -4 0.45 0.54
-3 -13 -4 9.66 1.07
-3 -13 -4 5.65 1.18
-3 -13 -4 10.84 1.19
-4 -13 -4 7.52 1.19
-4 -13 -4 9.74 1.21
-4 -13 -4 7.9 0.97
-5 -13 -4 0.2 0.57
-6 -13 -4 1.9 0.59
-7 -13 -4 3.94 0.59
-8 -13 -4 0.8 0.46
7 -14 -4 4.74 0.82
6 -14 -4 -0.01 0.55
5 -14 -4 0.16 0.57
4 -14 -4 2.11 0.65
3 -14 -4 0.72 0.56
2 -14 -4 1.36 0.57
1 -14 -4 0.15 0.5
1 -14 -4 -0.16 0.72
0 -14 -4 1.22 0.7
0 -14 -4 0.51 0.51
0 -14 -4 0.27 0.54
-1 -14 -4 -0.02 0.65
-1 -14 -4 -0.03 0.54
-2 -14 -4 -0.04 0.51
-3 -14 -4 0.98 0.57
-4 -14 -4 1.97 0.6
-5 -14 -4 2.72 0.64
-6 -14 -4 0.07 0.51
-6 -14 -4 -0.37 0.46
-7 -14 -4 0.22 0.47
-7 -14 -4 0.1 0.43
6 -15 -4 0.66 0.52
5 -15 -4 1.06 0.55
4 -15 -4 -0.03 0.52
3 -15 -4 7.47 1.06
2 -15 -4 3.33 0.65
1 -15 -4 2.73 0.68
1 -15 -4 4.97 0.6
0 -15 -4 -0.3 0.5
0 -15 -4 0.19 0.51
-1 -15 -4 1.81 0.53
-2 -15 -4 0.8 0.54
-2 -15 -4 0.89 0.43
-3 -15 -4 10.09 1.08
-3 -15 -4 8.88 0.94
-4 -15 -4 0.6 0.45
-4 -15 -4 -0.09 0.53
-5 -15 -4 -0.27 0.42
-5 -15 -4 -0.15 0.52
-6 -15 -4 0.1 0.46
-6 -15 -4 0.37 0.42
4 -16 -4 1.26 0.51
3 -16 -4 0.53 0.49
3 -16 -4 0.57 0.38
2 -16 -4 0.55 0.41
2 -16 -4 0.38 0.48
1 -16 -4 4.14 0.55
1 -16 -4 2.34 0.61
0 -16 -4 8.12 1.1
-1 -16 -4 8.78 0.98
-2 -16 -4 0.66 0.5
-3 -16 -4 -0.34 0.48
-3 -16 -4 0.32 0.39
-4 -16 -4 1.22 0.52
-4 -16 -4 2.42 0.45
1 -17 -4 1.99 0.56
1 -17 -4 3.42 0.47
0 -17 -4 0.62 0.42
-1 -17 -4 1.66 0.47
-3 -19 5 1.64 0.4
-2 -19 5 15.58 1.38
-1 -19 5 2.83 0.42
0 -19 5 -0.01 0.28
0 -19 5 -1.09 0.64
1 -19 5 4.53 0.87
1 -19 5 4.73 0.51
1 -19 5 3.88 0.81
2 -19 5 14.81 1.85
2 -19 5 17.39 2.05
3 -19 5 2.55 0.68
3 -19 5 1.33 0.6
-5 -18 5 0.74 0.39
-5 -18 5 1.37 0.6
-4 -18 5 3.39 0.5
-4 -18 5 3.8 0.54
-3 -18 5 0.42 0.41
-3 -18 5 0.04 0.39
-2 -18 5 0.15 0.37
-1 -18 5 0.01 0.33
0 -18 5 0.81 0.32
0 -18 5 0.88 0.67
1 -18 5 -0.86 0.68
1 -18 5 1.23 0.62
1 -18 5 0.84 0.29
2 -18 5 0.25 0.58
2 -18 5 -0.34 0.59
3 -18 5 0.76 0.59
3 -18 5 0.9 0.63
4 -18 5 2.86 0.66
5 -18 5 0.24 0.51
-6 -17 5 10.36 1.44
-5 -17 5 1.63 0.49
-5 -17 5 1.46 0.45
-4 -17 5 3.46 0.52
-4 -17 5 3.14 0.57
-3 -17 5 0.38 0.41
-3 -17 5 0.69 0.44
-2 -17 5 1.92 0.44
-1 -17 5 5.71 0.63
0 -17 5 1.02 0.33
0 -17 5 1.11 0.65
1 -17 5 6.46 0.7
1 -17 5 7.54 1.03
2 -17 5 -0.14 0.63
2 -17 5 1.02 0.62
3 -17 5 0.98 0.6
3 -17 5 1.56 0.66
4 -17 5 2.45 0.66
4 -17 5 3.28 0.69
5 -17 5 1.49 0.55
6 -17 5 4.65 0.74
-7 -16 5 2.13 0.45
-6 -16 5 0.93 0.45
-6 -16 5 0.81 0.51
-5 -16 5 2.58 0.56
-5 -16 5 2.73 0.51
-4 -16 5 3.14 0.54
-4 -16 5 4.06 0.59
-3 -16 5 0.34 0.4
-3 -16 5 0.18 0.42
-2 -16 5 2.4 0.66
-2 -16 5 3.21 0.49
-2 -16 5 2.85 0.48
-1 -16 5 2.91 0.74
-1 -16 5 2.5 0.4
-1 -16 5 0.43 0.54
0 -16 5 5.74 0.61
0 -16 5 7.42 0.97
0 -16 5 4.87 0.79
1 -16 5 4.03 0.47
1 -16 5 3.76 0.78
2 -16 5 2.18 0.64
3 -16 5 0.99 0.6
3 -16 5 0.68 0.54
4 -16 5 3.42 0.74
4 -16 5 3.02 0.66
5 -16 5 1.83 0.56
6 -16 5 0.65 0.48
7 -16 5 0.95 0.47
-8 -15 5 2.13 0.46
-7 -15 5 0.19 0.42
-6 -15 5 1.58 0.52
-6 -15 5 3.29 0.57
-5 -15 5 0.87 0.49
-5 -15 5 0.23 0.45
-4 -15 5 3.39 0.55
-4 -15 5 3.29 0.53
-4 -15 5 2.02 0.74
-3 -15 5 20.74 1.7
-3 -15 5 23.22 1.87
-3 -15 5 20 2.27
-2 -15 5 9.09 0.77
-2 -15 5 8.11 1.06
-2 -15 5 7.29 0.84
-1 -15 5 1.38 0.54
-1 -15 5 0.8 0.34
-1 -15 5 1.52 0.64
0 -15 5 2.33 0.37
0 -15 5 2.19 0.66
0 -15 5 2.31 0.53
1 -15 5 1.13 0.56
1 -15 5 1.55 0.3
1 -15 5 0.45 0.4
2 -15 5 8.69 1.21
3 -15 5 24.58 2.66
4 -15 5 3.24 0.68
4 -15 5 5.21 0.81
5 -15 5 0.25 0.44
6 -15 5 3.69 0.65
7 -15 5 0.71 0.43
7 -15 5 0.21 0.52
8 -15 5 2.52 0.67
8 -15 5 2.62 0.54
-9 -14 5 6.71 0.87
-9 -14 5 8.49 0.76
-8 -14 5 0.54 0.45
-8 -14 5 0.52 0.55
-7 -14 5 4.31 0.74
-7 -14 5 4.65 0.62
-6 -14 5 2.98 0.52
-6 -14 5 1.34 0.74
-6 -14 5 2.67 0.55
-5 -14 5 1.57 0.48
-5 -14 5 1.42 0.5
-5 -14 5 1.77 0.71
-4 -14 5 24.79 2.68
-4 -14 5 26.19 2.22
-4 -14 5 26.33 2
-3 -14 5 1.19 0.61
-3 -14 5 2.38 0.42
-3 -14 5 1.29 0.42
-2 -14 5 0.76 0.33
-2 -14 5 1.57 0.64
-2 -14 5 -0.06 0.36
-2 -14 5 0.49 0.52
-1 -14 5 7.57 0.93
-1 -14 5 6.74 0.99
-1 -14 5 6.51 0.72
-1 -14 5 7.83 0.69
0 -14 5 2.75 0.61
0 -14 5 2.03 0.34
0 -14 5 2.07 0.51
1 -14 5 5.86 0.73
1 -14 5 6.58 0.84
1 -14 5 5.21 0.59
2 -14 5 0.7 0.46
3 -14 5 1.01 0.46
4 -14 5 25.52 2.67
4 -14 5 24.19 2.88
5 -14 5 1.76 0.51
6 -14 5 1.14 0.49
6 -14 5 0.86 0.48
7 -14 5 1.86 0.53
7 -14 5 3.47 0.6
8 -14 5 -0.11 0.39
8 -14 5 -0.29 0.53
9 -14 5 8.61 1.16
-10 -13 5 0.43 0.51
-10 -13 5 0.4 0.42
-9 -13 5 1.02 0.54
-9 -13 5 0.32 0.43
-8 -13 5 9.69 0.94
-8 -13 5 8.28 0.98
-7 -13 5 3.45 0.9
-7 -13 5 4.28 0.58
-7 -13 5 3.6 0.68
-6 -13 5 6.93 0.73
-6 -13 5 7.58 0.78
-6 -13 5 5.4 0.83
-6 -13 5 6.58 1.05
-5 -13 5 0.65 0.66
-5 -13 5 1.1 0.43
-5 -13 5 0.79 0.45
-4 -13 5 10.63 1.05
-4 -13 5 10.81 0.99
-4 -13 5 10.9 1.38
-3 -13 5 12.36 1.5
-3 -13 5 13.37 1.18
-3 -13 5 13 1.1
-2 -13 5 6.38 0.65
-2 -13 5 6.4 0.93
-2 -13 5 5.62 0.86
-2 -13 5 7.02 0.64
-1 -13 5 5.71 0.85
-1 -13 5 6.28 0.79
-1 -13 5 6.5 0.61
-1 -13 5 5.33 0.62
0 -13 5 0.22 0.38
0 -13 5 0.48 0.47
0 -13 5 0.75 0.26
1 -13 5 5.68 0.7
1 -13 5 3.84 0.46
1 -13 5 3.61 0.57
2 -13 5 6.16 0.83
3 -13 5 13.15 1.49
3 -13 5 14.21 1.58
4 -13 5 10.73 1.41
4 -13 5 13.75 1.54
5 -13 5 1.18 0.45
5 -13 5 1.3 0.44
6 -13 5 5.37 0.78
6 -13 5 5.56 0.76
7 -13 5 4.76 0.75
7 -13 5 5.3 0.75
8 -13 5 5.95 0.83
9 -13 5 1.6 0.62
10 -13 5 0.3 0.6
-10 -12 5 0.92 0.43
-10 -12 5 1.98 0.59
-9 -12 5 0.33 0.45
-9 -12 5 0.51 0.57
-8 -12 5 0.17 0.46
-8 -12 5 1.87 0.6
-8 -12 5 -0.74 0.69
-7 -12 5 0.42 0.45
-7 -12 5 0.31 0.57
-7 -12 5 -0.4 0.7
-6 -12 5 23.35 2.08
-6 -12 5 21.47 2.19
-6 -12 5 27.94 1.9
-6 -12 5 24.19 2.55
-5 -12 5 4.3 0.56
-5 -12 5 3.98 0.63
-5 -12 5 4.4 0.54
-5 -12 5 3.37 0.79
-4 -12 5 24.39 2.53
-4 -12 5 25.83 2.1
-4 -12 5 23.5 2.19
-4 -12 5 24.38 1.88
-3 -12 5 3.7 0.68
-3 -12 5 3.81 0.47
-3 -12 5 3.82 0.48
-2 -12 5 1.5 0.52
-2 -12 5 1.4 0.32
-2 -12 5 0.41 0.46
-2 -12 5 1.21 0.35
-1 -12 5 1.98 0.48
-1 -12 5 2.36 0.39
0 -12 5 23.84 2.33
1 -12 5 2.76 0.58
1 -12 5 2.86 0.57
1 -12 5 3.21 0.45
2 -12 5 2.33 0.51
2 -12 5 1.45 0.3
2 -12 5 1.07 0.42
3 -12 5 3.84 0.65
3 -12 5 3.57 0.6
4 -12 5 22.93 2.42
4 -12 5 23.32 2.45
4 -12 5 26.33 2.81
4 -12 5 25.94 2.63
5 -12 5 2.86 0.52
5 -12 5 3.18 0.56
6 -12 5 18.64 2.12
6 -12 5 20.19 2
7 -12 5 0.31 0.45
7 -12 5 -0.04 0.41
8 -12 5 1.26 0.46
8 -12 5 0.76 0.5
9 -12 5 0.69 0.55
10 -12 5 1.13 0.63
-11 -11 5 2.38 0.43
-11 -11 5 3.27 0.63
-10 -11 5 0.43 0.42
-10 -11 5 0.55 0.59
-9 -11 5 12.99 1.41
-9 -11 5 13.01 1.17
-8 -11 5 10.46 1.02
-8 -11 5 11.49 1.22
-8 -11 5 9.04 1.4
-7 -11 5 9.34 0.91
-7 -11 5 6.41 1.13
-7 -11 5 6.6 0.74
-6 -11 5 -0.25 0.4
-6 -11 5 0.28 0.61
-6 -11 5 0.32 0.53
-6 -11 5 0.81 0.38
-5 -11 5 3.14 0.72
-5 -11 5 2.47 0.45
-5 -11 5 2.19 0.56
-5 -11 5 2.73 0.42
-4 -11 5 6.24 0.73
-4 -11 5 6.71 0.63
-4 -11 5 6.55 0.92
-3 -11 5 5.16 0.53
-3 -11 5 5.08 0.78
-2 -11 5 6.31 0.81
-2 -11 5 5.6 0.78
-1 -11 5 9.47 1.1
-1 -11 5 9.76 1.05
0 -11 5 0.93 0.36
0 -11 5 1.36 0.48
0 -11 5 1.12 0.42
1 -11 5 10.08 1.05
1 -11 5 10.09 0.99
1 -11 5 9.88 1.17
2 -11 5 8.06 0.9
2 -11 5 6.87 0.75
2 -11 5 6.58 0.74
3 -11 5 6.9 0.89
4 -11 5 4.25 0.66
4 -11 5 4.35 0.64
5 -11 5 2.05 0.42
5 -11 5 1.37 0.41
6 -11 5 0.44 0.37
6 -11 5 0.43 0.39
7 -11 5 11.51 1.32
7 -11 5 10.6 1.29
8 -11 5 14.14 1.57
9 -11 5 12.55 1.46
10 -11 5 1.56 0.64
-11 -10 5 1.2 0.6
-10 -10 5 5.39 0.64
-10 -10 5 5.96 0.8
-9 -10 5 13.24 1.44
-9 -10 5 14.53 1.22
-8 -10 5 2.43 0.46
-8 -10 5 2.91 0.64
-8 -10 5 1.4 0.79
-7 -10 5 22.96 1.78
-7 -10 5 22.86 2.08
-7 -10 5 22.62 2.45
-6 -10 5 6.06 0.96
-6 -10 5 5.72 0.63
-6 -10 5 6.45 0.76
-6 -10 5 6.55 0.69
-5 -10 5 7.12 0.97
-5 -10 5 7.29 0.73
-5 -10 5 6.75 0.66
-4 -10 5 13.07 1.43
-4 -10 5 11.71 1.02
-3 -10 5 3.01 0.64
-3 -10 5 3.12 0.61
-2 -10 5 3.68 0.6
-1 -10 5 0.76 0.42
0 -10 5 36.74 3.14
0 -10 5 40.2 3.66
1 -10 5 1.45 0.48
1 -10 5 1.74 0.42
2 -10 5 5.8 0.65
2 -10 5 5.48 0.75
3 -10 5 2.12 0.49
3 -10 5 1.73 0.37
4 -10 5 12.08 1.3
5 -10 5 5.75 0.77
6 -10 5 8.62 1.01
6 -10 5 7.28 0.94
7 -10 5 26.74 2.75
7 -10 5 28.57 2.95
8 -10 5 3.87 0.65
9 -10 5 10.97 1.33
10 -10 5 10.38 1.32
11 -10 5 2.09 0.64
-12 -9 5 1.09 0.57
-11 -9 5 7.76 0.91
-10 -9 5 1.39 0.62
-10 -9 5 1.19 0.44
-9 -9 5 8.34 0.82
-9 -9 5 8.78 1
-8 -9 5 13.52 1.21
-8 -9 5 15.89 1.48
-7 -9 5 5.84 0.63
-7 -9 5 9.6 0.94
-7 -9 5 5.24 0.97
-6 -9 5 4.67 0.62
-6 -9 5 2.63 0.73
-6 -9 5 3 0.46
-6 -9 5 4.91 0.56
-5 -9 5 6.58 0.95
-5 -9 5 6.98 0.69
-4 -9 5 5.56 0.81
-3 -9 5 19.34 1.73
-2 -9 5 2 0.5
-1 -9 5 1.64 0.54
-1 -9 5 1.39 0.45
1 -9 5 1.72 0.52
1 -9 5 1.49 0.4
2 -9 5 1.69 0.37
2 -9 5 1.73 0.48
3 -9 5 30.74 2.51
3 -9 5 30.78 2.94
4 -9 5 5.76 0.74
5 -9 5 3.76 0.59
6 -9 5 6.71 0.81
7 -9 5 8.09 1
8 -9 5 21.95 2.25
9 -9 5 5.74 0.81
10 -9 5 3.01 0.68
11 -9 5 14.68 1.68
-12 -8 5 0.74 0.53
-12 -8 5 0.62 0.38
-11 -8 5 0.99 0.61
-10 -8 5 0.04 0.43
-10 -8 5 0.68 0.61
-9 -8 5 3.96 0.69
-9 -8 5 3.17 0.49
-8 -8 5 14.68 1.17
-8 -8 5 12.83 1.4
-7 -8 5 5.72 0.58
-7 -8 5 5.78 0.71
-7 -8 5 5.07 0.89
-6 -8 5 6.62 0.93
-6 -8 5 6.46 0.63
-5 -8 5 24.48 2.5
-4 -8 5 32.49 2.74
-4 -8 5 32.96 3.23
-3 -8 5 134.78 10.71
-2 -8 5 14.14 1.31
-1 -8 5 8.44 0.95
-1 -8 5 6.38 0.76
0 -8 5 60.25 5.51
0 -8 5 58 4.74
1 -8 5 10.22 0.94
1 -8 5 9.22 1.12
-2 8 -5 18.93 1.55
2 -8 5 17.36 1.84
2 -8 5 18.98 1.57
3 -8 5 100.62 9.04
3 -8 5 94.86 7.77
4 -8 5 53.35 4.99
5 -8 5 17.11 1.72
6 -8 5 4.84 0.66
6 -8 5 7.52 0.78
7 -8 5 7.12 0.9
7 -8 5 7.59 0.86
8 -8 5 7.78 0.95
9 -8 5 8.38 1.03
9 -8 5 8.8 1.06
10 -8 5 1.09 0.58
11 -8 5 1.49 0.65
-12 -7 5 1.21 0.56
-11 -7 5 1.86 0.66
-10 -7 5 16.44 1.64
-9 -7 5 10.47 1
-9 -7 5 12.27 1.24
-8 -7 5 16.24 1.62
-8 -7 5 17.84 1.37
-7 -7 5 1.26 0.36
-7 -7 5 1.02 0.59
-7 -7 5 2.02 0.49
-6 -7 5 2.48 0.64
-5 -7 5 24.99 2.54
-4 -7 5 28.34 2.37
-3 -7 5 4.94 0.64
-2 -7 5 45.21 4.2
-2 -7 5 43.96 3.61
-1 -7 5 55.5 4.39
-1 -7 5 53.92 5.1
0 7 -5 0.7 0.32
0 -7 5 0.38 0.34
0 -7 5 0.17 0.4
-1 7 -5 34.91 3.07
1 -7 5 37.61 3.05
1 -7 5 40.97 3.55
-2 7 -5 39.92 3.39
2 -7 5 42.53 3.92
2 -7 5 43.01 3.37
3 -7 5 4.8 0.68
3 -7 5 5.67 0.58
4 -7 5 19.58 1.93
5 -7 5 13.03 1.33
5 -7 5 12.38 1.25
6 -7 5 2.03 0.35
6 -7 5 1.61 0.46
7 -7 5 1.97 0.49
7 -7 5 2.5 0.45
7 -7 5 1.71 0.41
8 -7 5 13.78 1.6
8 -7 5 16.94 1.65
9 -7 5 16.31 1.77
9 -7 5 16.68 1.76
10 -7 5 20.59 1.99
10 -7 5 16.39 1.92
11 -7 5 2.69 0.7
-12 -6 5 2.47 0.64
-11 -6 5 7.5 0.91
-10 -6 5 19.88 1.89
-9 -6 5 12.88 1.35
-8 -6 5 0.79 0.49
-8 -6 5 0.31 0.34
7 6 -5 9.15 1.18
-7 -6 5 10.27 1.25
-7 -6 5 9.51 0.85
6 6 -5 10.97 1.22
-6 -6 5 8.97 1.18
5 6 -5 3.61 0.71
-5 -6 5 6.07 0.64
-5 -6 5 4.24 0.75
4 6 -5 3.88 0.61
-4 -6 5 2.98 0.51
3 6 -5 16.43 1.68
-3 -6 5 16.94 1.46
-2 -6 5 19.54 1.92
-2 -6 5 19.07 1.64
1 6 -5 23.89 2.08
-1 -6 5 25.42 2.38
-1 -6 5 24.9 2.05
0 6 -5 54.03 4.35
0 -6 5 52.72 4.3
0 -6 5 53.99 4.99
-1 6 -5 21.55 1.82
1 -6 5 21.98 1.82
1 -6 5 22.35 2.12
2 -6 5 15.47 1.56
2 -6 5 15.87 1.33
3 -6 5 16.15 1.61
3 -6 5 16.05 1.36
4 -6 5 2.89 0.51
4 -6 5 3.4 0.41
4 -6 5 2.73 0.36
5 -6 5 10.8 1.09
5 -6 5 10.54 1.19
6 -6 5 7.64 0.88
6 -6 5 6.57 0.82
7 -6 5 13.96 1.49
7 -6 5 14.4 1.48
8 -6 5 -0.12 0.39
8 -6 5 0.74 0.46
9 -6 5 13.72 1.41
9 -6 5 10.48 1.42
10 -6 5 6.14 0.83
11 -6 5 7.46 1.02
-13 -5 5 0.74 0.53
-12 -5 5 10.56 1.2
-11 -5 5 0.27 0.55
-10 -5 5 18.05 1.75
9 5 -5 2.49 0.81
-9 -5 5 2.74 0.57
8 5 -5 1.9 0.74
-8 -5 5 2.97 0.54
7 5 -5 10.76 1.38
-7 -5 5 10.52 1.29
6 5 -5 1.19 0.56
-6 -5 5 0.82 0.52
5 5 -5 1.41 0.55
-5 -5 5 0.95 0.45
4 5 -5 41.73 3.94
-4 -5 5 40.23 3.32
3 5 -5 17.38 1.75
-3 -5 5 17.44 1.5
2 5 -5 4.68 0.59
-2 -5 5 5.36 0.59
-2 -5 5 5.71 0.69
1 5 -5 35.5 2.99
-1 -5 5 36.74 2.95
-1 -5 5 37.07 3.42
0 5 -5 7.43 0.73
0 -5 5 7.15 0.74
0 -5 5 6.61 0.86
1 -5 5 38.9 3.15
1 -5 5 39.45 3.67
2 -5 5 2.38 0.46
2 -5 5 2.61 0.38
3 -5 5 29.49 2.84
3 -5 5 31.06 2.43
3 -5 5 29.41 2.82
4 -5 5 22.9 2.23
4 -5 5 22.61 1.88
4 -5 5 23.11 2.19
5 -5 5 1.1 0.43
5 -5 5 1.11 0.33
6 -5 5 3.86 0.61
6 -5 5 3.19 0.51
7 -5 5 4.3 0.67
7 -5 5 4.53 0.61
8 -5 5 4.76 0.82
8 -5 5 6.02 0.8
8 -5 5 7.32 0.83
9 -5 5 8.92 1.03
9 -5 5 7.06 0.96
10 -5 5 12.01 1.56
10 -5 5 14.58 1.57
11 -5 5 0.63 0.63
-13 5 -5 2.03 0.56
-13 -4 5 2.44 0.59
-12 -4 5 0.07 0.55
-11 -4 5 9.78 1.07
10 4 -5 -0.54 0.79
-10 -4 5 0.45 0.56
9 4 -5 12.69 1.63
-9 -4 5 11.33 1.23
8 4 -5 4.65 0.88
-8 -4 5 4.79 0.68
7 4 -5 49.7 4.82
6 4 -5 4.96 0.74
-6 -4 5 2.96 0.64
5 4 -5 0.36 0.55
-5 -4 5 0.68 0.39
4 4 -5 10.16 1.19
-4 -4 5 10.26 0.97
3 4 -5 5.18 0.7
-3 -4 5 6.46 0.67
2 4 -5 78.39 6.46
2 4 -5 80.92 7.49
-2 -4 5 81 7.36
-2 -4 5 78.4 6.34
1 4 -5 54.24 4.51
-1 -4 5 55.54 4.43
-1 -4 5 56.7 5.15
0 4 -5 200.57 16.2
0 -4 5 205.72 18.51
0 -4 5 197.41 15.93
1 -4 5 54.95 5.05
1 -4 5 53.95 4.35
2 -4 5 79.61 6.25
2 -4 5 77.91 7.36
2 -4 5 78.3 7.26
3 -4 5 10.24 1.13
3 -4 5 10.94 0.94
3 -4 5 10.3 1.04
4 -4 5 17.38 1.69
4 -4 5 16.65 1.72
4 -4 5 18.03 1.46
5 -4 5 0.07 0.33
5 -4 5 0.21 0.34
6 -4 5 15.25 1.53
6 -4 5 14.2 1.52
7 -4 5 70.69 6.93
7 -4 5 77.92 7.04
8 -4 5 5.91 0.78
8 -4 5 5.98 0.75
8 -4 5 4.31 0.77
9 -4 5 10.38 1.26
9 -4 5 9.27 1.19
10 -4 5 -0.39 0.55
10 -4 5 -0.04 0.57
11 -4 5 5.4 0.85
-13 4 -5 1.02 0.58
-13 -3 5 4.22 0.66
-12 -3 5 3.77 0.65
11 3 -5 -0.84 0.85
-11 -3 5 0.98 0.56
10 3 -5 7.11 1.24
-10 -3 5 7.51 0.87
9 3 -5 22.35 2.33
-9 -3 5 19.69 1.92
8 3 -5 8 1.17
-8 -3 5 8.98 0.92
7 3 -5 4.46 0.82
6 3 -5 1.91 0.61
-6 -3 5 1.46 0.53
5 3 -5 1.74 0.58
-5 -3 5 1.15 0.32
4 3 -5 46.7 4.38
-4 -3 5 44.95 3.67
3 3 -5 13.42 1.39
-3 -3 5 12.84 1.16
2 3 -5 12.61 1.16
2 3 -5 12.34 1.3
-2 -3 5 12.54 1.12
1 3 -5 18.11 1.63
-1 -3 5 20.06 2.47
-1 -3 5 19.28 1.6
0 -3 5 29.84 3.68
0 -3 5 29.35 2.41
1 -3 5 33.55 2.77
1 -3 5 33.72 3.22
1 -3 5 35.65 4.22
2 -3 5 13.31 1.3
2 -3 5 13.51 1.18
2 -3 5 12.65 1.34
2 -3 5 13.8 1.75
3 -3 5 20.33 1.99
3 -3 5 21.01 2.57
3 -3 5 20 1.71
3 -3 5 21.02 1.98
4 -3 5 21.09 1.74
5 -3 5 0.6 0.37
5 -3 5 0.37 0.38
5 -3 5 0.15 0.32
6 -3 5 4.63 0.72
6 -3 5 5.95 0.73
7 -3 5 7.26 0.94
7 -3 5 6.65 0.87
8 -3 5 8.41 1.01
8 -3 5 7.27 1.01
8 -3 5 8.09 1.03
9 -3 5 16.51 1.66
9 -3 5 15.38 1.73
9 -3 5 13.54 1.68
10 -3 5 4.25 0.72
10 -3 5 1.73 0.74
-13 3 -5 3.06 0.67
-13 -2 5 0.23 0.48
-12 -2 5 0.72 0.51
11 2 -5 0.52 0.87
-11 -2 5 1.89 0.56
10 2 -5 1.83 0.89
-10 -2 5 3.02 0.61
9 2 -5 0.77 0.76
-9 -2 5 0.6 0.52
8 2 -5 0.52 0.67
7 2 -5 1.97 0.64
6 2 -5 3.02 0.67
5 2 -5 14.22 1.59
4 2 -5 32.97 3.13
-4 -2 5 31.83 2.61
-3 -2 5 20.54 2.63
2 2 -5 86.82 7.06
2 2 -5 87.83 8.21
-2 -2 5 87.44 10.55
1 2 -5 780.79 63.74
1 2 -5 791.77 74.19
-1 -2 5 809.55 95.32
0 -2 5 393.35 47.25
1 -2 5 748.87 89.89
2 -2 5 110.63 10.19
2 -2 5 114.49 13.33
2 -2 5 106.82 10.37
3 -2 5 41.26 4.97
3 -2 5 43.03 3.83
3 -2 5 38.56 3.87
4 -2 5 36.66 3.55
4 -2 5 39.65 3.52
4 -2 5 35.86 4.53
5 -2 5 9.67 1.11
5 -2 5 9.69 1.17
6 -2 5 13.74 1.49
6 -2 5 13.16 1.46
7 -2 5 3.62 0.63
7 -2 5 3.07 0.65
8 -2 5 0.93 0.52
8 -2 5 0.87 0.55
9 -2 5 3.58 0.64
9 -2 5 2.23 0.69
9 -2 5 3.89 0.78
10 -2 5 0.7 0.55
10 -2 5 0.21 0.72
11 -2 5 4.12 0.98
-13 2 -5 -0.47 0.6
-13 -1 5 -0.11 0.45
-12 -1 5 2.87 0.57
11 1 -5 16.28 1.85
-11 -1 5 12.81 1.41
10 1 -5 1.16 0.86
-10 -1 5 2.1 0.55
9 1 -5 13.64 1.64
-9 -1 5 12.8 1.28
8 1 -5 19.87 2.18
7 1 -5 3.26 0.71
6 1 -5 11.63 1.43
5 1 -5 1.82 0.6
4 1 -5 89.36 8.14
-4 -1 5 83.39 10.43
3 1 -5 1.57 0.41
-3 -1 5 1.12 0.45
2 1 -5 116.4 9.38
2 1 -5 116.31 10.91
1 1 -5 16.74 1.68
-1 -1 5 16.85 2.15
0 1 -5 3.36 0.46
0 -1 5 2.65 0.51
1 -1 5 20.6 2.59
2 -1 5 142.86 18.21
2 -1 5 160 14.18
3 -1 5 0.06 0.32
3 -1 5 0.36 0.31
4 -1 5 60.28 5.31
4 -1 5 52.17 6.78
5 -1 5 1.02 0.46
6 -1 5 20.26 2.08
7 -1 5 14.98 1.53
7 -1 5 11.6 1.48
8 -1 5 26.01 2.66
8 -1 5 25.97 2.62
9 -1 5 2.54 0.73
9 -1 5 2 0.64
10 -1 5 0.69 0.79
10 -1 5 0.28 0.65
11 -1 5 8.69 1.31
-12 1 -5 1.66 0.68
-13 1 -5 -0.28 0.64
-12 0 5 0.28 0.46
11 0 -5 -0.85 0.83
-11 0 5 1.71 0.54
10 0 -5 1.07 0.87
-10 0 5 -0.43 0.51
9 0 -5 4.98 1
-9 0 5 4.71 0.69
8 0 -5 7.19 1.06
7 0 -5 6.97 0.99
6 0 -5 1.3 0.6
5 0 -5 6.08 0.85
4 0 -5 14.03 1.49
-4 0 5 13.8 1.86
3 0 -5 7.26 0.87
-3 0 5 5.83 1.03
2 0 -5 0.5 0.37
2 0 -5 0.76 0.4
-2 0 5 0.38 0.39
1 0 -5 9.54 1.24
-1 0 5 13.69 1.58
0 0 -5 0.05 0.42
0 0 5 1.21 0.43
-1 0 -5 18.25 1.92
1 0 5 20.31 2.5
-2 0 -5 1.53 0.4
2 0 5 1.64 0.51
-3 0 -5 7.51 0.89
3 0 5 7.59 0.9
3 0 5 7.51 1.23
-4 0 -5 15.94 1.67
4 0 5 15.95 2.12
4 0 5 17.23 1.68
5 0 5 2.82 0.57
6 0 5 0.47 0.54
7 0 5 3.17 0.69
8 0 5 11.24 1.4
8 0 5 9.83 1.29
9 0 5 0.87 0.72
9 0 5 3.15 0.81
10 0 5 -0.57 0.68
10 0 5 0.29 0.82
11 0 5 1.83 0.96
-12 0 -5 -0.2 0.67
-13 0 -5 2.91 0.72
10 -1 -5 1.89 0.92
9 -1 -5 0.22 0.75
8 -1 -5 -0.32 0.65
7 -1 -5 1.45 0.61
6 -1 -5 20.75 2.16
5 -1 -5 12.37 1.44
4 -1 -5 25.29 2.32
-4 1 5 21.62 2.9
3 -1 -5 0.23 0.43
-3 1 5 0.06 0.38
2 -1 -5 42.34 4.14
2 -1 -5 43.31 3.55
-2 1 5 44.9 5.31
0 -1 -5 14.36 1.6
0 1 5 16.66 2.11
-1 -1 -5 0.55 0.37
-2 -1 -5 37.76 3.61
-3 -1 -5 0.07 0.4
3 1 5 -0.04 0.4
-4 -1 -5 21.38 2.1
4 1 5 19.91 2.72
4 1 5 21.67 2.12
5 1 5 18.92 1.98
7 1 5 0.69 0.59
8 1 5 1.27 0.7
9 1 5 2.35 0.82
9 1 5 0.67 0.74
10 1 5 -0.09 0.75
10 1 5 -1 0.82
11 1 5 -0.31 0.69
-12 -1 -5 -0.78 0.66
-13 -1 -5 1.9 0.68
10 -2 -5 2.46 0.94
9 -2 -5 1.18 0.8
8 -2 -5 0.68 0.67
7 -2 -5 0.76 0.62
6 -2 -5 14.08 1.62
5 -2 -5 1.28 0.59
4 -2 -5 19.54 1.84
-4 2 5 15.95 2.28
3 -2 -5 17.61 1.75
-3 2 5 16.18 2.2
2 -2 -5 8.48 1.02
2 -2 -5 7.96 0.79
-2 2 5 7.87 1.33
1 -2 -5 13.33 1.45
0 -2 -5 38.58 3.68
-1 -2 -5 23.97 2.34
-2 -2 -5 11.82 1.28
-3 -2 -5 13.49 1.51
3 2 5 14.94 1.51
-4 -2 -5 8.06 1.18
4 2 5 11.52 1.23
-5 -2 -5 0.21 0.55
5 2 5 -0.07 0.63
5 2 5 0.42 0.59
6 2 5 11.1 1.41
7 2 5 2.18 0.68
8 2 5 0.96 0.73
9 2 5 3.91 0.93
10 2 5 0.36 0.85
10 2 5 -0.65 0.84
-11 -2 -5 2.07 0.72
11 2 5 0.69 0.83
-12 -2 -5 3.63 0.79
11 -3 -5 0.33 0.6
10 -3 -5 10.28 1.43
9 -3 -5 3.48 0.94
8 -3 -5 1.22 0.73
6 -3 -5 29.9 2.98
5 -3 -5 4.56 0.75
4 -3 -5 97.39 8.84
-4 3 5 90.06 11.32
3 -3 -5 1.96 0.53
-3 3 5 1.54 0.55
2 -3 -5 58.13 5.07
2 -3 -5 68.01 5.95
1 -3 -5 14.42 1.53
0 -3 -5 4.21 0.59
-1 -3 -5 14.43 1.51
-2 -3 -5 50.81 4.84
-3 -3 -5 3.22 0.63
-4 -3 -5 77.42 7.49
4 3 5 80.76 7.5
-5 -3 -5 0.78 0.62
5 3 5 1.3 0.64
6 3 5 42.95 4.21
7 3 5 20.27 2.23
8 3 5 0.36 0.77
9 3 5 0.59 0.85
-10 -3 -5 0.39 0.61
10 3 5 0.53 0.88
-11 -3 -5 2.82 0.75
11 3 5 1.79 0.86
-12 -3 -5 2.94 0.73
12 -4 -5 2.08 0.58
11 -4 -5 0.15 0.6
10 -4 -5 4.1 0.98
9 -4 -5 0.39 0.76
8 -4 -5 0.98 0.69
7 -4 -5 16.41 1.85
6 -4 -5 10.44 1.34
5 -4 -5 23.49 2.4
4 -4 -5 14.79 1.65
-4 4 5 14.29 2.09
3 -4 -5 2.99 0.66
2 -4 -5 0.96 0.57
1 -4 -5 15.85 1.64
0 -4 -5 14.4 1.52
-1 -4 -5 11.27 1.28
-2 -4 -5 0.97 0.53
-3 -4 -5 16.37 1.79
-4 -4 -5 4.05 0.74
6 4 5 6.47 0.99
7 4 5 6.42 1.01
8 4 5 -0.4 0.77
9 4 5 -1.15 0.82
-10 -4 -5 1.72 0.67
10 4 5 1.03 0.96
-11 -4 -5 -1.1 0.65
11 4 5 -0.27 0.79
-12 -4 -5 0.65 0.65
12 -5 -5 1.79 0.57
11 -5 -5 0.93 0.62
10 -5 -5 6.4 1.04
10 -5 -5 4.39 0.93
9 -5 -5 13.37 1.63
8 -5 -5 1.32 0.71
7 -5 -5 4.09 0.81
6 -5 -5 3.92 0.71
5 -5 -5 43.85 4.24
4 -5 -5 0.32 0.57
-4 5 5 0.28 0.64
3 -5 -5 3.42 0.71
2 -5 -5 6.71 0.95
1 -5 -5 8.78 1.09
0 -5 -5 3.27 0.62
-1 -5 -5 11.91 1.38
-2 -5 -5 7.63 0.99
-3 -5 -5 0.01 0.59
-4 -5 -5 0.81 0.62
-5 -5 -5 43.95 4.3
-6 -5 -5 19.51 2.14
-8 -5 -5 2.69 0.59
-9 -5 -5 1.84 0.6
-10 -5 -5 4.95 0.81
-11 -5 -5 0.75 0.66
11 5 5 0.49 0.94
-12 -5 -5 0.71 0.63
12 -6 -5 0.36 0.49
11 -6 -5 2.67 0.69
10 -6 -5 2.54 0.75
9 -6 -5 5.14 0.96
9 -6 -5 3.86 0.92
8 -6 -5 2.89 0.76
8 -6 -5 1.93 0.75
7 -6 -5 0.18 0.62
7 -6 -5 1.63 0.66
6 -6 -5 5.66 0.88
5 -6 -5 6.1 0.88
4 -6 -5 19.87 2
-4 6 5 17.49 2.64
3 -6 -5 14 1.59
2 -6 -5 118.46 11.16
1 -6 -5 13.74 1.52
0 -6 -5 13.49 1.52
-1 -6 -5 11.97 1.42
-2 -6 -5 83.86 7.95
-3 -6 -5 14.54 1.69
-4 -6 -5 14.33 1.7
-5 -6 -5 2.75 0.73
-5 -6 -5 1.46 0.47
-6 -6 -5 1.35 0.75
-7 -6 -5 5.04 0.68
-9 -6 -5 0.83 0.61
-10 -6 -5 6.99 0.91
-11 -6 -5 0.18 0.6
-12 -6 -5 0.66 0.54
11 -7 -5 0.84 0.59
10 -7 -5 3.14 0.8
9 -7 -5 5.28 0.96
9 -7 -5 5.45 1
8 -7 -5 14.24 1.88
8 -7 -5 15.52 1.77
7 -7 -5 1.25 0.67
7 -7 -5 2.35 0.72
6 -7 -5 10.38 1.37
6 -7 -5 11.33 1.38
5 -7 -5 0.58 0.56
5 -7 -5 0.64 0.53
4 -7 -5 26.93 2.71
3 -7 -5 5.47 0.86
2 -7 -5 3.16 0.72
1 -7 -5 1.29 0.56
0 -7 -5 0.39 0.57
-1 -7 -5 3.56 0.7
-2 -7 -5 4.33 0.8
-3 -7 -5 5.04 0.86
-3 -7 -5 4.9 0.71
-4 -7 -5 17.03 1.97
-4 -7 -5 19.14 2
-5 -7 -5 1.72 0.48
-5 -7 -5 1.57 0.76
-6 -7 -5 8.06 1.17
-6 -7 -5 7.65 1.07
-7 -7 -5 1.06 0.63
-8 -7 -5 11.94 1.28
-9 -7 -5 0.51 0.6
-10 -7 -5 5.34 0.83
-10 -7 -5 6.22 0.66
-11 -7 -5 -0.28 0.53
11 -8 -5 0.1 0.52
10 -8 -5 0.69 0.64
9 -8 -5 3.3 0.81
8 -8 -5 4.59 0.96
8 -8 -5 5.99 0.94
7 -8 -5 0.18 0.64
7 -8 -5 0.96 0.66
6 -8 -5 -0.55 0.57
6 -8 -5 -0.32 0.58
5 -8 -5 2.66 0.65
5 -8 -5 1.76 0.65
4 -8 -5 10.93 1.32
4 -8 -5 9.49 1.32
3 -8 -5 8.96 1.13
2 -8 -5 15.81 1.76
1 -8 -5 15.74 1.7
0 -8 -5 102.62 9.69
-1 -8 -5 15.43 1.74
-1 -8 -5 17 1.76
-2 -8 -5 14.67 1.7
-2 -8 -5 16.19 1.73
-3 -8 -5 7.73 1.11
-3 -8 -5 8.51 1.09
-4 -8 -5 9.84 1.24
-4 -8 -5 9.15 1.18
-5 -8 -5 1.69 0.77
-5 -8 -5 1.77 0.53
-5 -8 -5 0.76 0.5
-6 -8 -5 0.39 0.74
-6 -8 -5 0.32 0.52
-7 -8 -5 3.94 0.83
-8 -8 -5 1.2 0.62
-9 -8 -5 0.06 0.54
-9 -8 -5 -0.29 0.66
-10 -8 -5 3.3 0.52
-10 -8 -5 2.72 0.62
-11 -8 -5 2.56 0.55
10 -9 -5 0.21 0.58
9 -9 -5 0.87 0.7
8 -9 -5 15.99 1.92
8 -9 -5 17.79 2.06
7 -9 -5 5.9 1.01
7 -9 -5 6.25 0.96
6 -9 -5 0.48 0.63
6 -9 -5 0.93 0.64
5 -9 -5 2.6 0.66
5 -9 -5 1.68 0.67
4 -9 -5 1.77 0.66
4 -9 -5 1.39 0.6
3 -9 -5 6.18 0.89
3 -9 -5 5.42 0.89
2 -9 -5 8.32 0.95
1 -9 -5 8.2 0.99
1 -9 -5 8.49 1.04
0 -9 -5 0.02 0.56
0 -9 -5 0.1 0.39
-1 -9 -5 7.6 0.95
-1 -9 -5 6.47 0.98
-2 -9 -5 12.84 1.53
-2 -9 -5 14.81 1.6
-3 -9 -5 5.23 0.64
-3 -9 -5 4.6 0.71
-3 -9 -5 4.5 0.85
-4 -9 -5 2.96 0.57
-4 -9 -5 2.54 0.76
-4 -9 -5 2.38 0.53
-5 -9 -5 1.25 0.73
-5 -9 -5 1.72 0.57
-5 -9 -5 1.46 0.54
-6 -9 -5 -0.02 0.69
-6 -9 -5 -0.34 0.58
-7 -9 -5 5.07 0.89
-8 -9 -5 16.02 1.92
-9 -9 -5 3.86 0.84
-10 -9 -5 3.78 0.54
10 -10 -5 0.2 0.55
9 -10 -5 -0.78 0.63
8 -10 -5 0.9 0.71
7 -10 -5 5.72 0.92
7 -10 -5 5.18 0.99
6 -10 -5 2.5 0.71
6 -10 -5 1.88 0.73
5 -10 -5 1.4 0.67
5 -10 -5 1.86 0.65
4 -10 -5 1.84 0.64
4 -10 -5 1.75 0.68
3 -10 -5 4.45 0.83
3 -10 -5 4.04 0.75
2 -10 -5 7 0.96
2 -10 -5 7.14 1.05
1 -10 -5 2.66 0.65
0 -10 -5 15.17 1.98
0 -10 -5 18.2 1.94
0 -10 -5 19.99 1.93
-1 -10 -5 9.81 1.23
-1 -10 -5 12 1.38
-2 -10 -5 1.3 0.46
-2 -10 -5 1.75 0.45
-2 -10 -5 0.76 0.66
-3 -10 -5 1.93 0.54
-3 -10 -5 2.17 0.54
-3 -10 -5 2.44 0.72
-4 -10 -5 0.06 0.64
-4 -10 -5 0.22 0.48
-4 -10 -5 0.21 0.53
-5 -10 -5 6.45 0.91
-5 -10 -5 3.78 0.92
-5 -10 -5 4.86 0.73
-6 -10 -5 1.07 0.55
-6 -10 -5 0.88 0.75
-6 -10 -5 1.55 0.63
-7 -10 -5 3.49 0.76
-8 -10 -5 7.95 1.18
-9 -10 -5 -0.06 0.62
-9 -10 -5 -0.41 0.46
-10 -10 -5 0.33 0.43
9 -11 -5 1.33 0.64
8 -11 -5 7.24 1.11
7 -11 -5 0 0.65
6 -11 -5 -0.1 0.65
6 -11 -5 0.12 0.59
5 -11 -5 3.68 0.76
5 -11 -5 3.63 0.8
4 -11 -5 0.98 0.68
4 -11 -5 1.35 0.6
3 -11 -5 12.26 1.53
2 -11 -5 0.12 0.47
2 -11 -5 0 0.69
1 -11 -5 14.71 1.85
1 -11 -5 19.3 1.85
0 -11 -5 3.48 0.72
0 -11 -5 3.28 0.49
0 -11 -5 1.86 0.58
-1 -11 -5 17.32 2
-1 -11 -5 18.55 1.97
-2 -11 -5 0.44 0.48
-2 -11 -5 -0.72 0.64
-2 -11 -5 0.45 0.48
-3 -11 -5 23.53 2.24
-3 -11 -5 26.35 2.77
-3 -11 -5 27.49 2.7
-4 -11 -5 5.08 0.73
-4 -11 -5 5.57 0.85
-4 -11 -5 3.66 0.9
-5 -11 -5 5.62 0.77
-5 -11 -5 5.55 1.02
-6 -11 -5 0.46 0.65
-6 -11 -5 -0.28 0.72
-6 -11 -5 0.64 0.57
-7 -11 -5 6.22 1.05
-8 -11 -5 1.36 0.68
-9 -11 -5 -0.01 0.45
9 -12 -5 0.32 0.51
8 -12 -5 -0.12 0.57
7 -12 -5 0.02 0.62
6 -12 -5 2.25 0.69
5 -12 -5 3.76 0.78
5 -12 -5 2.91 0.76
4 -12 -5 7.61 1.05
4 -12 -5 6.8 1.05
3 -12 -5 1.21 0.67
3 -12 -5 -0.17 0.5
2 -12 -5 0.3 0.49
2 -12 -5 2.45 0.76
1 -12 -5 4.14 0.83
1 -12 -5 2.37 0.62
0 -12 -5 12.92 1.64
0 -12 -5 16.82 1.68
-1 -12 -5 3.26 0.53
-1 -12 -5 1.22 0.73
-2 -12 -5 7.05 1.16
-2 -12 -5 9.11 1.05
-2 -12 -5 7.94 0.93
-3 -12 -5 7.79 1.19
-3 -12 -5 5.72 0.89
-3 -12 -5 9.82 1.08
-4 -12 -5 3.69 0.71
-4 -12 -5 2.67 0.66
-4 -12 -5 1.52 0.8
-5 -12 -5 3.45 0.71
-5 -12 -5 5.63 0.86
-5 -12 -5 3.8 0.91
-6 -12 -5 2.83 0.76
-6 -12 -5 1.08 0.6
-7 -12 -5 0.32 0.7
-8 -12 -5 6.04 0.71
8 -13 -5 3.19 0.67
7 -13 -5 0.24 0.55
6 -13 -5 2.98 0.72
5 -13 -5 0.23 0.56
4 -13 -5 2.11 0.64
3 -13 -5 2.73 0.72
3 -13 -5 0.8 0.58
2 -13 -5 -0.1 0.54
2 -13 -5 0.59 0.72
1 -13 -5 0.1 0.5
1 -13 -5 0.33 0.76
0 -13 -5 0.91 0.74
0 -13 -5 -0.33 0.48
-1 -13 -5 -0.03 0.53
-1 -13 -5 0.42 0.67
-2 -13 -5 3.7 0.88
-2 -13 -5 3.36 0.69
-3 -13 -5 9.51 1.1
-3 -13 -5 10.88 1.41
-3 -13 -5 11.08 1.33
-4 -13 -5 0.34 0.59
-4 -13 -5 0.93 0.61
-5 -13 -5 1.89 0.67
-5 -13 -5 1.53 0.6
-6 -13 -5 -0.14 0.55
-7 -13 -5 0.88 0.5
7 -14 -5 0.31 0.53
6 -14 -5 -0.17 0.55
5 -14 -5 0.45 0.56
4 -14 -5 0.24 0.54
3 -14 -5 1.08 0.56
2 -14 -5 0.53 0.52
1 -14 -5 0.81 0.51
0 -14 -5 6.54 0.73
0 -14 -5 3.99 0.8
-1 -14 -5 0.75 0.57
-2 -14 -5 7.15 0.85
-3 -14 -5 0.99 0.58
-4 -14 -5 2.39 0.63
-5 -14 -5 1.28 0.58
-6 -14 -5 1.41 0.53
-6 -14 -5 1.72 0.5
5 -15 -5 0.83 0.52
4 -15 -5 1.08 0.52
3 -15 -5 -0.39 0.47
2 -15 -5 0.86 0.49
1 -15 -5 5.5 0.92
1 -15 -5 8.84 0.81
0 -15 -5 0.19 0.53
-1 -15 -5 2.81 0.57
-2 -15 -5 -0.46 0.52
-2 -15 -5 0.01 0.41
-3 -15 -5 0.72 0.42
-3 -15 -5 0.26 0.54
-4 -15 -5 3.84 0.68
-4 -15 -5 4.91 0.59
-5 -15 -5 2.2 0.58
-5 -15 -5 2.53 0.48
3 -16 -5 1.63 0.4
3 -16 -5 0.1 0.46
2 -16 -5 -0.14 0.43
2 -16 -5 -0.1 0.42
1 -16 -5 0.8 0.5
1 -16 -5 2.25 0.5
0 -16 -5 2.45 0.5
-1 -16 -5 1.6 0.51
-2 -16 -5 0.11 0.48
-3 -16 -5 3.08 0.47
-3 -16 -5 3.18 0.57
-3 -19 6 4.98 0.92
-3 -19 6 4.83 0.59
-2 -19 6 6.09 0.63
-2 -19 6 5.07 0.98
-1 -19 6 4 0.48
-1 -19 6 2.9 0.85
0 -19 6 -0.04 0.28
0 -19 6 -0.59 0.62
1 -19 6 2.96 0.39
1 -19 6 2.91 0.76
2 -19 6 6.82 1.01
2 -19 6 5.59 0.91
3 -19 6 4.92 0.87
3 -19 6 4.59 0.78
-5 -18 6 4.11 0.83
-4 -18 6 0.84 0.67
-4 -18 6 1.16 0.44
-4 -18 6 1.16 0.41
-3 -18 6 0.47 0.42
-3 -18 6 0.8 0.42
-2 -18 6 1.21 0.41
-1 -18 6 0.33 0.33
0 -18 6 10.84 1.03
0 -18 6 12.53 1.57
1 -18 6 0.03 0.28
1 -18 6 -0.87 0.69
1 -18 6 -0.27 0.59
2 -18 6 1.51 0.63
2 -18 6 0.88 0.68
3 -18 6 1.24 0.62
3 -18 6 1.21 0.59
4 -18 6 0.52 0.59
4 -18 6 1.65 0.59
5 -18 6 3.4 0.68
-6 -17 6 5.84 0.66
-5 -17 6 0.53 0.42
-5 -17 6 0.38 0.46
-4 -17 6 6.1 0.65
-4 -17 6 3.54 0.57
-3 -17 6 0.29 0.43
-3 -17 6 0.25 0.4
-2 -17 6 2.34 0.45
-2 -17 6 2.51 0.49
-1 -17 6 9.53 0.92
0 -17 6 3.71 0.49
0 -17 6 5.37 0.85
1 -17 6 10.76 1.51
1 -17 6 11.8 1.03
2 -17 6 2.25 0.74
2 -17 6 2.97 0.71
3 -17 6 0.25 0.62
3 -17 6 0.43 0.59
4 -17 6 8.09 1.09
4 -17 6 8.27 1.15
5 -17 6 0.43 0.5
6 -17 6 6.77 0.98
-8 -16 6 0.36 0.42
-7 -16 6 5.46 0.62
-6 -16 6 6.99 0.72
-5 -16 6 1.81 0.51
-5 -16 6 1.61 0.48
-4 -16 6 1.21 0.44
-4 -16 6 1.69 0.49
-3 -16 6 5.17 0.96
-3 -16 6 7.35 0.74
-3 -16 6 6.63 0.68
-2 -16 6 -0.21 0.39
-2 -16 6 0.22 0.53
-2 -16 6 0.86 0.38
-1 -16 6 11.28 1.39
-1 -16 6 8.18 1.08
-1 -16 6 8.1 0.86
0 -16 6 16.51 1.87
0 -16 6 20.47 2.13
0 -16 6 18.09 1.56
1 -16 6 8.75 1.17
1 -16 6 7.18 0.75
2 -16 6 0.02 0.67
2 -16 6 0.75 0.57
3 -16 6 6.39 0.94
3 -16 6 6.86 1.05
4 -16 6 1.94 0.61
4 -16 6 0.91 0.54
5 -16 6 1.89 0.56
6 -16 6 7.25 1.03
7 -16 6 3.55 0.63
8 -16 6 0.11 0.4
8 -16 6 -0.43 0.55
-8 -15 6 3.95 0.53
-8 -15 6 2.65 0.6
-7 -15 6 0.27 0.45
-6 -15 6 10.02 1
-5 -15 6 0.19 0.47
-5 -15 6 0.57 0.46
-4 -15 6 11.24 1.16
-4 -15 6 13.24 1.48
-4 -15 6 11 1.07
-3 -15 6 17.39 1.56
-3 -15 6 18.13 1.43
-3 -15 6 17.11 1.94
-2 -15 6 3.53 0.8
-2 -15 6 5.61 0.58
-2 -15 6 5.32 0.58
-1 -15 6 0.95 0.63
-1 -15 6 1.34 0.35
-1 -15 6 0.7 0.52
0 -15 6 2.08 0.63
0 -15 6 1.68 0.5
0 -15 6 1.91 0.34
1 -15 6 1.08 0.56
1 -15 6 0.73 0.27
1 -15 6 0.25 0.39
2 -15 6 5.73 0.85
3 -15 6 18.03 1.93
3 -15 6 15.63 2.07
4 -15 6 11.38 1.56
4 -15 6 11.8 1.42
5 -15 6 0.4 0.46
6 -15 6 10.61 1.23
6 -15 6 8.84 1.18
7 -15 6 0.7 0.52
7 -15 6 1.09 0.45
8 -15 6 2.53 0.61
8 -15 6 1.51 0.48
-9 -14 6 2.99 0.66
-9 -14 6 4.43 0.57
-8 -14 6 2.07 0.5
-8 -14 6 1.73 0.61
-7 -14 6 6.63 0.89
-7 -14 6 7 0.74
-6 -14 6 1.01 0.46
-6 -14 6 -0.12 0.55
-6 -14 6 -0.32 0.64
-6 -14 6 -0.13 0.51
-5 -14 6 0.74 0.44
-5 -14 6 0.84 0.7
-5 -14 6 0.66 0.47
-4 -14 6 7.45 1.12
-4 -14 6 7.95 0.78
-4 -14 6 8.54 0.84
-3 -14 6 11.13 1.02
-3 -14 6 10.4 0.97
-3 -14 6 9.91 1.33
-2 -14 6 8.52 0.74
-2 -14 6 7.53 1
-2 -14 6 7.21 0.79
-1 -14 6 1.18 0.32
-1 -14 6 1.53 0.37
-1 -14 6 1.88 0.6
-1 -14 6 1.46 0.49
0 -14 6 1.71 0.48
0 -14 6 2.19 0.33
0 -14 6 2.52 0.59
1 -14 6 1.13 0.39
1 -14 6 1.26 0.51
1 -14 6 0.84 0.27
3 -14 6 11.53 1.4
3 -14 6 11.74 1.53
4 -14 6 5.23 0.86
4 -14 6 5.2 0.75
5 -14 6 0.97 0.45
5 -14 6 0.98 0.47
6 -14 6 0.16 0.5
6 -14 6 0.82 0.43
7 -14 6 5.82 0.76
7 -14 6 4.6 0.73
8 -14 6 1.2 0.55
8 -14 6 0.24 0.41
9 -14 6 4.02 0.75
-10 -13 6 2.18 0.58
-10 -13 6 2.45 0.46
-9 -13 6 0.3 0.55
-9 -13 6 0.97 0.44
-8 -13 6 1.42 0.49
-8 -13 6 1.56 0.6
-7 -13 6 2.22 0.61
-7 -13 6 1.74 0.5
-7 -13 6 2.15 0.78
-6 -13 6 -0.09 0.66
-6 -13 6 0.31 0.47
-6 -13 6 0.54 0.55
-6 -13 6 -0.48 0.43
-5 -13 6 3.55 0.54
-5 -13 6 2.89 0.5
-5 -13 6 2.69 0.76
-5 -13 6 2.56 0.6
-4 -13 6 1.94 0.54
-4 -13 6 1.62 0.65
-4 -13 6 2.02 0.43
-4 -13 6 2.09 0.45
-3 -13 6 21.34 1.61
-3 -13 6 20.07 1.77
-3 -13 6 20.68 2.15
-2 -13 6 4.88 0.8
-2 -13 6 4.42 0.52
-2 -13 6 3.31 0.68
-2 -13 6 4.59 0.51
-1 -13 6 1.03 0.44
-1 -13 6 0.97 0.34
-1 -13 6 1.28 0.53
-1 -13 6 1.73 0.3
0 -13 6 1.07 0.26
0 -13 6 0.78 0.47
0 -13 6 0.77 0.38
1 -13 6 1.14 0.35
1 -13 6 1.34 0.46
2 -13 6 5.32 0.74
2 -13 6 4.92 0.76
3 -13 6 15.98 1.97
3 -13 6 15.73 1.73
3 -13 6 17.33 1.82
4 -13 6 2.29 0.56
4 -13 6 1.2 0.45
4 -13 6 1.65 0.58
4 -13 6 1.37 0.45
5 -13 6 1.95 0.48
5 -13 6 2.08 0.49
6 -13 6 0.57 0.48
6 -13 6 0.34 0.41
7 -13 6 0.99 0.47
7 -13 6 2 0.54
8 -13 6 2.91 0.63
9 -13 6 0.68 0.55
10 -13 6 1.11 0.61
-10 -12 6 3.47 0.53
-10 -12 6 3.86 0.65
-9 -12 6 3.59 0.56
-9 -12 6 4.11 0.7
-8 -12 6 5.65 0.83
-8 -12 6 8.32 0.75
-8 -12 6 4.79 1.04
-7 -12 6 0.91 0.75
-7 -12 6 2.88 0.61
-7 -12 6 1.18 0.48
-6 -12 6 1.35 0.46
-6 -12 6 0.78 0.66
-6 -12 6 0.45 0.55
-6 -12 6 0.84 0.43
-5 -12 6 0.56 0.51
-5 -12 6 -0.09 0.59
-5 -12 6 0.78 0.38
-5 -12 6 -0.18 0.39
-4 -12 6 4.62 0.68
-4 -12 6 5.13 0.83
-4 -12 6 5.87 0.61
-4 -12 6 4.87 0.57
-3 -12 6 0.27 0.34
-3 -12 6 0.12 0.31
-3 -12 6 0.75 0.51
-2 -12 6 2.93 0.59
-2 -12 6 2.75 0.65
-2 -12 6 4.01 0.68
-2 -12 6 3.16 0.45
-2 -12 6 3.28 0.43
-1 -12 6 6.31 0.79
-1 -12 6 6.51 0.84
-1 -12 6 5.95 0.59
0 -12 6 17.92 1.81
0 -12 6 17.3 1.86
0 -12 6 19.39 1.63
1 -12 6 3.68 0.52
1 -12 6 3.89 0.67
1 -12 6 4.77 0.61
2 -12 6 1.96 0.45
2 -12 6 2.62 0.6
2 -12 6 1.23 0.44
3 -12 6 0.54 0.46
3 -12 6 0.13 0.36
4 -12 6 3.03 0.61
4 -12 6 4.24 0.65
4 -12 6 3.4 0.54
4 -12 6 2.48 0.52
5 -12 6 0.11 0.36
5 -12 6 0.02 0.37
6 -12 6 0.23 0.39
6 -12 6 1.14 0.44
7 -12 6 2.29 0.58
7 -12 6 3.32 0.57
8 -12 6 5.87 0.81
9 -12 6 4.46 0.75
10 -12 6 7.01 0.98
-11 -11 6 1.41 0.39
-11 -11 6 1.09 0.56
-10 -11 6 1.31 0.62
-10 -11 6 0.98 0.44
-9 -11 6 9.82 0.99
-9 -11 6 10.2 1.1
-8 -11 6 17.08 1.34
-8 -11 6 15.05 1.9
-8 -11 6 14.25 1.58
-7 -11 6 19.29 1.49
-7 -11 6 17.54 2.09
-7 -11 6 17.31 1.73
-6 -11 6 1.53 0.41
-6 -11 6 1.11 0.67
-6 -11 6 1.23 0.45
-6 -11 6 1.05 0.57
-5 -11 6 8.03 1.08
-5 -11 6 7.12 0.72
-5 -11 6 9 0.9
-5 -11 6 8.05 0.81
-4 -11 6 2.48 0.66
-4 -11 6 3.27 0.46
-4 -11 6 2.67 0.43
-3 -11 6 3.17 0.64
-3 -11 6 4.44 0.68
-3 -11 6 3.31 0.45
-2 -11 6 2.17 0.56
-1 -11 6 10.26 1.08
0 -11 6 0.08 0.39
0 -11 6 0.34 0.53
1 -11 6 11.73 1.12
1 -11 6 11.91 1.32
2 -11 6 0.87 0.38
2 -11 6 1.21 0.5
3 -11 6 6.12 0.81
3 -11 6 6.02 0.67
4 -11 6 2.78 0.67
4 -11 6 5.11 0.69
5 -11 6 10.82 1.17
5 -11 6 9.21 1.12
5 -11 6 9.67 1.17
6 -11 6 1.57 0.43
6 -11 6 1.3 0.42
7 -11 6 14.14 1.55
8 -11 6 12.07 1.4
9 -11 6 8.38 1.12
10 -11 6 0.8 0.57
11 -11 6 2.38 0.64
-11 -10 6 0.89 0.61
-10 -10 6 5.21 0.62
-10 -10 6 5.68 0.8
-9 -10 6 14.82 1.2
-9 -10 6 12.42 1.43
-8 -10 6 13.03 1.61
-8 -10 6 11.71 1.36
-8 -10 6 13.9 1.15
-7 -10 6 17.73 2.01
-7 -10 6 16.77 1.68
-7 -10 6 18.19 1.43
-6 -10 6 11.13 1.5
-6 -10 6 11.75 1.05
-6 -10 6 12.92 1.21
-5 -10 6 3.37 0.45
-5 -10 6 3.12 0.49
-5 -10 6 3.64 0.74
-4 -10 6 24.99 2.42
-4 -10 6 22.46 1.8
-4 -10 6 24.05 2.1
-3 -10 6 8.38 0.93
-2 -10 6 12.22 1.2
-1 -10 6 5.79 0.72
-1 -10 6 6.27 0.84
0 -10 6 41.24 3.97
0 -10 6 42.3 3.41
1 -10 6 5.88 0.81
1 -10 6 6.35 0.7
2 -10 6 9.62 1.15
2 -10 6 9.92 0.96
3 -10 6 10.82 0.99
3 -10 6 9.95 1.19
4 -10 6 22.15 2.19
5 -10 6 2.93 0.48
5 -10 6 1.49 0.48
6 -10 6 8.16 0.96
6 -10 6 8.22 1.02
7 -10 6 12.48 1.37
8 -10 6 9.19 1.17
9 -10 6 12.63 1.46
10 -10 6 11.45 1.39
11 -10 6 1.63 0.62
-12 -9 6 -0.17 0.56
-12 -9 6 -0.18 0.36
-11 -9 6 13.54 1.24
-11 -9 6 8.92 0.97
-10 -9 6 9.07 0.92
-10 -9 6 10.96 1.09
-10 -9 6 8.74 0.85
-9 -9 6 6.36 0.71
-9 -9 6 7.34 0.89
-8 -9 6 36.51 3.33
-8 -9 6 40.28 2.87
-7 -9 6 11.26 1.34
-7 -9 6 13.68 1.1
-7 -9 6 13.48 1.6
-6 -9 6 11.72 1.02
-6 -9 6 11.88 1.49
-5 -9 6 2.96 0.65
-5 -9 6 2.6 0.41
-4 -9 6 13.3 1.32
-3 -9 6 41.16 3.38
-2 -9 6 4.54 0.65
-1 -9 6 1.01 0.57
-1 -9 6 0.79 0.44
0 -9 6 0.99 0.43
0 -9 6 1.49 0.53
1 -9 6 1 0.51
1 -9 6 1.5 0.41
2 -9 6 3.04 0.58
2 -9 6 2.88 0.46
3 -9 6 26.28 2.56
3 -9 6 26.38 2.18
4 -9 6 12.17 1.32
5 -9 6 4.28 0.66
6 -9 6 8.86 0.97
6 -9 6 7.38 1
7 -9 6 8.99 1.05
8 -9 6 33.59 3.32
9 -9 6 6.65 0.88
10 -9 6 7.41 0.96
11 -9 6 15.25 1.73
-12 -8 6 -0.27 0.37
-12 -8 6 1.03 0.56
-11 -8 6 0.87 0.6
-10 -8 6 0.03 0.61
-9 -8 6 9.73 0.97
-9 -8 6 11.45 1.23
-8 -8 6 1.74 0.42
-8 -8 6 2.16 0.56
-7 -8 6 7.54 0.8
-7 -8 6 8.23 0.9
-7 -8 6 9.4 1.14
-6 -8 6 3.67 0.46
-6 -8 6 3.2 0.73
-5 -8 6 7.56 0.89
-5 -8 6 7.97 1.04
-4 -8 6 20.38 1.79
-3 -8 6 0.04 0.46
-2 -8 6 2.61 0.55
-2 -8 6 3.86 0.7
-1 -8 6 6.22 0.77
-1 -8 6 8.43 0.93
0 -8 6 10.08 1.02
0 -8 6 10.77 1.22
-1 8 -6 11.72 1.03
1 -8 6 10.73 1.06
1 -8 6 10.85 1.27
-2 8 -6 5.62 0.64
2 -8 6 5.75 0.64
2 -8 6 6.27 0.78
3 -8 6 0.5 0.42
3 -8 6 0.16 0.32
4 -8 6 11.82 1.29
5 -8 6 4.16 0.62
6 -8 6 1.59 0.46
6 -8 6 0.97 0.28
7 -8 6 2.33 0.46
7 -8 6 4.54 0.52
7 -8 6 3.66 0.61
8 -8 6 0.16 0.35
8 -8 6 1.6 0.48
9 -8 6 18.02 1.83
9 -8 6 17.3 1.89
10 -8 6 0.73 0.55
11 -8 6 0.88 0.62
-12 -7 6 5.87 0.67
-12 -7 6 7.47 0.84
-11 -7 6 1.67 0.63
-10 -7 6 12.35 1.35
-9 -7 6 9.7 0.93
-9 -7 6 9.95 1.16
-8 -7 6 10.77 1
-8 -7 6 8.36 0.87
-7 -7 6 10.45 0.92
-7 -7 6 10.25 1.34
-6 -7 6 4.24 0.75
-6 -7 6 4.18 0.49
-5 -7 6 15.69 1.46
-4 -7 6 6.53 0.75
-3 -7 6 38.72 3.18
-2 -7 6 12.56 1.27
-2 -7 6 15.18 1.52
-1 -7 6 92.82 8.67
-1 -7 6 94.51 7.46
0 7 -6 2.14 0.4
0 -7 6 2.66 0.54
0 -7 6 1.99 0.43
-1 7 -6 69.63 5.91
1 -7 6 76.11 6.78
1 -7 6 73.66 5.83
-2 7 -6 19.59 1.63
2 -7 6 19.52 1.63
2 -7 6 18.69 1.91
3 -7 6 35.93 3.46
3 -7 6 37 2.96
4 -7 6 6.22 0.78
4 -7 6 6.27 0.67
5 -7 6 25.24 2.46
5 -7 6 26.66 2.51
6 -7 6 5.84 0.73
6 -7 6 6.92 0.82
7 -7 6 5.06 0.72
7 -7 6 4.07 0.62
7 -7 6 7.32 0.76
8 -7 6 8.26 1.08
9 -7 6 10.54 1.2
9 -7 6 8.41 1.08
10 -7 6 15.34 1.6
10 -7 6 12.76 1.54
11 -7 6 1.22 0.65
-12 -6 6 5.11 0.75
-11 -6 6 5.85 0.84
-10 -6 6 1.41 0.59
-9 -6 6 12.19 1.28
-8 -6 6 0.61 0.47
-8 -6 6 -0.06 0.33
7 6 -6 15.36 1.73
-7 -6 6 15.88 1.43
-7 -6 6 15.31 1.7
-7 -6 6 13.94 1.21
6 6 -6 8.16 1.08
-6 -6 6 9.62 1.2
5 6 -6 51.06 4.84
-5 -6 6 49.82 4.07
4 6 -6 12.47 1.45
-4 -6 6 14.48 1.27
-3 -6 6 2.94 0.5
-2 -6 6 25.62 2.1
-2 -6 6 24.45 2.44
1 6 -6 19.18 1.63
-1 -6 6 18.37 1.87
-1 -6 6 18.85 1.61
0 6 -6 0.75 0.34
0 -6 6 -0.09 0.41
0 -6 6 0.81 0.35
-1 6 -6 11.26 1.07
1 -6 6 12.38 1.26
1 -6 6 12.09 1.08
2 -6 6 17.24 1.69
2 -6 6 16.51 1.44
3 -6 6 2.13 0.5
3 -6 6 2.07 0.29
3 -6 6 1.85 0.38
4 -6 6 21.91 2.12
4 -6 6 21.89 2.18
4 -6 6 22.8 1.85
5 -6 6 54.21 5.04
5 -6 6 52.41 5.01
6 -6 6 14 1.56
6 -6 6 15.74 1.51
7 -6 6 7.56 0.92
7 -6 6 7.86 0.99
8 -6 6 1.09 0.43
8 -6 6 0.92 0.49
8 -6 6 1.12 0.49
9 -6 6 10.66 1.31
9 -6 6 11.47 1.3
10 -6 6 0.4 0.55
10 -6 6 0.14 0.5
11 -6 6 3.16 0.72
-12 -5 6 1.77 0.62
-11 -5 6 4.94 0.74
-10 -5 6 3.95 0.67
9 5 -6 1.21 0.8
-9 -5 6 2.78 0.57
8 5 -6 6.57 1.03
-8 -5 6 6.06 0.75
7 5 -6 3.32 0.76
6 5 -6 1.51 0.59
-6 -5 6 1.3 0.56
5 5 -6 20.08 2.11
-5 -5 6 20.01 1.71
4 5 -6 3.83 0.65
-4 -5 6 4.01 0.55
3 5 -6 70.02 6.55
-3 -5 6 68.59 5.54
2 5 -6 79.21 6.51
2 5 -6 80.24 7.55
-2 -5 6 82.79 7.43
-2 -5 6 78.77 6.4
1 5 -6 169.08 13.71
-1 -5 6 172.27 15.67
-1 -5 6 169.57 13.49
0 5 -6 0.79 0.37
0 -5 6 0.36 0.33
0 -5 6 0.92 0.43
1 -5 6 162.27 13.01
1 -5 6 166.43 15.12
2 -5 6 82.71 6.46
2 -5 6 79.6 7.51
3 -5 6 49.89 4.74
3 -5 6 50.16 4.71
3 -5 6 51.31 4.04
4 -5 6 8.9 0.94
4 -5 6 8.57 1.09
4 -5 6 9.22 0.87
5 -5 6 29.14 2.81
5 -5 6 28.8 2.78
6 -5 6 6.12 0.73
6 -5 6 5.66 0.83
7 -5 6 0.94 0.49
7 -5 6 0.61 0.39
8 -5 6 1.97 0.57
8 -5 6 2.31 0.53
8 -5 6 1.47 0.48
9 -5 6 0.37 0.49
9 -5 6 1.04 0.5
10 -5 6 0.96 0.58
10 -5 6 2.04 0.6
11 -5 6 6.74 0.97
-13 -4 6 0.53 0.5
-12 -4 6 0.79 0.58
-11 -4 6 3.42 0.66
10 4 -6 3.93 1.06
-10 -4 6 4.75 0.7
9 4 -6 10.89 1.42
-9 -4 6 9.54 1.03
8 4 -6 6.09 0.98
-8 -4 6 4.43 0.66
7 4 -6 59.2 5.71
6 4 -6 22.69 2.31
-6 -4 6 21.26 2.25
5 4 -6 0.34 0.57
-5 -4 6 0.21 0.36
4 4 -6 10.02 1.18
-4 -4 6 8.8 0.93
3 4 -6 5.73 0.75
-3 -4 6 6.44 0.67
2 4 -6 55.87 4.62
2 4 -6 56.59 5.36
-2 -4 6 56.25 5.26
-2 -4 6 57.95 4.54
1 4 -6 25.15 2.11
-1 -4 6 24.36 2.07
-1 -4 6 25.46 2.4
0 -4 6 9.7 1.49
0 -4 6 9.74 0.93
0 -4 6 9.9 1.08
1 -4 6 23.35 1.91
1 -4 6 23.56 2.93
1 -4 6 22.26 2.22
2 -4 6 57.31 4.47
2 -4 6 54.47 5.2
3 -4 6 7.42 0.78
3 -4 6 7.4 0.75
3 -4 6 6.62 0.82
4 -4 6 4.45 0.72
4 -4 6 6.6 0.68
4 -4 6 6.24 0.7
5 -4 6 0.27 0.39
5 -4 6 0.71 0.36
5 -4 6 0.31 0.34
6 -4 6 12.76 1.36
7 -4 6 33.22 3
7 -4 6 27.8 2.97
8 -4 6 3.71 0.62
8 -4 6 2.62 0.66
8 -4 6 3.15 0.61
9 -4 6 3.66 0.7
9 -4 6 4.35 0.64
9 -4 6 3.09 0.73
10 -4 6 3.81 0.79
10 -4 6 3.37 0.69
11 -4 6 1.7 0.64
-13 4 -6 1.61 0.61
-13 -3 6 2.9 0.58
-12 -3 6 0.56 0.54
-11 -3 6 3.3 0.62
10 3 -6 -1.11 0.83
-10 -3 6 0.36 0.5
9 3 -6 16.82 1.7
-9 -3 6 10.47 1.27
8 3 -6 12.48 1.66
-8 -3 6 12.31 1.25
7 3 -6 5.08 0.89
6 3 -6 5.61 0.87
5 3 -6 16.24 1.68
-5 -3 6 14.18 1.3
-4 -3 6 23.44 1.95
3 3 -6 80.03 7.5
-3 -3 6 79.15 6.34
2 3 -6 3.14 0.5
2 3 -6 2.8 0.53
-2 -3 6 3.38 0.49
-2 -3 6 2.58 0.63
-2 -3 6 3.07 0.47
1 3 -6 62.28 5.88
1 3 -6 62.02 5.08
-1 -3 6 64.81 7.59
-1 -3 6 60.7 5.79
-1 -3 6 62.76 4.99
0 -3 6 0.58 0.44
0 -3 6 0.28 0.39
0 -3 6 0.15 0.38
1 -3 6 59.5 5.74
1 -3 6 65.99 7.51
1 -3 6 60.2 4.94
2 -3 6 2.26 0.48
2 -3 6 3.71 0.44
2 -3 6 3.06 0.55
3 -3 6 70.49 6.55
3 -3 6 66.39 6.45
3 -3 6 73.01 8.42
3 -3 6 68.31 5.55
4 -3 6 38.87 4.82
4 -3 6 39.25 3.76
4 -3 6 38.8 3.19
4 -3 6 41.4 3.73
5 -3 6 15.42 1.54
5 -3 6 13.14 1.28
5 -3 6 15.18 1.51
6 -3 6 14.83 1.55
6 -3 6 14.4 1.57
7 -3 6 6.23 0.82
7 -3 6 5.7 0.85
8 -3 6 6.97 1.07
8 -3 6 7.66 1.01
8 -3 6 9.56 1.12
9 -3 6 3.49 0.74
9 -3 6 5.14 0.66
9 -3 6 3.2 0.77
10 -3 6 0.86 0.59
10 -3 6 1 0.71
-13 3 -6 -0.13 0.6
-13 -2 6 -0.34 0.46
-12 -2 6 0.52 0.52
-11 -2 6 2.21 0.57
10 2 -6 -0.14 0.84
-10 -2 6 -0.31 0.49
-9 -2 6 8.48 0.99
8 2 -6 0.96 0.72
-8 -2 6 1.01 0.47
7 2 -6 0.64 0.65
6 2 -6 12.54 1.45
4 2 -6 43.55 4.09
-4 -2 6 41.68 5.23
-4 -2 6 42.46 3.43
3 2 -6 52.68 4.79
3 2 -6 51.39 4.14
-3 -2 6 48.81 6.15
-3 -2 6 48.95 4.04
2 2 -6 153.75 12.56
2 2 -6 158.34 14.61
-2 -2 6 157.56 18.77
-2 -2 6 153.98 12.34
1 2 -6 5.32 0.59
-1 -2 6 4.89 0.56
-1 -2 6 3.57 0.72
0 2 -6 71.33 6.9
0 -2 6 76.65 8.89
0 -2 6 72.42 5.84
1 -2 6 1.08 0.38
1 -2 6 0.86 0.41
2 -2 6 129.17 15.46
2 -2 6 127.69 11.82
3 -2 6 32.78 3.01
3 -2 6 31 3.87
3 -2 6 30.45 2.99
4 -2 6 52.61 4.77
4 -2 6 50.63 4.83
4 -2 6 49.62 6.18
5 -2 6 102.28 9.07
5 -2 6 93.65 9.22
6 -2 6 2.41 0.53
6 -2 6 1.29 0.53
7 -2 6 0.23 0.5
7 -2 6 0.45 0.52
8 -2 6 2.23 0.67
8 -2 6 2.27 0.65
9 -2 6 3.58 0.9
9 -2 6 5.74 0.93
9 -2 6 6.59 0.79
10 -2 6 0.46 0.75
10 -2 6 0.99 0.59
10 -2 6 1.05 0.72
-13 2 -6 0.67 0.63
-13 -1 6 0.93 0.47
-12 -1 6 7.26 0.85
-11 -1 6 4.93 0.7
10 1 -6 5.42 1.14
9 1 -6 1.74 0.87
-9 -1 6 1.94 0.51
8 1 -6 27.75 2.9
7 1 -6 8.74 1.14
6 1 -6 17.74 1.95
5 1 -6 21.43 2.22
4 1 -6 2.84 0.58
-4 -1 6 2.71 0.59
3 1 -6 3.71 0.55
3 1 -6 2.93 0.56
-3 -1 6 2.8 0.6
2 1 -6 31.69 3
2 1 -6 32.9 2.59
-2 -1 6 30.88 2.53
-2 -1 6 29.1 3.84
1 1 -6 3.33 0.5
-1 -1 6 3.08 0.44
-1 -1 6 2.17 0.52
0 1 -6 -0.39 0.38
0 -1 6 0.28 0.39
-1 1 -6 7.86 0.8
1 -1 6 7.13 0.78
1 -1 6 5.51 0.92
-2 1 -6 19.48 1.99
2 -1 6 20.22 2.53
2 -1 6 20.18 1.96
3 -1 6 1.46 0.45
3 -1 6 2.61 0.44
4 -1 6 4.53 0.62
4 -1 6 4.05 0.67
5 -1 6 33.75 3.28
6 -1 6 14.79 1.6
6 -1 6 14.11 1.63
7 -1 6 6.15 0.92
7 -1 6 7.74 1.05
8 -1 6 13.9 1.75
8 -1 6 17 1.78
9 -1 6 1.19 0.74
9 -1 6 0.66 0.66
10 -1 6 1.21 0.72
10 -1 6 1.78 0.85
-13 1 -6 0.04 0.63
10 0 -6 3.56 1.02
9 0 -6 0.28 0.8
8 0 -6 15.58 1.89
7 0 -6 0.06 0.6
5 0 -6 21.22 2.21
4 0 -6 18.38 1.87
-4 0 6 17.35 2.35
3 0 -6 5.73 0.72
3 0 -6 7.36 0.67
-3 0 6 4.12 0.77
2 0 -6 1.38 0.42
2 0 -6 0.37 0.43
-2 0 6 0.48 0.42
1 0 -6 10.91 1.18
-1 0 6 10.13 1.47
0 0 -6 7.56 1.05
0 0 6 9.13 1.31
-1 0 -6 4.78 0.76
1 0 6 8.06 1.15
-2 0 -6 5.45 0.69
2 0 6 4.73 0.8
-3 0 -6 2.09 0.44
3 0 6 1.57 0.45
3 0 6 1.56 0.48
4 0 6 18.6 2.41
4 0 6 18.79 1.92
5 0 6 30.85 3.03
6 0 6 108.52 10.24
7 0 6 0.76 0.57
8 0 6 4.03 0.77
8 0 6 2.6 0.76
9 0 6 0.22 0.69
9 0 6 0.51 0.76
10 0 6 1.73 0.79
10 0 6 3.63 0.93
11 0 6 1.42 0.8
-12 0 -6 0.37 0.67
-13 0 -6 1.72 0.66
-13 1 6 0.01 0.42
10 -1 -6 1.4 0.93
9 -1 -6 2.56 0.93
8 -1 -6 1.17 0.76
7 -1 -6 0.96 0.63
6 -1 -6 3.17 0.7
5 -1 -6 44.02 4.26
4 -1 -6 7 0.92
-4 1 6 7.45 1.2
3 -1 -6 4.6 0.53
3 -1 -6 3.6 0.62
-3 1 6 3.31 0.65
2 -1 -6 94.98 8.91
2 -1 -6 93.26 7.64
-2 1 6 95.91 11.43
1 -1 -6 77 7.32
-1 1 6 78.14 9.4
0 -1 -6 8.17 0.98
0 1 6 6.08 1.01
-1 -1 -6 82.48 7.88
1 1 6 85 10.15
-2 -1 -6 74.45 7.3
2 1 6 80.71 9.41
-3 -1 -6 8.14 1.06
3 1 6 9.78 1.48
-4 -1 -6 13.21 1.48
4 1 6 14.29 2.01
4 1 6 12.67 1.51
5 1 6 32.9 3.26
6 1 6 1.42 0.63
7 1 6 3.64 0.77
8 1 6 1.53 0.77
9 1 6 1.15 0.82
9 1 6 1.45 0.83
10 1 6 -0.81 0.77
10 1 6 -0.24 0.83
11 1 6 0.96 0.8
-12 -1 -6 4.3 0.82
12 -2 -6 1.31 0.57
10 -2 -6 -0.14 0.85
9 -2 -6 5.87 1.12
8 -2 -6 4.79 0.94
7 -2 -6 3.73 0.76
6 -2 -6 2.04 0.68
5 -2 -6 19.63 2.08
4 -2 -6 15.18 1.79
-4 2 6 17.47 2.21
3 -2 -6 2.65 0.6
2 -2 -6 8.18 1.07
2 -2 -6 7.69 0.83
-2 2 6 8.27 1.37
1 -2 -6 11.63 1.38
-1 2 6 12.43 1.81
0 -2 -6 0.23 0.48
-1 -2 -6 10.61 1.2
-2 -2 -6 10.77 1.23
-3 -2 -6 15.97 1.69
-4 -2 -6 27 2.77
4 2 6 27.14 2.79
4 2 6 29.77 3.66
5 2 6 15.27 2.37
5 2 6 17.97 1.86
6 2 6 6.77 1.01
7 2 6 8.49 1.19
8 2 6 1.31 0.79
9 2 6 1.37 0.86
10 2 6 1.58 0.86
10 2 6 2.06 0.9
-11 -2 -6 0.34 0.65
11 2 6 0.25 0.84
-12 -2 -6 -0.93 0.66
12 -3 -6 4.49 0.82
-12 3 6 5.9 0.65
10 -3 -6 -1 0.8
9 -3 -6 6.51 1.13
8 -3 -6 0.26 0.71
7 -3 -6 17.39 1.96
6 -3 -6 21.01 2.21
5 -3 -6 7.92 1.06
4 -3 -6 8.65 1.04
-4 3 6 7.29 1.13
3 -3 -6 42.97 3.94
3 -3 -6 37.89 3.31
-3 3 6 41.71 5.05
2 -3 -6 0.74 0.55
-2 3 6 1.36 0.6
1 -3 -6 0.5 0.56
0 -3 -6 3.2 0.57
-1 -3 -6 1.48 0.48
-2 -3 -6 5.67 0.79
-3 -3 -6 36.84 3.59
-4 -3 -6 2.56 0.65
-5 -3 -6 1.61 0.65
5 3 6 2.63 0.68
6 3 6 6.41 0.96
7 3 6 19.22 2.17
8 3 6 0.33 0.79
9 3 6 2.25 0.94
10 3 6 -0.36 0.9
10 3 6 0.57 0.83
-11 -3 -6 -0.32 0.67
11 3 6 -0.87 0.79
-12 -3 -6 1.68 0.69
12 -4 -6 0.18 0.5
-12 4 6 0.11 0.45
11 -4 -6 0.56 0.62
10 -4 -6 4.65 1.02
9 -4 -6 2.56 0.88
8 -4 -6 3.62 0.9
7 -4 -6 11.27 1.39
6 -4 -6 1.83 0.67
5 -4 -6 5.95 0.88
4 -4 -6 0.61 0.63
-4 4 6 0.43 0.61
3 -4 -6 29.26 2.99
-3 4 6 30.29 3.86
2 -4 -6 1.63 0.66
1 -4 -6 42.19 4.08
0 -4 -6 28.48 2.8
-1 -4 -6 61.83 5.88
-2 -4 -6 5.44 0.84
-3 -4 -6 21.97 2.29
-4 -4 -6 0.11 0.62
-5 -4 -6 9.83 1.23
-10 -4 -6 1.39 0.65
-11 -4 -6 4.03 0.75
11 4 6 1.69 0.89
-12 -4 -6 -0.52 0.62
12 -5 -6 -0.12 0.47
11 -5 -6 0.33 0.6
10 -5 -6 0.21 0.69
9 -5 -6 4.1 0.96
8 -5 -6 0.25 0.7
7 -5 -6 -0.11 0.67
6 -5 -6 26.19 2.67
5 -5 -6 16.08 1.79
4 -5 -6 0.59 0.61
-4 5 6 0.39 0.65
3 -5 -6 0.14 0.64
2 -5 -6 9.05 1.18
1 -5 -6 6.74 0.93
0 -5 -6 2.78 0.67
-1 -5 -6 12.59 1.5
-2 -5 -6 4.18 0.77
-3 -5 -6 1.13 0.67
-4 -5 -6 4.01 0.81
-5 -5 -6 3.23 0.74
-8 -5 -6 9.57 1.07
-9 -5 -6 0.13 0.57
-10 -5 -6 0.54 0.62
-11 -5 -6 0.26 0.64
-12 -5 -6 -0.57 0.59
11 -6 -6 1.55 0.61
10 -6 -6 14.66 1.84
9 -6 -6 -1.05 0.69
9 -6 -6 -0.8 0.75
8 -6 -6 6.47 1.01
8 -6 -6 4.82 0.98
7 -6 -6 10.19 1.3
6 -6 -6 3.36 0.76
5 -6 -6 2.48 0.68
4 -6 -6 3.36 0.7
-4 6 6 1.78 0.77
3 -6 -6 2.98 0.71
2 -6 -6 23.56 2.46
1 -6 -6 9.61 1.17
0 -6 -6 51.2 4.91
-1 -6 -6 4.93 0.82
-2 -6 -6 18.73 2.02
-3 -6 -6 7.42 1.05
-4 -6 -6 3.59 0.82
-4 -6 -6 3.9 0.67
-5 -6 -6 3.27 0.79
-5 -6 -6 2.51 0.62
-8 -6 -6 2.58 0.61
-9 -6 -6 -0.39 0.6
-10 -6 -6 2.92 0.67
-11 -6 -6 0.19 0.58
11 -7 -6 1.25 0.61
10 -7 -6 2.21 0.73
9 -7 -6 1.33 0.74
8 -7 -6 1.07 0.75
8 -7 -6 1.14 0.74
7 -7 -6 -0.54 0.63
7 -7 -6 0.47 0.68
6 -7 -6 16.27 1.74
6 -7 -6 13.86 1.83
5 -7 -6 4.99 0.83
5 -7 -6 4.67 0.85
4 -7 -6 0.05 0.6
-4 7 6 -0.22 0.7
3 -7 -6 5.06 0.84
2 -7 -6 14.94 1.75
1 -7 -6 2.62 0.67
0 -7 -6 10.49 1.32
-1 -7 -6 3.91 0.78
-2 -7 -6 20.2 2.16
-3 -7 -6 9.03 1.07
-3 -7 -6 6.56 1.02
-4 -7 -6 2.29 0.63
-4 -7 -6 1.64 0.74
-5 -7 -6 5.85 0.98
-5 -7 -6 5.67 0.84
-6 -7 -6 16.57 1.97
-6 -7 -6 19.53 2.06
-7 -7 -6 1.96 0.69
-9 -7 -6 1.29 0.59
-10 -7 -6 -0.33 0.57
-10 -7 -6 0.34 0.43
-11 -7 -6 0.74 0.52
11 -8 -6 1.33 0.6
10 -8 -6 6.66 1.05
9 -8 -6 0.19 0.69
8 -8 -6 5.04 1
8 -8 -6 6.16 0.98
7 -8 -6 5.72 1.01
7 -8 -6 5.73 0.97
6 -8 -6 0.12 0.63
6 -8 -6 0.38 0.64
5 -8 -6 1.65 0.66
5 -8 -6 1.69 0.65
4 -8 -6 0.53 0.53
4 -8 -6 0.83 0.62
-4 8 6 -1.3 0.74
3 -8 -6 14.54 1.68
2 -8 -6 9.64 1.25
1 -8 -6 1.82 0.64
0 -8 -6 0.45 0.59
-1 -8 -6 1.52 0.68
-1 -8 -6 1.76 0.47
-2 -8 -6 6.63 0.9
-2 -8 -6 4.95 0.91
-3 -8 -6 21.95 2.58
-3 -8 -6 27.38 2.52
-4 -8 -6 -0.5 0.67
-4 -8 -6 -0.06 0.47
-4 -8 -6 0.13 0.46
-5 -8 -6 1.29 0.55
-5 -8 -6 1.27 0.74
-5 -8 -6 1.91 0.55
-6 -8 -6 -0.03 0.54
-6 -8 -6 -0.24 0.75
-7 -8 -6 0.91 0.62
-8 -8 -6 1.47 0.69
-9 -8 -6 6.25 0.97
-10 -8 -6 -0.05 0.44
10 -9 -6 -0.2 0.59
9 -9 -6 3.67 0.87
8 -9 -6 3.02 0.84
7 -9 -6 0.71 0.72
7 -9 -6 1.32 0.69
6 -9 -6 0.33 0.65
6 -9 -6 0.42 0.63
5 -9 -6 0.88 0.63
5 -9 -6 0.87 0.63
4 -9 -6 7.34 1
4 -9 -6 7.82 1.02
-4 9 6 4.73 1.26
3 -9 -6 -0.1 0.52
3 -9 -6 0.8 0.64
2 -9 -6 10.47 1.24
2 -9 -6 9.08 1.06
2 -9 -6 8.58 1.22
1 -9 -6 13.35 1.42
1 -9 -6 11.31 1.55
0 -9 -6 0.32 0.4
0 -9 -6 0.29 0.6
-1 -9 -6 18.53 2.13
-1 -9 -6 21.83 2.13
-2 -9 -6 6.65 1.1
-2 -9 -6 8.85 1.09
-3 -9 -6 1.82 0.72
-3 -9 -6 0.97 0.5
-3 -9 -6 0.69 0.48
-4 -9 -6 6.31 0.86
-4 -9 -6 5.3 0.99
-4 -9 -6 4.93 0.73
-5 -9 -6 11.88 1.46
-5 -9 -6 11.13 1.23
-5 -9 -6 12.72 1.63
-6 -9 -6 2.64 0.66
-6 -9 -6 2.23 0.85
-7 -9 -6 4.58 0.84
-8 -9 -6 7.85 1.12
-9 -9 -6 3.68 0.82
-10 -9 -6 0.43 0.42
10 -10 -6 0.18 0.56
9 -10 -6 0.42 0.64
8 -10 -6 8.81 1.28
7 -10 -6 -0.02 0.69
6 -10 -6 -0.07 0.68
6 -10 -6 -0.02 0.62
5 -10 -6 2.53 0.73
5 -10 -6 2.71 0.77
4 -10 -6 3.54 0.8
4 -10 -6 3.63 0.77
3 -10 -6 7.25 1.06
3 -10 -6 7.47 1.03
2 -10 -6 0.81 0.73
2 -10 -6 0.67 0.49
1 -10 -6 0.4 0.46
1 -10 -6 0.41 0.69
1 -10 -6 0.6 0.36
0 -10 -6 4.2 0.62
0 -10 -6 3.61 0.8
-1 -10 -6 0.29 0.45
-1 -10 -6 0.35 0.66
-2 -10 -6 0.37 0.5
-2 -10 -6 0.4 0.48
-2 -10 -6 0.92 0.72
-3 -10 -6 6.77 0.8
-3 -10 -6 6.73 0.92
-3 -10 -6 5.49 1.02
-4 -10 -6 1.09 0.75
-4 -10 -6 0.56 0.53
-4 -10 -6 1.79 0.59
-5 -10 -6 0.67 0.61
-5 -10 -6 0.8 0.56
-5 -10 -6 0.03 0.76
-6 -10 -6 1.36 0.88
-6 -10 -6 1.47 0.69
-7 -10 -6 9.51 1.26
-8 -10 -6 4.48 0.88
-9 -10 -6 4.04 0.62
-9 -10 -6 5.01 0.93
9 -11 -6 -0.47 0.55
8 -11 -6 2.27 0.73
7 -11 -6 0.24 0.68
6 -11 -6 0.11 0.64
5 -11 -6 17.17 1.79
5 -11 -6 14.41 1.9
4 -11 -6 3.89 0.82
4 -11 -6 3.41 0.76
3 -11 -6 1.19 0.57
3 -11 -6 0.57 0.69
2 -11 -6 8.46 1.17
2 -11 -6 7.19 1.02
1 -11 -6 3.42 0.73
1 -11 -6 8.09 1.01
0 -11 -6 1.1 0.69
0 -11 -6 1.24 0.42
-1 -11 -6 2.56 0.54
-1 -11 -6 2.33 0.77
-2 -11 -6 7.72 0.96
-2 -11 -6 4.17 0.97
-2 -11 -6 4.59 0.72
-3 -11 -6 -0.02 0.72
-3 -11 -6 0.2 0.56
-3 -11 -6 0.42 0.55
-4 -11 -6 1.05 0.59
-4 -11 -6 0.65 0.76
-4 -11 -6 2.07 0.65
-5 -11 -6 19.78 2.01
-5 -11 -6 14.16 1.6
-5 -11 -6 16.35 2.05
-6 -11 -6 0.53 0.66
-6 -11 -6 0.69 0.57
-7 -11 -6 1.46 0.72
-8 -11 -6 6.24 1.04
-9 -11 -6 -0.21 0.45
8 -12 -6 1.36 0.61
7 -12 -6 3.44 0.76
6 -12 -6 2.19 0.69
5 -12 -6 8.92 1.22
4 -12 -6 4.63 0.81
4 -12 -6 1.97 0.68
3 -12 -6 13.56 1.79
3 -12 -6 18.71 1.84
2 -12 -6 1.78 0.58
2 -12 -6 2.64 0.81
1 -12 -6 2.19 0.62
1 -12 -6 4.1 0.92
0 -12 -6 0.25 0.74
-1 -12 -6 9.65 1.25
-1 -12 -6 9.25 1.06
-1 -12 -6 8.9 1.14
-2 -12 -6 -1.27 0.68
-2 -12 -6 -0.3 0.56
-2 -12 -6 0.53 0.52
-3 -12 -6 16.48 1.63
-3 -12 -6 14.77 2
-3 -12 -6 18.42 1.95
-4 -12 -6 3.9 1
-4 -12 -6 6.24 0.88
-4 -12 -6 4.32 0.78
-5 -12 -6 1.78 0.63
-5 -12 -6 3.2 0.73
-6 -12 -6 3.64 0.78
-6 -12 -6 2.23 0.64
-7 -12 -6 5.61 0.95
-8 -12 -6 0.2 0.46
7 -13 -6 0.3 0.54
6 -13 -6 1.05 0.58
5 -13 -6 0.35 0.57
4 -13 -6 0.26 0.53
3 -13 -6 4.07 0.7
-3 13 6 0.43 1.14
2 -13 -6 4.41 0.77
1 -13 -6 7.47 1.18
1 -13 -6 11.58 1.35
0 -13 -6 0.4 0.79
-1 -13 -6 3.31 0.65
-1 -13 -6 2.74 0.86
-2 -13 -6 5.31 0.8
-2 -13 -6 5.38 0.75
-3 -13 -6 7.67 0.95
-3 -13 -6 8.21 1.11
-4 -13 -6 1.62 0.63
-4 -13 -6 2.16 0.67
-5 -13 -6 0.51 0.57
-5 -13 -6 0.77 0.62
-6 -13 -6 2.8 0.59
-7 -13 -6 4.78 0.63
6 -14 -6 1.05 0.56
5 -14 -6 2.53 0.64
4 -14 -6 11.09 1.39
3 -14 -6 0.54 0.51
2 -14 -6 -0.5 0.46
1 -14 -6 2.61 0.59
0 -14 -6 0.91 0.56
-1 -14 -6 9.07 1.01
-2 -14 -6 -0.03 0.55
-3 -14 -6 0.46 0.57
-4 -14 -6 6.18 0.8
-5 -14 -6 0.66 0.54
-6 -14 -6 0.12 0.44
-6 -14 -6 0.8 0.48
4 -15 -6 0.06 0.44
3 -15 -6 1.7 0.51
2 -15 -6 5.22 0.76
1 -15 -6 0.83 0.49
1 -15 -6 1.82 0.52
0 -15 -6 1.48 0.56
-1 -15 -6 3.85 0.63
-2 -15 -6 3.91 0.66
-3 -15 -6 2.15 0.45
-3 -15 -6 2.18 0.58
-4 -15 -6 0.1 0.4
-4 -15 -6 0.66 0.52
2 -16 -6 1.36 0.49
2 -16 -6 2.73 0.49
1 -16 -6 3.27 0.56
0 -16 -6 2.59 0.5
-1 -16 -6 3.91 0.6
-2 -16 -6 0.79 0.48
-3 -19 7 0.78 0.63
-2 -19 7 7.39 1.12
-1 -19 7 0.34 0.62
-1 -19 7 1.23 0.35
0 -19 7 0.35 0.3
0 -19 7 -0.5 0.6
1 -19 7 1.35 0.65
2 -19 7 8.36 1.24
2 -19 7 8.99 1.24
3 -19 7 2.06 0.68
3 -19 7 2.22 0.62
-5 -18 7 15.94 1.39
-5 -18 7 18.51 2.14
-4 -18 7 9.15 1.21
-4 -18 7 6.77 0.75
-3 -18 7 2.34 0.45
-3 -18 7 2.87 0.48
-3 -18 7 1.63 0.79
-2 -18 7 -0.55 0.69
-2 -18 7 1.56 0.4
-1 -18 7 13.89 1.16
-1 -18 7 10.33 1.76
0 -18 7 2.29 0.87
0 -18 7 4.1 0.46
1 -18 7 18.12 1.96
1 -18 7 15.86 1.41
1 -18 7 15.97 2.07
2 -18 7 1.32 0.68
2 -18 7 1.7 0.63
3 -18 7 2.41 0.67
3 -18 7 2.52 0.7
4 -18 7 8.07 1.13
4 -18 7 7.64 1.05
5 -18 7 17.09 1.93
-7 -17 7 0 0.41
-6 -17 7 5.24 0.89
-6 -17 7 4.11 0.59
-5 -17 7 -0.26 0.44
-5 -17 7 2.19 0.75
-4 -17 7 4.23 0.59
-4 -17 7 5.63 0.65
-3 -17 7 8.52 0.84
-3 -17 7 7.5 0.78
-2 -17 7 0.37 0.42
-2 -17 7 0.19 0.38
-1 -17 7 32.36 2.7
0 -17 7 0.34 0.31
0 -17 7 1.15 0.69
1 -17 7 34.61 3.27
1 -17 7 28.21 3.49
1 -17 7 28.58 2.5
2 -17 7 0.53 0.6
2 -17 7 0.46 0.66
3 -17 7 8.75 1.21
3 -17 7 9.9 1.31
4 -17 7 3.4 0.76
4 -17 7 3.47 0.73
5 -17 7 0.06 0.51
6 -17 7 1.86 0.53
7 -17 7 -0.15 0.43
-8 -16 7 -0.01 0.41
-7 -16 7 2.1 0.49
-6 -16 7 2.85 0.57
-6 -16 7 6.59 1
-5 -16 7 2.22 0.51
-4 -16 7 0.16 0.44
-4 -16 7 -0.15 0.42
-3 -16 7 1.45 0.63
-3 -16 7 0.65 0.44
-3 -16 7 1.36 0.44
-2 -16 7 1.13 0.6
-2 -16 7 2.62 0.44
-2 -16 7 2.53 0.48
-1 -16 7 3.08 0.68
-1 -16 7 4.06 0.48
0 -16 7 2.68 0.61
0 -16 7 3.54 0.76
0 -16 7 3.48 0.44
1 -16 7 2.18 0.36
1 -16 7 3.27 0.7
2 -16 7 2.87 0.7
2 -16 7 3.01 0.77
3 -16 7 1.2 0.64
3 -16 7 1.53 0.58
4 -16 7 0.48 0.51
4 -16 7 0.22 0.57
5 -16 7 1.03 0.53
6 -16 7 2.21 0.57
7 -16 7 0.84 0.45
7 -16 7 0.3 0.53
8 -16 7 -0.05 0.55
8 -16 7 -0.18 0.41
-8 -15 7 1.14 0.53
-8 -15 7 1.15 0.46
-7 -15 7 -0.39 0.53
-7 -15 7 0.83 0.47
-6 -15 7 8.93 1.04
-6 -15 7 10.37 0.99
-5 -15 7 0.81 0.49
-5 -15 7 -0.28 0.68
-5 -15 7 1.08 0.46
-4 -15 7 5.45 0.64
-4 -15 7 3.83 0.58
-4 -15 7 4.61 0.9
-3 -15 7 8.82 0.96
-3 -15 7 9.9 0.87
-3 -15 7 9.74 1.22
-2 -15 7 1.51 0.6
-2 -15 7 2.3 0.44
-2 -15 7 2.38 0.41
-1 -15 7 0.48 0.49
-1 -15 7 0.57 0.63
-1 -15 7 0.03 0.32
0 -15 7 0.48 0.29
0 -15 7 0.67 0.57
0 -15 7 -0.46 0.42
1 -15 7 0.09 0.26
1 -15 7 -0.24 0.52
2 -15 7 2.67 0.77
2 -15 7 3.09 0.64
3 -15 7 10.63 1.29
3 -15 7 9.25 1.42
4 -15 7 3.45 0.67
4 -15 7 3.98 0.75
5 -15 7 0.46 0.5
5 -15 7 0.31 0.47
6 -15 7 5.49 0.88
6 -15 7 8.68 0.92
7 -15 7 0.36 0.51
7 -15 7 0.39 0.45
8 -15 7 0.47 0.53
-9 -14 7 4.46 0.57
-9 -14 7 3.04 0.66
-8 -14 7 0.87 0.59
-8 -14 7 1.58 0.47
-7 -14 7 2.12 0.63
-7 -14 7 1.14 0.47
-6 -14 7 1.58 0.47
-6 -14 7 0.07 0.58
-6 -14 7 -0.11 0.69
-5 -14 7 2.77 0.77
-5 -14 7 2.83 0.51
-5 -14 7 3.57 0.56
-5 -14 7 2.7 0.63
-4 -14 7 1.19 0.44
-4 -14 7 0.75 0.4
-4 -14 7 0.61 0.64
-4 -14 7 0.93 0.54
-3 -14 7 1.87 0.42
-3 -14 7 1.87 0.61
-3 -14 7 1.5 0.41
-2 -14 7 15.85 1.64
-2 -14 7 14.48 1.32
-2 -14 7 14.61 1.22
-1 -14 7 5.55 0.61
-1 -14 7 6.87 0.91
-1 -14 7 5.61 0.66
-1 -14 7 7.12 0.84
0 -14 7 23.75 2.39
0 -14 7 25.92 2.63
0 -14 7 23.32 2.02
1 -14 7 8.57 1.18
1 -14 7 8.89 0.8
1 -14 7 8.74 1
2 -14 7 10.9 1.68
2 -14 7 14.99 1.54
2 -14 7 12.86 1.49
3 -14 7 1.91 0.62
3 -14 7 1.61 0.62
3 -14 7 1.49 0.49
4 -14 7 2.14 0.58
4 -14 7 0.99 0.46
4 -14 7 1.34 0.47
5 -14 7 2.22 0.52
5 -14 7 2.32 0.53
6 -14 7 0.54 0.43
6 -14 7 0.92 0.5
7 -14 7 2.08 0.52
7 -14 7 1.81 0.57
8 -14 7 1.21 0.55
9 -14 7 4.38 0.74
-10 -13 7 0.14 0.54
-10 -13 7 0.27 0.39
-9 -13 7 3.42 0.54
-9 -13 7 2.47 0.66
-8 -13 7 4.38 0.59
-8 -13 7 3.97 0.71
-7 -13 7 2.65 0.62
-7 -13 7 1.68 0.5
-7 -13 7 0.11 0.74
-6 -13 7 5.22 0.99
-6 -13 7 6.27 0.68
-6 -13 7 7.29 0.83
-5 -13 7 1.88 0.71
-5 -13 7 1.89 0.58
-5 -13 7 2.18 0.46
-5 -13 7 2.33 0.49
-4 -13 7 -0.09 0.49
-4 -13 7 0.35 0.37
-4 -13 7 0.7 0.4
-4 -13 7 0.89 0.59
-3 -13 7 4.29 0.73
-3 -13 7 3.21 0.49
-3 -13 7 3.43 0.49
-3 -13 7 4.5 0.61
-2 -13 7 13.99 1.26
-2 -13 7 14.06 1.17
-2 -13 7 15.1 1.57
-1 -13 7 38.82 3.33
-1 -13 7 40.52 3.37
-1 -13 7 39.03 2.97
-1 -13 7 39.58 3.89
-1 -13 7 44.44 4.23
0 -13 7 1.22 0.26
0 -13 7 0.76 0.51
0 -13 7 0.68 0.37
0 -13 7 0.12 0.44
1 -13 7 42.25 4.16
1 -13 7 44.21 4.18
1 -13 7 44.52 4.55
1 -13 7 44.47 3.61
2 -13 7 15.21 1.64
2 -13 7 14.87 1.42
2 -13 7 15.04 1.7
3 -13 7 4.91 0.81
3 -13 7 6.22 0.87
3 -13 7 5 0.72
3 -13 7 4.87 0.69
4 -13 7 0.61 0.53
4 -13 7 1.12 0.43
4 -13 7 0.39 0.38
4 -13 7 0.68 0.5
5 -13 7 2.65 0.53
5 -13 7 3.11 0.55
6 -13 7 7.34 1.03
6 -13 7 8.61 1.04
7 -13 7 2.08 0.51
7 -13 7 2.14 0.57
8 -13 7 7.59 0.98
9 -13 7 3.67 0.69
10 -13 7 1.71 0.63
-10 -12 7 2.28 0.44
-10 -12 7 1.96 0.61
-9 -12 7 4.64 0.63
-9 -12 7 6.14 0.78
-8 -12 7 8.33 0.77
-8 -12 7 6.69 0.9
-8 -12 7 5.5 1.17
-7 -12 7 5.72 1.07
-7 -12 7 6.2 0.72
-7 -12 7 8.16 0.87
-6 -12 7 0.64 0.42
-6 -12 7 0.79 0.65
-6 -12 7 1.02 0.56
-5 -12 7 1.18 0.63
-5 -12 7 1.68 0.43
-5 -12 7 1.1 0.55
-5 -12 7 1.43 0.4
-4 -12 7 1.13 0.38
-4 -12 7 1.66 0.52
-4 -12 7 1.34 0.39
-4 -12 7 1.3 0.6
-3 -12 7 4.59 0.54
-3 -12 7 6.03 0.58
-3 -12 7 4.74 0.79
-3 -12 7 4.91 0.78
-2 -12 7 9.4 0.89
-2 -12 7 9.49 0.94
-2 -12 7 12.93 1.14
-2 -12 7 10.59 1.21
-1 -12 7 13.63 1.29
-1 -12 7 12.17 1.51
-1 -12 7 13.52 1.06
0 -12 7 1.31 0.55
0 -12 7 0.44 0.46
1 -12 7 9.58 0.98
1 -12 7 8.97 1.19
2 -12 7 7.51 0.91
2 -12 7 8.95 1.06
2 -12 7 8.9 1.04
3 -12 7 7.48 0.76
3 -12 7 8.67 0.99
3 -12 7 7.06 0.94
3 -12 7 4.99 0.81
4 -12 7 2.48 0.61
4 -12 7 2 0.45
4 -12 7 2.73 0.57
4 -12 7 2.35 0.49
5 -12 7 1.73 0.6
5 -12 7 2.22 0.48
5 -12 7 1.79 0.45
6 -12 7 1.4 0.45
6 -12 7 1.13 0.43
7 -12 7 12.64 1.43
8 -12 7 4.88 0.74
9 -12 7 10.66 1.29
10 -12 7 2.53 0.65
-11 -11 7 4.31 0.51
-11 -11 7 3.57 0.67
-10 -11 7 0.16 0.4
-10 -11 7 0.24 0.6
-9 -11 7 0.53 0.63
-9 -11 7 -0.8 0.44
-8 -11 7 7.98 0.95
-8 -11 7 7.34 0.77
-8 -11 7 7.37 1.19
-7 -11 7 2.89 0.88
-7 -11 7 4.06 0.71
-7 -11 7 4.34 0.56
-6 -11 7 1.2 0.56
-6 -11 7 1.45 0.41
-6 -11 7 1.38 0.66
-5 -11 7 18 1.86
-5 -11 7 17.2 1.32
-5 -11 7 15.32 1.46
-5 -11 7 15.8 1.57
-4 -11 7 6.53 0.89
-4 -11 7 5.75 0.91
-4 -11 7 6.58 0.74
-4 -11 7 7.27 0.83
-4 -11 7 6.5 0.64
-3 -11 7 7.81 0.92
-3 -11 7 7.94 0.72
-2 -11 7 9.97 1.1
-1 -11 7 1.34 0.59
-1 -11 7 1.29 0.49
0 -11 7 0.47 0.41
0 -11 7 0.05 0.56
1 -11 7 1.35 0.45
1 -11 7 1.88 0.54
2 -11 7 6.95 0.77
2 -11 7 7.34 0.92
3 -11 7 5.36 0.76
3 -11 7 5.32 0.77
3 -11 7 4.09 0.58
4 -11 7 4.98 0.72
4 -11 7 3.56 0.69
4 -11 7 4.52 0.63
5 -11 7 13.46 1.41
5 -11 7 13.52 1.45
5 -11 7 12.51 1.46
6 -11 7 0.6 0.39
7 -11 7 2.81 0.55
8 -11 7 8.58 1.15
9 -11 7 0.52 0.53
10 -11 7 1.7 0.59
11 -11 7 7.43 0.99
-11 -10 7 -0.02 0.6
-10 -10 7 11.08 1.29
-10 -10 7 10.53 0.98
-9 -10 7 1.98 0.65
-9 -10 7 0.8 0.46
-8 -10 7 6.87 0.78
-8 -10 7 2.64 0.93
-7 -10 7 -0.02 0.56
-7 -10 7 0.7 0.41
-7 -10 7 0.13 0.65
-6 -10 7 5.64 0.72
-6 -10 7 3.85 0.85
-6 -10 7 4.64 0.56
-5 -10 7 5.69 0.95
-5 -10 7 9.42 0.96
-5 -10 7 7.18 0.8
-4 -10 7 9.33 0.89
-4 -10 7 11.77 1.11
-3 -10 7 1.39 0.51
-2 -10 7 0.88 0.49
-1 -10 7 1.22 0.47
-1 -10 7 1.56 0.6
0 -10 7 30.87 2.64
0 -10 7 32.43 3.07
1 -10 7 1.32 0.55
1 -10 7 0.85 0.43
2 -10 7 1.16 0.4
2 -10 7 1.13 0.53
3 -10 7 1.29 0.39
3 -10 7 1.25 0.53
4 -10 7 5.21 0.75
5 -10 7 10.41 1.16
5 -10 7 9.45 1.13
6 -10 7 2.17 0.44
6 -10 7 2.61 0.57
7 -10 7 0.32 0.39
8 -10 7 15.43 1.69
9 -10 7 3.76 0.69
10 -10 7 8.66 1.17
11 -10 7 1.33 0.62
-12 -9 7 0.4 0.36
-12 -9 7 0.31 0.57
-11 -9 7 9.74 0.96
-11 -9 7 10.98 1.22
-10 -9 7 1.27 0.63
-10 -9 7 0.52 0.4
-10 -9 7 0.79 0.42
-9 -9 7 2.32 0.64
-9 -9 7 2.19 0.48
-9 -9 7 1.85 0.44
-8 -9 7 9.64 0.94
-8 -9 7 10.39 1.18
-8 -9 7 9.95 0.94
-7 -9 7 8.74 1.15
-7 -9 7 8.66 0.94
-7 -9 7 7.9 0.84
-6 -9 7 21.64 1.85
-6 -9 7 18.64 1.57
-6 -9 7 20.46 2.18
-5 -9 7 1.62 0.63
-5 -9 7 1.26 0.55
-5 -9 7 1.29 0.35
-4 -9 7 2 0.54
-3 -9 7 2.67 0.56
-2 -9 7 38.9 3.2
-2 -9 7 38.64 3.72
-1 -9 7 3.67 0.71
-1 -9 7 3.98 0.62
0 -9 7 1.5 0.45
0 -9 7 1.54 0.58
-1 9 -7 3.04 0.48
1 -9 7 2.79 0.61
1 -9 7 2.15 0.47
-2 9 -7 30.18 2.68
2 -9 7 34.22 3.12
2 -9 7 33.29 2.67
3 -9 7 6.93 0.71
3 -9 7 6.12 0.85
4 -9 7 1.24 0.44
5 -9 7 4.07 0.69
6 -9 7 25 2.38
6 -9 7 23.17 2.39
7 -9 7 4.98 0.76
7 -9 7 4.85 0.65
8 -9 7 6.86 0.87
9 -9 7 3.44 0.67
10 -9 7 2.09 0.6
11 -9 7 6.86 0.93
-12 -8 7 0.47 0.57
-12 -8 7 -0.24 0.37
-11 -8 7 0.05 0.58
-11 -8 7 0.12 0.41
-10 -8 7 0.92 0.63
-9 -8 7 31.12 2.42
-9 -8 7 33.05 2.83
-8 -8 7 1.79 0.55
-8 -8 7 1.22 0.4
-7 -8 7 1.55 0.51
-7 -8 7 1.45 0.39
-7 -8 7 1.64 0.65
-6 -8 7 4.64 0.78
-5 -8 7 5.5 0.73
-4 -8 7 41.89 3.44
-3 -8 7 1.01 0.51
-2 -8 7 22.48 2.02
-2 -8 7 24.56 2.38
-1 -8 7 4.24 0.64
-1 -8 7 5.16 0.75
0 8 -7 93.64 7.87
0 -8 7 98.39 7.76
0 -8 7 100.07 9.02
-1 8 -7 8.56 0.93
1 -8 7 11.27 1.16
1 -8 7 9.29 0.97
-2 8 -7 30.05 2.57
2 -8 7 30.12 2.98
2 -8 7 32.73 2.55
3 -8 7 0.58 0.36
3 -8 7 0.2 0.49
4 -8 7 55.53 4.39
4 -8 7 53.65 5.12
5 -8 7 3.55 0.45
5 -8 7 3.87 0.65
6 -8 7 15.8 1.49
6 -8 7 16.04 1.6
6 -8 7 13.34 1.56
7 -8 7 1.21 0.39
7 -8 7 1.2 0.52
7 -8 7 0.45 0.33
8 -8 7 4.74 0.71
8 -8 7 4.08 0.63
9 -8 7 24.13 2.47
10 -8 7 1.38 0.58
11 -8 7 0.73 0.6
-12 -7 7 2.47 0.59
-12 -7 7 1.04 0.43
-11 -7 7 0.33 0.59
-10 -7 7 25.71 2.33
-9 -7 7 1.14 0.59
-9 -7 7 0.44 0.39
-8 -7 7 0.2 0.36
-8 -7 7 0.46 0.5
-7 -7 7 3.92 0.5
-7 -7 7 4.82 0.82
-7 -7 7 4.5 0.63
-6 -7 7 0.55 0.56
-6 -7 7 0.18 0.33
-5 -7 7 24.39 2.08
-4 -7 7 17.7 1.6
-3 -7 7 2.97 0.55
-2 -7 7 0.22 0.46
-2 -7 7 -0.08 0.59
1 7 -7 9.91 0.96
-1 -7 7 8.25 1.11
-1 -7 7 8.38 0.88
0 7 -7 5.48 0.62
0 -7 7 4.76 0.62
0 -7 7 5.11 0.77
-1 7 -7 4.87 0.57
1 -7 7 4.99 0.71
1 -7 7 4.1 0.56
2 -7 7 0.04 0.35
2 -7 7 0.08 0.43
3 -7 7 8.9 1.1
3 -7 7 8.98 0.91
4 -7 7 11.24 1.32
4 -7 7 11.8 1.1
4 -7 7 12.27 1.19
5 -7 7 14.84 1.52
5 -7 7 13.99 1.41
6 -7 7 0.48 0.47
6 -7 7 0.77 0.31
7 -7 7 7.9 0.87
7 -7 7 6.84 0.86
7 -7 7 6.17 0.9
8 -7 7 2.6 0.68
8 -7 7 4.77 0.65
8 -7 7 4.13 0.67
9 -7 7 0.02 0.42
9 -7 7 0.56 0.51
10 -7 7 16.97 1.61
10 -7 7 11.35 1.57
11 -7 7 0.88 0.63
-12 -6 7 -0.64 0.42
-12 -6 7 0.9 0.55
-11 -6 7 6.63 0.88
-10 -6 7 0.65 0.6
-9 -6 7 4.43 0.69
-8 -6 7 0.15 0.49
-8 -6 7 0.17 0.34
-7 -6 7 0.67 0.55
-7 -6 7 -0.32 0.33
-7 -6 7 0.28 0.45
6 6 -7 19.52 2.12
-6 -6 7 20.79 1.77
5 6 -7 19.35 1.98
-5 -6 7 17.99 1.63
4 6 -7 24.08 2.38
-4 -6 7 22.89 2.01
-3 -6 7 4.44 0.64
2 6 -7 60.06 5.02
-2 -6 7 60.81 4.93
-2 -6 7 63.09 5.72
1 6 -7 21.09 1.87
-1 -6 7 21.04 1.84
-1 -6 7 23.06 2.15
0 6 -7 5.66 0.64
0 -6 7 5.31 0.74
0 -6 7 5.55 0.63
1 -6 7 29.06 2.86
1 -6 7 30.74 2.46
2 -6 7 73.79 5.87
2 -6 7 73.29 6.83
3 -6 7 4.5 0.71
3 -6 7 6.27 0.63
4 -6 7 11.3 1.35
4 -6 7 12.62 1.23
4 -6 7 11.96 1.11
5 -6 7 11.46 1.34
5 -6 7 12.03 1.22
6 -6 7 11.7 1.21
6 -6 7 11.29 1.32
7 -6 7 0.95 0.53
7 -6 7 1.24 0.42
7 -6 7 1.53 0.45
8 -6 7 -0.08 0.49
8 -6 7 0.31 0.48
8 -6 7 0.39 0.42
9 -6 7 1.04 0.5
9 -6 7 1.39 0.51
10 -6 7 0.29 0.51
10 -6 7 0.82 0.56
11 -6 7 3.13 0.73
-12 -5 7 0.38 0.56
-11 -5 7 1.45 0.61
-10 -5 7 0.72 0.56
9 5 -7 1.03 0.79
-9 -5 7 1.62 0.5
8 5 -7 2.61 0.74
-8 -5 7 1.85 0.48
7 5 -7 -0.4 0.63
6 5 -7 2.3 0.67
5 5 -7 42.63 4.06
-5 -5 7 40.91 3.39
4 5 -7 28.6 2.8
-4 -5 7 27.85 2.36
3 5 -7 19.13 2.03
-3 -5 7 19.48 1.74
-3 -5 7 21.86 2.01
2 5 -7 16.54 1.63
2 5 -7 15.85 1.48
-2 -5 7 16.06 1.43
-2 -5 7 15.8 1.63
1 5 -7 6.27 0.7
-1 -5 7 5.47 0.66
-1 -5 7 6.37 0.79
0 5 -7 1.75 0.45
0 -5 7 1.32 0.48
0 -5 7 1.66 0.4
1 -5 7 6.63 0.82
1 -5 7 7.3 0.72
2 -5 7 11.7 1.07
2 -5 7 11.37 1.25
3 -5 7 30.75 2.42
3 -5 7 29.63 2.83
3 -5 7 28.35 2.81
4 -5 7 38.73 3.05
4 -5 7 37.96 3.57
4 -5 7 35.48 3.57
5 -5 7 26.54 2.04
5 -5 7 24.43 2.35
5 -5 7 21 2.39
6 -5 7 8.23 0.92
6 -5 7 6.75 0.94
7 -5 7 0.21 0.53
7 -5 7 0.26 0.41
8 -5 7 9.38 1.12
8 -5 7 8.4 1.1
8 -5 7 8.32 1.1
9 -5 7 3.29 0.67
9 -5 7 2.99 0.73
9 -5 7 3.79 0.67
10 -5 7 1.82 0.6
10 -5 7 1.12 0.62
11 -5 7 1.62 0.64
-13 -4 7 0.54 0.48
-12 -4 7 3.63 0.66
-11 -4 7 0.47 0.57
10 4 -7 2.02 0.92
-10 -4 7 1.68 0.55
9 4 -7 4.07 0.96
-9 -4 7 4.09 0.61
8 4 -7 0.24 0.73
-8 -4 7 0.07 0.44
7 4 -7 11.84 1.44
6 4 -7 1.46 0.65
5 4 -7 46.48 4.5
4 4 -7 30.39 2.97
-4 -4 7 29.77 2.49
3 4 -7 7.84 0.92
3 4 -7 7.73 0.95
-3 -4 7 7.73 0.93
-3 -4 7 9.05 0.85
2 4 -7 4.33 0.62
2 4 -7 4.22 0.63
-2 -4 7 5.68 0.65
-2 -4 7 5.05 0.59
-2 -4 7 3.95 0.81
1 4 -7 23.52 2.27
1 4 -7 24.1 2
-1 -4 7 23.4 3.01
-1 -4 7 22.51 1.95
-1 -4 7 23.33 2.26
0 -4 7 28.04 2.27
0 -4 7 26.72 2.63
0 -4 7 27.73 3.46
1 -4 7 34.07 2.74
1 -4 7 32.26 3.17
1 -4 7 34.26 4.16
2 -4 7 7.81 1.2
2 -4 7 6.93 0.81
2 -4 7 7.42 0.89
3 -4 7 3.73 0.64
3 -4 7 4.59 0.73
3 -4 7 4.41 0.53
3 -4 7 5.02 0.63
4 -4 7 33.47 3.13
4 -4 7 31.81 2.66
4 -4 7 32.4 3.12
5 -4 7 67.52 5.39
5 -4 7 68.26 6.37
5 -4 7 66.16 6.28
6 -4 7 2.66 0.53
6 -4 7 2.47 0.56
7 -4 7 0.83 0.51
7 -4 7 2.22 0.48
8 -4 7 0.37 0.55
8 -4 7 1.24 0.51
8 -4 7 0.61 0.52
9 -4 7 1.23 0.52
9 -4 7 1.48 0.66
9 -4 7 1.59 0.6
10 -4 7 -0.16 0.52
10 -4 7 0.53 0.65
11 -4 7 0.88 0.6
-13 -3 7 1.97 0.46
-13 -3 7 1.89 0.51
-12 -3 7 1.32 0.55
-11 -3 7 0.4 0.55
10 3 -7 -0.58 0.85
-10 -3 7 0.66 0.5
9 3 -7 2.92 0.94
-9 -3 7 2.07 0.52
8 3 -7 1.55 0.78
-8 -3 7 0.37 0.43
7 3 -7 2.74 0.77
6 3 -7 22.49 2.38
5 3 -7 4.57 0.79
4 3 -7 92.33 8.34
-4 -3 7 84.33 7.03
3 3 -7 12.16 1.26
3 3 -7 11.56 1.17
-3 -3 7 10.22 1.69
-3 -3 7 10.83 1.07
2 3 -7 15.78 1.41
2 3 -7 16.51 1.59
-2 -3 7 15.42 1.37
-2 -3 7 14.76 1.55
-2 -3 7 15.18 2.11
1 3 -7 15.11 1.36
1 3 -7 13.9 1.47
-1 -3 7 14.09 1.3
-1 -3 7 15.16 1.49
-1 -3 7 14.98 1.99
0 -3 7 2.18 0.44
0 -3 7 1.64 0.45
0 -3 7 1.83 0.54
1 -3 7 12.56 1.39
1 -3 7 14.34 1.85
1 -3 7 13.23 1.21
2 -3 7 8.26 0.9
2 -3 7 9.47 1.34
3 -3 7 2.6 0.42
3 -3 7 3.04 0.56
3 -3 7 3.2 0.54
5 -3 7 10.24 1.18
5 -3 7 8.65 0.96
5 -3 7 10.03 1.14
6 -3 7 12.66 1.36
6 -3 7 11.5 1.38
7 -3 7 3.48 0.67
7 -3 7 4.14 0.8
8 -3 7 2.4 0.69
8 -3 7 2.43 0.57
8 -3 7 2.91 0.66
9 -3 7 0.41 0.5
9 -3 7 -0.09 0.6
9 -3 7 0.4 0.63
10 -3 7 0.95 0.7
10 -3 7 0.81 0.6
10 -3 7 1.48 0.77
-13 -2 7 -0.03 0.45
-13 -2 7 0.96 0.44
-12 -2 7 1.25 0.54
-11 -2 7 4.8 0.71
10 2 -7 4.97 1.14
-10 -2 7 3.54 0.62
9 2 -7 1.63 0.92
-9 -2 7 0.31 0.45
8 2 -7 0.25 0.74
-8 -2 7 0.04 0.44
7 2 -7 5.5 0.94
6 2 -7 6.15 0.94
5 2 -7 146.3 13.76
4 2 -7 0.02 0.51
-4 -2 7 -0.29 0.4
-4 -2 7 -0.46 0.54
-3 -2 7 7.87 0.83
2 2 -7 22.3 1.96
2 2 -7 22.9 2.25
-2 -2 7 23.36 2.91
-2 -2 7 22.49 1.9
1 2 -7 7.69 0.96
-1 -2 7 8.44 1.29
-1 -2 7 8.34 0.86
0 2 -7 155.5 14.97
0 -2 7 156.96 14.69
0 -2 7 160.88 12.65
0 -2 7 166.02 19.24
-1 2 -7 6.44 0.89
1 -2 7 7.72 1.19
1 -2 7 7.91 0.89
2 -2 7 17.1 1.72
2 -2 7 17.47 2.24
3 -2 7 15.18 1.62
3 -2 7 15.57 2.07
3 -2 7 17.1 1.63
4 -2 7 0.29 0.45
4 -2 7 0.84 0.51
4 -2 7 -0.1 0.37
5 -2 7 102.45 9.5
6 -2 7 2.56 0.66
6 -2 7 3.67 0.63
7 -2 7 5.59 0.87
7 -2 7 6.43 0.86
8 -2 7 2.92 0.69
8 -2 7 1.95 0.56
8 -2 7 4.37 0.76
9 -2 7 2.47 0.77
9 -2 7 2.46 0.82
9 -2 7 1.22 0.57
10 -2 7 1.25 0.84
10 -2 7 2.6 0.84
-13 -1 7 1.3 0.46
-11 -1 7 2.04 0.56
10 1 -7 1.53 0.97
-10 -1 7 1 0.49
9 1 -7 0.62 0.81
-9 -1 7 0.56 0.44
8 1 -7 14.24 1.53
-8 -1 7 10.82 1.17
7 1 -7 6.36 0.99
6 1 -7 26.04 2.68
5 1 -7 44.71 4.18
-5 -1 7 41.47 5.3
4 1 -7 68.25 6.38
-4 -1 7 66.06 8.17
3 1 -7 10.18 1.2
3 1 -7 10.49 1.03
-3 -1 7 9.01 1.5
-3 -1 7 10.08 0.95
2 1 -7 30.82 2.9
2 1 -7 30.73 2.51
-2 -1 7 28.1 3.71
-2 -1 7 29.91 2.44
1 1 -7 36.93 3.62
-1 -1 7 37.52 3.05
-1 -1 7 38.85 4.65
0 1 -7 0.18 0.42
0 -1 7 -0.08 0.4
0 -1 7 -0.23 0.36
-1 1 -7 49.37 4.74
1 -1 7 50.55 4.65
1 -1 7 49.82 6.08
-2 1 -7 24.29 2.47
2 -1 7 25.56 3.16
2 -1 7 25.82 2.43
-3 1 -7 8.12 1.05
3 -1 7 9.02 1.06
3 -1 7 8.11 1.28
4 -1 7 44.41 5.99
4 -1 7 52 4.7
4 -1 7 51.7 4.64
5 -1 7 39.79 3.79
5 -1 7 39.23 3.83
6 -1 7 43.15 3.93
6 -1 7 38.59 3.95
7 -1 7 7.82 1.06
7 -1 7 6.69 0.97
8 -1 7 2.58 0.7
8 -1 7 0.14 0.62
9 -1 7 10.95 1.44
9 -1 7 11.81 1.51
10 -1 7 6.47 1.11
10 -1 7 6.47 1.14
11 -1 7 0.27 0.74
-13 0 7 0.99 0.45
10 0 -7 0.43 0.91
9 0 -7 0.45 0.83
8 0 -7 1 0.77
7 0 -7 6.52 1
6 0 -7 62.37 5.97
5 0 -7 22.54 2.31
-5 0 7 21.47 2.86
4 0 -7 14.6 1.59
-4 0 7 13.06 1.94
2 0 -7 17.97 1.55
2 0 -7 17.44 1.8
-2 0 7 16.03 1.49
-2 0 7 18.62 2.29
1 0 -7 24.14 2.57
-1 0 7 28.18 3.28
0 0 -7 0.91 0.5
0 0 7 0.54 0.44
-1 0 -7 41 3.91
1 0 7 40.01 3.82
1 0 7 41.27 5.01
-2 0 -7 17.95 1.88
2 0 7 18.53 2.4
-3 0 -7 79.9 7.6
3 0 7 81.09 9.75
4 0 7 15.26 1.96
4 0 7 12.86 1.59
5 0 7 13.56 1.58
7 0 7 7.79 1.1
7 0 7 8.71 1.19
8 0 7 0.29 0.7
8 0 7 0.05 0.72
9 0 7 2.94 0.89
9 0 7 2.21 0.89
10 0 7 1.12 0.78
10 0 7 0.47 0.86
11 0 7 0.29 0.78
-12 0 -7 1.01 0.69
10 -1 -7 -0.35 0.88
9 -1 -7 -0.29 0.89
8 -1 -7 2.69 0.89
7 -1 -7 0.74 0.7
6 -1 -7 1.35 0.64
5 -1 -7 27.7 2.8
4 -1 -7 5 0.81
3 -1 -7 18.36 1.98
3 -1 -7 18.89 1.66
-3 1 7 19.47 2.49
2 -1 -7 4.76 0.8
2 -1 -7 5.99 0.68
-2 1 7 7.84 1.13
1 -1 -7 1.09 0.52
-1 1 7 0.97 0.53
0 -1 -7 0.78 0.55
0 1 7 0.73 0.54
-1 -1 -7 0.71 0.52
1 1 7 -0.01 0.56
-2 -1 -7 8.59 1.14
2 1 7 10.48 1.64
-3 -1 -7 7.79 1.03
-4 -1 -7 18.07 2.03
4 1 7 21.71 2.7
5 1 7 29.23 2.89
5 1 7 28.22 3.67
6 1 7 4.62 0.86
7 1 7 0.09 0.71
8 1 7 1.96 0.8
9 1 7 0.2 0.82
9 1 7 2.21 0.91
10 1 7 1.2 0.93
10 1 7 -0.39 0.86
11 1 7 4.05 1.02
-12 -1 -7 1.6 0.7
12 -2 -7 2.25 0.66
-12 2 7 3.84 0.56
10 -2 -7 0.37 0.85
9 -2 -7 0.09 0.86
8 -2 -7 -0.06 0.75
7 -2 -7 16.62 1.91
6 -2 -7 1.66 0.66
5 -2 -7 10.2 1.24
4 -2 -7 8.14 1.19
-4 2 7 12.64 1.6
3 -2 -7 13.1 1.71
3 -2 -7 13.81 1.36
-3 2 7 17.91 2.09
2 -2 -7 6.61 0.84
-2 2 7 4.85 0.91
1 -2 -7 0.94 0.56
-1 2 7 0.74 0.59
0 -2 -7 156.35 14.3
0 2 7 148.09 18.37
-1 -2 -7 2.42 0.59
1 2 7 2.17 0.75
-2 -2 -7 5.28 0.73
2 2 7 4.77 0.98
-3 -2 -7 23.89 2.51
3 2 7 26.74 3.38
-4 -2 -7 15.69 1.77
4 2 7 16.97 2.43
5 2 7 1.16 0.7
6 2 7 1.89 0.75
7 2 7 5.64 0.99
8 2 7 -0.83 0.79
9 2 7 1.28 0.9
9 2 7 1.98 0.86
10 2 7 5.31 1.07
-11 -2 -7 0.27 0.67
11 2 7 0.68 0.78
-12 -2 -7 1.23 0.67
12 -3 -7 0.21 0.53
-12 3 7 0.43 0.45
-11 3 7 1.78 0.53
10 -3 -7 3.95 1.02
9 -3 -7 1.77 0.87
8 -3 -7 0.51 0.79
7 -3 -7 6.82 1.05
6 -3 -7 3.57 0.77
5 -3 -7 2.49 0.73
4 -3 -7 1.15 0.66
-4 3 7 1.18 0.56
3 -3 -7 50.11 4.94
-3 3 7 52.53 6.34
2 -3 -7 29.02 2.8
-2 3 7 26.4 3.63
1 -3 -7 36.16 3.64
-1 3 7 38.33 4.73
0 -3 -7 6.2 0.89
-1 -3 -7 28.76 2.84
-2 -3 -7 35.4 3.46
-3 -3 -7 35.53 3.49
-4 -3 -7 1.61 0.67
-5 -3 -7 3.97 0.85
5 3 7 3.35 0.91
10 3 7 3.36 1.08
-11 -3 -7 -0.68 0.63
11 3 7 -0.39 0.79
-12 -3 -7 2.33 0.7
12 -4 -7 -0.23 0.48
-12 4 7 0.23 0.45
11 -4 -7 0.75 0.68
-11 4 7 1.22 0.5
-10 4 7 3.19 0.57
9 -4 -7 6.04 1.12
8 -4 -7 4.75 0.98
7 -4 -7 1.4 0.75
6 -4 -7 1.26 0.69
5 -4 -7 7.94 1.07
4 -4 -7 0.85 0.62
-4 4 7 0.93 0.58
3 -4 -7 11.54 1.48
-3 4 7 11.39 1.93
2 -4 -7 10.73 1.47
-2 4 7 13.09 2.08
1 -4 -7 18.39 2.03
0 -4 -7 1.51 0.65
-1 -4 -7 27.15 2.73
-2 -4 -7 13.14 1.56
-3 -4 -7 7.7 1.05
-4 -4 -7 9.96 1.25
-5 -4 -7 3.69 0.75
5 4 7 1.81 0.89
-10 -4 -7 0.98 0.62
10 4 7 0.21 0.85
-11 -4 -7 0.89 0.65
-12 -4 -7 0.69 0.6
12 -5 -7 0.55 0.51
11 -5 -7 -0.16 0.61
10 -5 -7 -0.46 0.69
9 -5 -7 0.54 0.8
8 -5 -7 7.02 1.13
7 -5 -7 0.25 0.71
6 -5 -7 6.43 0.99
5 -5 -7 2.88 0.69
4 -5 -7 7.79 0.98
-4 5 7 5.26 1.05
3 -5 -7 1.14 0.72
-3 5 7 0.61 0.73
2 -5 -7 6.07 0.94
1 -5 -7 1.16 0.71
0 -5 -7 1.5 0.64
-1 -5 -7 1.03 0.65
-2 -5 -7 15.33 1.78
-3 -5 -7 3.68 0.81
-4 -5 -7 2.1 0.73
-5 -5 -7 13.24 1.64
-8 -5 -7 14.14 1.39
-9 -5 -7 3.46 0.69
-10 -5 -7 2.43 0.68
10 5 7 1.62 0.95
-11 -5 -7 2.81 0.68
11 -6 -7 0.43 0.58
10 -6 -7 4.48 0.93
9 -6 -7 0.25 0.76
9 -6 -7 -1.3 0.72
8 -6 -7 18.27 2.02
8 -6 -7 16.12 2.11
7 -6 -7 -0.99 0.65
7 -6 -7 1.01 0.72
6 -6 -7 3.09 0.79
5 -6 -7 6.67 1.01
4 -6 -7 1.9 0.68
-4 6 7 1.43 0.74
3 -6 -7 6.57 0.91
-3 6 7 2.96 0.99
2 -6 -7 7.72 1.09
1 -6 -7 -0.42 0.69
0 -6 -7 17.18 1.87
-1 -6 -7 1.07 0.66
-2 -6 -7 12.25 1.54
-3 -6 -7 2.25 0.75
-4 -6 -7 -0.04 0.68
-4 -6 -7 0.2 0.46
-5 -6 -7 15.56 1.73
-5 -6 -7 12.75 1.63
-8 -6 -7 0.88 0.57
-9 -6 -7 1.85 0.62
-10 -6 -7 3.79 0.7
-11 -6 -7 -0.13 0.55
11 -7 -7 -0.62 0.55
10 -7 -7 1.6 0.72
9 -7 -7 -0.31 0.71
8 -7 -7 3.49 0.82
8 -7 -7 1.3 0.81
7 -7 -7 1.09 0.74
7 -7 -7 1.24 0.75
6 -7 -7 12.34 1.67
6 -7 -7 13.25 1.59
5 -7 -7 6.84 1.02
5 -7 -7 6.86 1.05
4 -7 -7 0.86 0.57
4 -7 -7 1.8 0.65
-4 7 7 0.12 0.71
3 -7 -7 28.11 2.74
-3 7 7 25.01 3.62
2 -7 -7 0.22 0.69
1 -7 -7 3.3 0.82
0 -7 -7 0.35 0.6
-1 -7 -7 4.65 0.85
-2 -7 -7 0.97 0.68
-3 -7 -7 15.99 1.83
-3 -7 -7 15.32 1.75
-4 -7 -7 10.32 1.38
-4 -7 -7 10.94 1.33
-5 -7 -7 1.1 0.57
-5 -7 -7 1.51 0.78
-6 -7 -7 13.67 1.64
-7 -7 -7 3.49 0.75
-10 -7 -7 -0.71 0.53
-11 -7 -7 -0.39 0.47
10 -8 -7 1.05 0.66
9 -8 -7 1.68 0.77
8 -8 -7 11.99 1.59
7 -8 -7 0.47 0.7
7 -8 -7 1.61 0.75
6 -8 -7 4.75 0.92
6 -8 -7 6.18 1
5 -8 -7 0.72 0.62
5 -8 -7 1.23 0.66
4 -8 -7 4.28 0.78
4 -8 -7 3.26 0.69
-4 8 7 1.25 0.89
3 -8 -7 10.38 1.43
3 -8 -7 13.44 1.49
-3 8 7 11.07 1.77
2 -8 -7 -0.81 0.68
1 -8 -7 15.78 1.85
0 -8 -7 0 0.61
-1 -8 -7 5.92 0.93
-2 -8 -7 0.52 0.67
-2 -8 -7 -0.16 0.46
-3 -8 -7 1.64 0.48
-3 -8 -7 0.75 0.74
-3 -8 -7 2.04 0.54
-4 -8 -7 1.6 0.8
-4 -8 -7 2.71 0.58
-4 -8 -7 3.13 0.7
-5 -8 -7 13.16 1.66
-5 -8 -7 11.14 1.46
-6 -8 -7 0.75 0.56
-7 -8 -7 17.1 2.01
-8 -8 -7 3.14 0.82
-9 -8 -7 2.06 0.69
-10 -8 -7 -0.34 0.43
10 -9 -7 0.89 0.62
9 -9 -7 8.21 1.22
8 -9 -7 2.99 0.85
7 -9 -7 1.61 0.76
7 -9 -7 1.44 0.72
6 -9 -7 -0.22 0.67
6 -9 -7 0.78 0.65
5 -9 -7 13.78 1.8
5 -9 -7 15.5 1.72
4 -9 -7 1.02 0.59
4 -9 -7 0.32 0.64
-4 9 7 -0.78 0.84
3 -9 -7 32.25 3.92
3 -9 -7 40.11 3.81
3 -9 -7 38.63 3.69
-3 9 7 35.74 4.86
2 -9 -7 0.29 0.72
2 -9 -7 -0.39 0.49
1 -9 -7 11.78 1.31
1 -9 -7 9.28 1.11
1 -9 -7 7.66 1.16
0 -9 -7 2.59 0.55
0 -9 -7 2.54 0.76
-1 -9 -7 7.04 0.94
-1 -9 -7 4.93 0.97
-2 -9 -7 0.19 0.55
-2 -9 -7 0.44 0.72
-3 -9 -7 36.91 3.34
-3 -9 -7 39.23 3.97
-3 -9 -7 42.99 4.18
-4 -9 -7 9.26 0.99
-4 -9 -7 10.58 1.33
-4 -9 -7 8.55 1.27
-5 -9 -7 23.26 2.48
-5 -9 -7 23.62 2.44
-5 -9 -7 19.59 1.98
-6 -9 -7 12.35 1.58
-7 -9 -7 2.23 0.68
-8 -9 -7 9.9 1.35
-9 -9 -7 -0.08 0.68
-10 -9 -7 1.37 0.44
9 -10 -7 -0.69 0.62
8 -10 -7 5.67 1.02
7 -10 -7 0.95 0.73
6 -10 -7 1.26 0.65
6 -10 -7 0.39 0.71
5 -10 -7 7.48 1.15
5 -10 -7 9.46 1.24
4 -10 -7 1.54 0.71
4 -10 -7 0.83 0.62
3 -10 -7 5.81 0.85
3 -10 -7 6.25 0.97
-3 10 7 3.01 1.18
2 -10 -7 1.42 0.34
2 -10 -7 1.5 0.74
2 -10 -7 0.54 0.51
1 -10 -7 1.83 0.83
1 -10 -7 1.51 0.45
1 -10 -7 0.95 0.49
0 -10 -7 12.48 1.68
0 -10 -7 13.58 1.53
-1 -10 -7 2.17 0.58
-1 -10 -7 2.36 0.76
-2 -10 -7 6.31 0.94
-2 -10 -7 6.87 1.1
-2 -10 -7 6.85 0.82
-3 -10 -7 6.55 0.82
-3 -10 -7 6.94 0.93
-3 -10 -7 4.91 1.06
-4 -10 -7 1.06 0.86
-4 -10 -7 1.67 0.64
-4 -10 -7 0.99 0.58
-5 -10 -7 1.1 0.63
-5 -10 -7 1.06 0.6
-5 -10 -7 0.14 0.85
-6 -10 -7 7.52 1.12
-7 -10 -7 1.38 0.68
-8 -10 -7 0.76 0.7
-9 -10 -7 3.64 0.83
9 -11 -7 0.4 0.56
8 -11 -7 4.39 0.86
7 -11 -7 -0.07 0.65
6 -11 -7 0.1 0.65
5 -11 -7 1.22 0.68
4 -11 -7 12.37 1.6
4 -11 -7 12.96 1.58
3 -11 -7 0.82 0.55
3 -11 -7 1.86 0.77
-3 11 7 -0.95 0.92
2 -11 -7 5.11 0.83
2 -11 -7 6.75 1.02
1 -11 -7 1.56 0.37
1 -11 -7 0.93 0.81
1 -11 -7 0.02 0.5
0 -11 -7 1.22 0.82
0 -11 -7 1.15 0.45
-1 -11 -7 0.34 0.76
-1 -11 -7 1.42 0.52
-2 -11 -7 11.45 1.41
-2 -11 -7 10.5 1.21
-2 -11 -7 11.45 1.45
-3 -11 -7 6.83 0.94
-3 -11 -7 5.99 0.85
-3 -11 -7 5.63 1.09
-4 -11 -7 4.68 0.75
-4 -11 -7 1.93 0.85
-4 -11 -7 1.63 0.66
-5 -11 -7 4.59 0.84
-5 -11 -7 3.44 0.7
-5 -11 -7 2.54 1.03
-6 -11 -7 -0.11 0.69
-7 -11 -7 2.67 0.78
-8 -11 -7 3.78 0.88
8 -12 -7 2.66 0.67
7 -12 -7 -0.22 0.57
6 -12 -7 1.78 0.65
5 -12 -7 0.65 0.59
4 -12 -7 -0.24 0.53
3 -12 -7 4.6 0.76
3 -12 -7 5.9 0.96
-3 12 7 2.31 1.17
2 -12 -7 6.57 1.03
2 -12 -7 11.85 1.34
1 -12 -7 -0.17 0.48
1 -12 -7 0.37 0.8
0 -12 -7 12.05 1.6
-1 -12 -7 -0.42 0.79
-1 -12 -7 0.63 0.59
-1 -12 -7 -0.06 0.46
-2 -12 -7 29.05 2.94
-2 -12 -7 25.48 2.91
-2 -12 -7 26.94 2.43
-3 -12 -7 1.53 0.6
-3 -12 -7 -0.21 0.74
-3 -12 -7 1.19 0.62
-4 -12 -7 0.27 0.61
-4 -12 -7 -0.22 0.62
-5 -12 -7 0.47 0.58
-5 -12 -7 0.94 0.66
-6 -12 -7 17.34 2.04
-7 -12 -7 2.73 0.78
7 -13 -7 2.3 0.61
6 -13 -7 1.04 0.57
5 -13 -7 2.86 0.67
4 -13 -7 0.49 0.54
3 -13 -7 0.83 0.53
2 -13 -7 19.92 2.2
-2 13 7 20.04 3.16
1 -13 -7 2.8 0.61
-1 -13 -7 0.95 0.6
-2 -13 -7 36.02 3.82
-2 -13 -7 38 3.15
-3 -13 -7 0.48 0.52
-3 -13 -7 1.16 0.61
-4 -13 -7 0.21 0.6
-4 -13 -7 1.07 0.56
-5 -13 -7 1.21 0.61
-5 -13 -7 0.8 0.57
-6 -13 -7 0.4 0.5
5 -14 -7 -0.49 0.47
4 -14 -7 3.97 0.7
3 -14 -7 4.61 0.75
2 -14 -7 0.53 0.46
0 -14 -7 0.41 0.56
-1 -14 -7 18.91 1.76
-2 -14 -7 -0.09 0.56
-3 -14 -7 5.81 0.79
-4 -14 -7 1.06 0.55
-5 -14 -7 0.38 0.52
3 -15 -7 4.58 0.7
2 -15 -7 8.43 0.96
1 -15 -7 5.39 0.72
0 -15 -7 2.83 0.61
-1 -15 -7 2.21 0.54
-2 -15 -7 13.74 1.34
-3 -15 -7 5.77 0.74
-3 -15 -7 5.7 0.61
-4 -19 8 0.99 0.4
-4 -19 8 2.09 0.63
-3 -19 8 0.67 0.58
-2 -19 8 7.92 1.23
-1 -19 8 2.81 0.72
0 -19 8 0.09 0.57
1 -19 8 3.97 0.82
2 -19 8 11.07 1.56
3 -19 8 0.86 0.57
3 -19 8 1.24 0.65
4 -19 8 1.83 0.67
4 -19 8 1.8 0.58
-5 -18 8 1.87 0.44
-5 -18 8 2.89 0.7
-4 -18 8 4.86 0.59
-4 -18 8 6.02 0.96
-3 -18 8 -0.05 0.67
-3 -18 8 0.65 0.38
-2 -18 8 4.79 0.97
-2 -18 8 6.03 0.64
-1 -18 8 0.12 0.34
-1 -18 8 -0.82 0.66
0 -18 8 0.63 0.32
0 -18 8 0.68 0.66
1 -18 8 -0.47 0.63
2 -18 8 6.37 0.94
2 -18 8 5.46 0.98
3 -18 8 0.67 0.63
3 -18 8 1.35 0.6
4 -18 8 4.21 0.82
4 -18 8 3.97 0.74
5 -18 8 1.11 0.53
-7 -17 8 0.18 0.39
-6 -17 8 1.25 0.45
-5 -17 8 0.89 0.7
-5 -17 8 0.05 0.44
-4 -17 8 9.25 0.94
-4 -17 8 12.88 1.53
-3 -17 8 0.57 0.42
-3 -17 8 -0.41 0.77
-3 -17 8 1.3 0.44
-2 -17 8 0.04 0.39
-2 -17 8 0.81 0.39
-2 -17 8 -0.67 0.76
-1 -17 8 15.29 1.41
-1 -17 8 17.34 2.04
0 -17 8 3.43 0.44
0 -17 8 2.69 0.88
1 -17 8 21.02 2.2
1 -17 8 17.8 2.35
1 -17 8 18.77 1.62
2 -17 8 0.32 0.61
2 -17 8 1.1 0.65
3 -17 8 0.7 0.64
3 -17 8 1.28 0.6
4 -17 8 10.47 1.33
4 -17 8 9.69 1.45
5 -17 8 0.24 0.51
6 -17 8 0.55 0.48
7 -17 8 0.12 0.42
-8 -16 8 0.8 0.41
-8 -16 8 0.26 0.45
-7 -16 8 0.4 0.49
-7 -16 8 0.86 0.46
-6 -16 8 1.3 0.49
-5 -16 8 3.31 0.81
-5 -16 8 1.41 0.52
-4 -16 8 4.47 0.59
-4 -16 8 5 0.64
-4 -16 8 4.59 1.04
-3 -16 8 7.17 1.06
-3 -16 8 7.28 0.85
-3 -16 8 7.65 0.75
-2 -16 8 13.11 1.65
-2 -16 8 15.55 1.26
-2 -16 8 15.17 1.33
-1 -16 8 37.44 3.01
-1 -16 8 34.63 3.55
0 -16 8 9.56 1.37
0 -16 8 8.29 0.87
0 -16 8 9.09 1.1
0 -16 8 11.41 1.39
1 -16 8 43.01 3.55
1 -16 8 41.26 4.87
1 -16 8 45.23 4.55
2 -16 8 18.26 1.92
2 -16 8 14.21 2.04
3 -16 8 7.29 1.06
3 -16 8 8.61 1.16
4 -16 8 3.53 0.74
4 -16 8 5.11 0.82
5 -16 8 2.6 0.62
6 -16 8 0.89 0.53
6 -16 8 0.61 0.48
7 -16 8 0.73 0.46
7 -16 8 -0.25 0.5
8 -16 8 -0.25 0.51
-8 -15 8 1.01 0.53
-8 -15 8 1.7 0.46
-7 -15 8 2.33 0.61
-7 -15 8 2.71 0.53
-6 -15 8 0.63 0.47
-6 -15 8 0.38 0.56
-5 -15 8 2.49 0.83
-5 -15 8 3.13 0.65
-5 -15 8 3.05 0.56
-5 -15 8 5.54 0.96
-4 -15 8 0.89 0.46
-4 -15 8 0.57 0.42
-4 -15 8 0.06 0.61
-3 -15 8 5.3 0.64
-3 -15 8 5.63 0.61
-3 -15 8 4.92 0.88
-2 -15 8 1.6 0.4
-2 -15 8 1.98 0.41
-2 -15 8 1.18 0.57
-1 -15 8 3.41 0.48
-1 -15 8 4 0.66
-1 -15 8 3.34 0.46
0 -15 8 0.07 0.42
0 -15 8 0.75 0.58
0 -15 8 0.19 0.28
1 -15 8 4.91 0.83
1 -15 8 5.83 0.55
1 -15 8 5.11 0.99
2 -15 8 2.15 0.6
2 -15 8 1.95 0.7
3 -15 8 4.48 0.73
3 -15 8 3.82 0.83
3 -15 8 4.27 0.82
4 -15 8 1.35 0.6
4 -15 8 0.94 0.51
4 -15 8 0.52 0.48
5 -15 8 1.68 0.54
5 -15 8 2.27 0.55
6 -15 8 1.26 0.54
6 -15 8 0.19 0.47
7 -15 8 2.72 0.63
7 -15 8 3.2 0.59
8 -15 8 2.06 0.58
-9 -14 8 1.25 0.58
-9 -14 8 0.78 0.43
-8 -14 8 0.35 0.58
-8 -14 8 1.56 0.48
-7 -14 8 3.35 0.56
-7 -14 8 3.13 0.69
-6 -14 8 -0.51 0.57
-6 -14 8 0.73 0.46
-6 -14 8 0.25 0.7
-5 -14 8 3.84 0.55
-5 -14 8 4.67 0.84
-5 -14 8 3.41 0.66
-5 -14 8 2.25 0.8
-4 -14 8 5.13 0.62
-4 -14 8 4.68 0.58
-4 -14 8 5.8 0.89
-4 -14 8 3.46 0.68
-3 -14 8 1.54 0.54
-3 -14 8 1.96 0.61
-3 -14 8 1.86 0.42
-3 -14 8 1.43 0.41
-2 -14 8 3.16 0.46
-2 -14 8 3.9 0.68
-2 -14 8 3.05 0.46
-1 -14 8 7.42 0.8
-1 -14 8 9.38 1.15
-1 -14 8 10.31 1.08
-1 -14 8 8.19 1.06
-1 -14 8 8.27 0.82
0 -14 8 5.06 0.58
0 -14 8 6.56 0.86
0 -14 8 5.43 0.82
0 -14 8 5.55 0.74
1 -14 8 7.44 1.03
1 -14 8 7.48 0.91
1 -14 8 8.63 1.15
1 -14 8 7.23 0.72
1 -14 8 7.98 1.1
1 -14 8 8.35 0.95
2 -14 8 3.12 0.65
2 -14 8 3.39 0.77
2 -14 8 2.92 0.61
2 -14 8 3.03 0.73
3 -14 8 1.76 0.48
3 -14 8 1.67 0.51
3 -14 8 1.6 0.6
3 -14 8 1.95 0.7
4 -14 8 2.95 0.73
4 -14 8 2.72 0.6
4 -14 8 3.98 0.61
4 -14 8 3.51 0.7
5 -14 8 5.64 0.8
5 -14 8 6.58 0.86
6 -14 8 0.34 0.44
6 -14 8 0.57 0.48
7 -14 8 5.66 0.82
8 -14 8 2.14 0.6
9 -14 8 1.29 0.58
-10 -13 8 3.87 0.69
-10 -13 8 3.73 0.5
-9 -13 8 3.44 0.71
-9 -13 8 3.86 0.54
-8 -13 8 11.37 1.03
-8 -13 8 11.2 1.29
-7 -13 8 5.78 0.8
-7 -13 8 5.49 0.65
-7 -13 8 2.83 0.91
-6 -13 8 12.03 1.53
-6 -13 8 12.4 1.14
-6 -13 8 11.85 1.25
-5 -13 8 1.51 0.46
-5 -13 8 1.89 0.7
-5 -13 8 1.82 0.59
-4 -13 8 5.67 0.61
-4 -13 8 5.53 0.72
-4 -13 8 4.96 0.85
-4 -13 8 3.79 0.55
-3 -13 8 0.21 0.36
-3 -13 8 0.57 0.36
-3 -13 8 0.46 0.53
-3 -13 8 0.93 0.47
-2 -13 8 1.79 0.64
-2 -13 8 0.8 0.49
-2 -13 8 0.92 0.34
-2 -13 8 1.2 0.35
-2 -13 8 1.09 0.49
-1 -13 8 1.81 0.37
-1 -13 8 2.36 0.36
-1 -13 8 2.69 0.62
-1 -13 8 2.8 0.61
0 -13 8 0.18 0.45
0 -13 8 0.07 0.25
0 -13 8 0.48 0.58
0 -13 8 -0.29 0.47
1 -13 8 1.97 0.52
1 -13 8 2.65 0.66
1 -13 8 2.17 0.54
2 -13 8 1.11 0.43
2 -13 8 0.57 0.56
2 -13 8 0.86 0.44
2 -13 8 0.47 0.54
2 -13 8 0.27 0.44
3 -13 8 3.99 0.55
3 -13 8 3.22 0.66
3 -13 8 2.67 0.67
3 -13 8 2.01 0.54
4 -13 8 9.16 1.06
4 -13 8 7.67 0.99
4 -13 8 7.83 1.15
4 -13 8 7.11 1.02
5 -13 8 1.41 0.62
5 -13 8 1.27 0.44
5 -13 8 1.03 0.47
6 -13 8 8.39 1.02
6 -13 8 6.86 1.01
7 -13 8 5.77 0.83
8 -13 8 9.73 1.23
9 -13 8 2.99 0.64
10 -13 8 3.6 0.68
-10 -12 8 1.99 0.43
-10 -12 8 2.22 0.62
-9 -12 8 15.23 1.55
-9 -12 8 15.18 1.3
-8 -12 8 5.87 0.81
-7 -12 8 21.34 1.58
-7 -12 8 17.27 2.19
-7 -12 8 18.29 1.82
-6 -12 8 1.93 0.47
-6 -12 8 1.94 0.73
-6 -12 8 2.25 0.62
-5 -12 8 0.3 0.57
-5 -12 8 0.82 0.65
-5 -12 8 1.24 0.41
-4 -12 8 0.55 0.5
-4 -12 8 -0.12 0.54
-4 -12 8 0.17 0.37
-4 -12 8 0.3 0.35
-3 -12 8 9.46 1.25
-3 -12 8 11.32 1.1
-3 -12 8 9.54 0.9
-3 -12 8 10.23 1.11
-3 -12 8 9.51 0.95
-2 -12 8 6 0.6
-2 -12 8 5.3 0.56
-2 -12 8 5.25 0.76
-1 -12 8 4.04 0.69
-1 -12 8 4.89 0.73
-1 -12 8 4.67 0.83
-1 -12 8 4.76 0.5
0 -12 8 3.52 0.71
0 -12 8 3.34 0.6
1 -12 8 4.88 0.8
1 -12 8 3.94 0.67
1 -12 8 3.76 0.61
2 -12 8 7.97 0.96
2 -12 8 7.33 0.93
2 -12 8 4.88 0.71
2 -12 8 5.47 0.79
3 -12 8 10.46 1.31
3 -12 8 12.27 1.41
3 -12 8 10.89 1.07
3 -12 8 11.01 1.21
3 -12 8 9.99 1.28
4 -12 8 0.29 0.35
4 -12 8 0.52 0.46
4 -12 8 0.51 0.42
4 -12 8 0.49 0.53
5 -12 8 0.33 0.43
5 -12 8 0.81 0.56
5 -12 8 0.33 0.36
6 -12 8 1.81 0.49
7 -12 8 15.81 1.7
8 -12 8 10.77 1.31
9 -12 8 11.42 1.35
10 -12 8 1.62 0.58
-11 -11 8 6.78 0.82
-11 -11 8 5.65 0.61
-10 -11 8 0.15 0.62
-10 -11 8 0.29 0.39
-9 -11 8 2.25 0.51
-9 -11 8 4.07 0.7
-8 -11 8 2.34 0.52
-8 -11 8 3.03 0.68
-8 -11 8 2.25 0.85
-7 -11 8 7.23 1.14
-7 -11 8 6.84 0.76
-7 -11 8 10.19 1.06
-6 -11 8 0.66 0.41
-6 -11 8 1.56 0.57
-6 -11 8 0.69 0.66
-5 -11 8 1.17 0.63
-5 -11 8 0.68 0.38
-5 -11 8 0.89 0.54
-4 -11 8 2.07 0.42
-4 -11 8 3.03 0.59
-4 -11 8 0.94 0.37
-4 -11 8 1.24 0.61
-3 -11 8 8.65 0.84
-3 -11 8 10.27 1.03
-2 -11 8 0.86 0.33
-2 -11 8 0.85 0.52
-1 -11 8 5.79 0.82
-1 -11 8 4.18 0.68
0 -11 8 2.27 0.63
0 -11 8 2.82 0.54
1 -11 8 8.22 0.93
1 -11 8 9.17 1.17
1 -11 8 9.16 1.12
2 -11 8 1.31 0.57
2 -11 8 1.33 0.54
2 -11 8 1.38 0.45
3 -11 8 7.36 1.09
3 -11 8 8.07 0.87
3 -11 8 8.31 1.02
4 -11 8 1.43 0.5
4 -11 8 2.1 0.45
4 -11 8 1.77 0.56
5 -11 8 0.27 0.33
5 -11 8 0.71 0.42
5 -11 8 0.65 0.49
6 -11 8 4.18 0.78
6 -11 8 4.05 0.64
7 -11 8 11.33 1.3
8 -11 8 1.33 0.55
9 -11 8 9.22 1.14
10 -11 8 0.68 0.54
11 -11 8 5.16 0.81
-11 -10 8 1.75 0.63
-10 -10 8 11.53 1.08
-10 -10 8 13.64 1.38
-9 -10 8 1.89 0.47
-9 -10 8 2.85 0.7
-8 -10 8 14.4 1.39
-8 -10 8 11.54 1.15
-7 -10 8 2.19 0.64
-7 -10 8 2.7 0.47
-7 -10 8 2.07 0.75
-6 -10 8 5.23 0.8
-6 -10 8 6.65 0.65
-6 -10 8 6.47 0.99
-5 -10 8 4.7 0.77
-5 -10 8 4.5 0.7
-5 -10 8 4.72 0.54
-5 -10 8 5.13 0.83
-4 -10 8 4.14 0.71
-4 -10 8 5.06 0.52
-3 -10 8 1.55 0.54
-2 -10 8 30.23 2.59
-2 -10 8 30.95 3.01
-1 -10 8 1.33 0.63
-1 -10 8 1.26 0.5
0 -10 8 86.98 8.09
0 -10 8 86.82 6.96
1 -10 8 2 0.65
1 -10 8 1.2 0.45
2 -10 8 35.54 2.87
2 -10 8 34.11 3.35
3 -10 8 2.43 0.63
3 -10 8 1.91 0.44
4 -10 8 3.88 0.69
5 -10 8 5.62 0.69
5 -10 8 3.3 0.71
6 -10 8 3.87 0.58
6 -10 8 3.39 0.69
7 -10 8 1.99 0.5
7 -10 8 3.58 0.67
8 -10 8 15.21 1.68
9 -10 8 5.53 0.82
10 -10 8 10.07 1.26
11 -10 8 1.12 0.58
-11 -9 8 2.68 0.69
-11 -9 8 2.86 0.48
-10 -9 8 2.68 0.46
-10 -9 8 1.62 0.67
-10 -9 8 2.28 0.46
-9 -9 8 1.3 0.65
-9 -9 8 1.06 0.41
-9 -9 8 1.09 0.43
-8 -9 8 2.51 0.48
-8 -9 8 2.31 0.65
-8 -9 8 1.9 0.44
-7 -9 8 1.23 0.38
-7 -9 8 1.36 0.68
-7 -9 8 1.01 0.57
-7 -9 8 0.92 0.4
-6 -9 8 24.13 2.37
-6 -9 8 28.15 2.04
-6 -9 8 28.15 2.77
-5 -9 8 3.57 0.67
-5 -9 8 4.96 0.52
-4 -9 8 7.77 0.9
-3 -9 8 1.33 0.53
-2 -9 8 10.64 1.27
-2 -9 8 10.2 1.06
-1 -9 8 2.71 0.64
-1 -9 8 1.35 0.51
0 9 -8 2.62 0.54
0 -9 8 2.44 0.68
0 -9 8 1.81 0.52
-1 9 -8 6.16 0.66
1 -9 8 5.09 0.69
1 -9 8 4.21 0.79
-2 9 -8 6.39 0.67
2 -9 8 4.94 0.81
2 -9 8 6.09 0.7
3 -9 8 3.79 0.54
3 -9 8 2.98 0.63
4 -9 8 6.62 0.7
4 -9 8 5.92 0.87
5 -9 8 2.01 0.54
6 -9 8 11.48 1.31
6 -9 8 15.81 1.47
7 -9 8 1.32 0.55
7 -9 8 1.75 0.46
8 -9 8 1.42 0.53
9 -9 8 4.42 0.74
10 -9 8 5.41 0.82
11 -9 8 2.41 0.66
-12 -8 8 0.91 0.59
-12 -8 8 -0.12 0.37
-11 -8 8 0.07 0.4
-11 -8 8 0.22 0.62
-10 -8 8 1.98 0.46
-10 -8 8 2.34 0.65
-9 -8 8 1.53 0.62
-9 -8 8 1.07 0.43
-9 -8 8 1.02 0.41
-8 -8 8 8.65 0.84
-8 -8 8 7.72 0.93
-7 -8 8 0.22 0.62
-7 -8 8 0.79 0.38
-7 -8 8 0.78 0.52
-7 -8 8 0.34 0.37
-6 -8 8 6.51 1.06
-6 -8 8 7.65 0.72
-6 -8 8 8.74 0.87
-6 -8 8 8.31 0.73
-6 -8 8 7.87 0.93
-5 -8 8 4.5 0.7
-5 -8 8 5.72 0.56
-4 -8 8 2.7 0.59
-3 -8 8 24.51 2.12
-2 -8 8 3.83 0.78
-2 -8 8 3.03 0.61
1 8 -8 2.47 0.59
-1 -8 8 2.27 0.65
-1 -8 8 1.93 0.54
0 8 -8 6.07 0.74
0 -8 8 6.29 0.89
0 -8 8 6.44 0.75
-1 8 -8 5.56 0.68
1 -8 8 5.17 0.67
1 -8 8 5.28 0.84
-2 8 -8 6.08 0.67
2 -8 8 5.21 0.65
2 -8 8 4.62 0.77
3 -8 8 18.39 1.94
3 -8 8 19.52 1.64
4 -8 8 2.35 0.44
4 -8 8 2.1 0.59
5 -8 8 2.51 0.38
5 -8 8 1.7 0.53
6 -8 8 1.96 0.58
6 -8 8 3.32 0.47
6 -8 8 2.79 0.45
7 -8 8 1.23 0.55
7 -8 8 0.62 0.39
7 -8 8 0.62 0.41
8 -8 8 2.95 0.72
8 -8 8 4.35 0.63
8 -8 8 3.44 0.58
9 -8 8 2.45 0.58
9 -8 8 3.02 0.65
10 -8 8 2.63 0.65
11 -8 8 0.83 0.58
-12 -7 8 3.73 0.7
-12 -7 8 4.34 0.55
-11 -7 8 0.56 0.58
-11 -7 8 -0.08 0.42
-10 -7 8 3.12 0.68
-9 -7 8 7.14 0.86
-9 -7 8 6.75 0.68
-8 -7 8 4.09 0.51
-8 -7 8 4 0.68
-7 -7 8 8.73 0.85
-7 -7 8 9.89 1.2
-7 -7 8 8.51 1.02
-6 -7 8 1.12 0.36
-6 -7 8 1.35 0.48
-5 -7 8 0.23 0.45
-4 -7 8 10.53 1.13
-3 -7 8 25.38 2.35
-3 -7 8 21.04 2.02
2 7 -8 2.62 0.69
-2 -7 8 1.51 0.53
-2 -7 8 2.79 0.66
1 7 -8 17.25 1.52
-1 -7 8 15.04 1.77
-1 -7 8 17.34 1.52
0 7 -8 1.28 0.48
0 -7 8 0.88 0.44
0 -7 8 0.86 0.59
-1 7 -8 9.19 0.96
1 -7 8 8.91 1.15
1 -7 8 8.98 0.96
2 -7 8 3.3 0.63
2 -7 8 3.26 0.52
3 -7 8 34.78 3.47
3 -7 8 37.61 2.97
4 -7 8 14.65 1.28
4 -7 8 13.58 1.53
5 -7 8 0.54 0.45
5 -7 8 0.47 0.32
6 -7 8 3.49 0.68
6 -7 8 4.69 0.59
7 -7 8 7.81 0.91
7 -7 8 6.48 0.94
7 -7 8 6.05 0.8
8 -7 8 1.09 0.57
8 -7 8 0.92 0.47
8 -7 8 1.65 0.51
9 -7 8 8.13 0.95
9 -7 8 5.99 0.91
10 -7 8 2.02 0.61
11 -7 8 0.31 0.59
-12 -6 8 0.31 0.42
-12 -6 8 0.44 0.55
-11 -6 8 -0.41 0.58
-11 -6 8 0.35 0.45
-10 -6 8 -0.42 0.59
-9 -6 8 4.23 0.71
-8 -6 8 2.29 0.42
-8 -6 8 2.82 0.58
-7 -6 8 0.72 0.48
-7 -6 8 0.11 0.53
-7 -6 8 0.62 0.34
-6 -6 8 5.94 0.71
-5 -6 8 2.21 0.52
-4 -6 8 10.86 1.13
-3 -6 8 11.75 1.22
-3 -6 8 12.14 1.4
2 6 -8 63.08 5.22
-2 -6 8 65.19 5.95
-2 -6 8 62.95 5.13
1 6 -8 6.95 0.79
-1 -6 8 6.2 0.74
-1 -6 8 7.42 0.9
0 6 -8 31.93 2.64
0 -6 8 31.52 3.02
0 -6 8 30.93 2.6
1 -6 8 4.96 0.74
1 -6 8 5.55 0.65
2 -6 8 68.75 6.5
2 -6 8 70.95 5.59
3 -6 8 4.56 0.53
3 -6 8 2.77 0.65
4 -6 8 10.91 1.05
4 -6 8 11.25 1.15
4 -6 8 9.95 1.29
5 -6 8 0.68 0.53
5 -6 8 0.75 0.36
6 -6 8 8.15 1.03
6 -6 8 8.39 0.99
7 -6 8 0.19 0.5
7 -6 8 0.19 0.39
7 -6 8 0.4 0.39
8 -6 8 0.94 0.51
8 -6 8 1.22 0.59
8 -6 8 0.83 0.47
9 -6 8 0.99 0.54
9 -6 8 1.36 0.53
9 -6 8 1.38 0.67
10 -6 8 -0.44 0.53
10 -6 8 -0.1 0.55
11 -6 8 0.48 0.59
-12 -5 8 -0.1 0.44
-12 -5 8 -0.07 0.54
-11 -5 8 2.28 0.64
-10 -5 8 4.81 0.76
-9 -5 8 3.33 0.64
8 5 -8 15.67 1.79
-8 -5 8 13.44 1.39
7 5 -8 2.57 0.76
-7 -5 8 2.05 0.52
-7 -5 8 2.28 0.39
6 5 -8 18.41 2.02
5 5 -8 2.16 0.65
-5 -5 8 1.72 0.49
4 5 -8 3.39 0.7
-4 -5 8 3.36 0.59
3 5 -8 24.71 2.51
3 5 -8 24.94 2.24
-3 -5 8 25.71 2.15
-3 -5 8 25.37 2.47
2 5 -8 77.86 7.51
2 5 -8 79.68 6.48
-2 -5 8 82.02 6.37
-2 -5 8 79.2 7.38
1 5 -8 65.29 5.2
-1 -5 8 63.14 5.11
-1 -5 8 62.86 5.93
0 -5 8 0.39 0.4
0 -5 8 0.18 0.47
1 -5 8 49.8 4.78
1 -5 8 53.15 6.27
1 -5 8 50.31 4.11
2 -5 8 70.16 6.69
2 -5 8 73.86 5.76
3 -5 8 26.01 2.63
3 -5 8 27.73 2.24
4 -5 8 0.98 0.54
4 -5 8 1.37 0.41
4 -5 8 1.25 0.4
5 -5 8 0.81 0.59
5 -5 8 1.29 0.43
5 -5 8 1.13 0.41
6 -5 8 19.89 2.12
6 -5 8 20.96 2.06
7 -5 8 0.58 0.45
7 -5 8 0.84 0.43
7 -5 8 1.28 0.55
8 -5 8 16.08 1.79
8 -5 8 15.78 1.85
8 -5 8 18.23 1.8
9 -5 8 0.8 0.58
9 -5 8 1.51 0.53
9 -5 8 1.25 0.69
10 -5 8 1.06 0.56
10 -5 8 1.92 0.68
11 -5 8 0.65 0.6
-12 -4 8 1.18 0.46
-12 -4 8 -0.2 0.52
-11 -4 8 1.19 0.57
10 4 -8 -0.99 0.82
-10 -4 8 0.3 0.54
9 4 -8 -0.12 0.82
-9 -4 8 0.99 0.5
8 4 -8 2.89 0.84
-8 -4 8 1.24 0.48
7 4 -8 0.71 0.7
6 4 -8 1.37 0.68
5 4 -8 24.82 2.49
-5 -4 8 23.38 2.02
4 4 -8 12.64 1.49
-4 -4 8 12.19 1.21
3 4 -8 1.36 0.53
3 4 -8 1.76 0.65
-3 -4 8 1.51 0.52
-3 -4 8 1.33 0.49
2 4 -8 4.93 0.69
2 4 -8 4.89 0.7
-2 -4 8 4.51 0.89
-2 -4 8 4.63 0.64
-2 -4 8 5.96 0.72
1 4 -8 2.5 0.45
1 4 -8 1.98 0.57
-1 -4 8 2.2 0.54
-1 -4 8 2.27 0.5
-1 -4 8 2.07 0.63
0 -4 8 4.63 0.89
0 -4 8 6.32 0.75
0 -4 8 6.34 0.66
1 -4 8 2.27 0.45
1 -4 8 1.66 0.51
1 -4 8 1.28 0.53
2 -4 8 3.99 0.74
2 -4 8 3.98 0.54
2 -4 8 4.84 0.66
3 -4 8 1.02 0.41
3 -4 8 1.13 0.51
3 -4 8 0.81 0.44
4 -4 8 15.77 1.43
4 -4 8 15.74 1.65
4 -4 8 16.21 1.68
5 -4 8 15.06 1.6
6 -4 8 2.7 0.64
6 -4 8 2.55 0.56
7 -4 8 0.54 0.49
7 -4 8 0.64 0.6
8 -4 8 7.43 1.09
8 -4 8 8.01 0.97
8 -4 8 7.33 1.02
9 -4 8 2.49 0.7
9 -4 8 1.81 0.75
9 -4 8 2.54 0.58
10 -4 8 -0.11 0.68
10 -4 8 -0.69 0.69
10 -4 8 -0.55 0.53
11 -4 8 -0.61 0.55
-12 -3 8 0.31 0.5
-12 -3 8 -0.31 0.44
-11 -3 8 -0.78 0.53
10 3 -8 0.47 0.88
-10 -3 8 0 0.52
9 3 -8 -0.17 0.88
-9 -3 8 0.22 0.48
8 3 -8 1.36 0.8
-8 -3 8 0.39 0.43
7 3 -8 6.67 1.08
6 3 -8 13.02 1.62
5 3 -8 2.77 0.7
4 3 -8 73.27 6.98
-4 -3 8 72.65 8.96
-4 -3 8 74.58 5.88
-3 -3 8 11.65 1.24
2 3 -8 79.88 6.44
2 3 -8 73.73 7.47
-2 -3 8 78.03 7.32
-2 -3 8 81.46 6.32
-2 -3 8 83.25 9.62
1 3 -8 1.24 0.4
-1 -3 8 2.61 0.46
-1 -3 8 1.48 0.58
-1 -3 8 2.66 0.5
0 3 -8 0.34 0.36
0 -3 8 -0.27 0.49
0 -3 8 0.51 0.42
0 -3 8 0.05 0.4
1 -3 8 5.44 0.66
1 -3 8 4.13 0.57
1 -3 8 3.6 0.74
2 -3 8 101.02 11.5
2 -3 8 92.94 8.78
2 -3 8 91.15 7.56
3 -3 8 21.52 2.65
3 -3 8 18.62 1.74
3 -3 8 21.38 2.05
4 -3 8 111.31 9.75
4 -3 8 103.39 9.9
4 -3 8 101.24 12.7
5 -3 8 10.45 1.25
5 -3 8 8.97 1
5 -3 8 11.85 1.25
6 -3 8 24.02 2.41
6 -3 8 21.73 2.04
6 -3 8 26.87 2.44
7 -3 8 2.07 0.6
7 -3 8 1.56 0.62
8 -3 8 2.75 0.61
8 -3 8 2.65 0.72
8 -3 8 3.69 0.8
9 -3 8 0.56 0.5
9 -3 8 0.63 0.7
9 -3 8 0.77 0.7
10 -3 8 1.08 0.76
10 -3 8 0.85 0.58
10 -3 8 0.56 0.77
-12 -2 8 3.45 0.6
-12 -2 8 3.21 0.56
-11 -2 8 2.48 0.59
10 2 -8 -0.23 0.93
-10 -2 8 -0.52 0.51
9 2 -8 0.44 0.92
-9 -2 8 0.08 0.46
8 2 -8 0.6 0.82
-8 -2 8 0.02 0.42
7 2 -8 0.37 0.73
6 2 -8 10.05 1.3
5 2 -8 4.36 0.81
4 2 -8 1.51 0.6
-4 -2 8 1.29 0.62
-4 -2 8 1.83 0.47
3 2 -8 9.46 1.1
3 2 -8 9.46 0.95
-3 -2 8 8.03 0.93
-3 -2 8 8.27 1.27
2 2 -8 -0.64 0.49
2 2 -8 0.69 0.45
-2 -2 8 -0.02 0.48
-2 -2 8 0.48 0.4
1 2 -8 120.6 11.55
-1 -2 8 123.75 9.77
-1 -2 8 127.34 14.85
-1 -2 8 120.78 11.33
0 2 -8 31.91 3.36
0 -2 8 36.78 2.86
0 -2 8 35.94 4.35
0 -2 8 35.95 3.31
-1 2 -8 98.15 10.44
1 -2 8 116.64 13.43
1 -2 8 119.2 10.26
2 -2 8 0.99 0.47
2 -2 8 1.28 0.46
3 -2 8 2.23 0.54
3 -2 8 3.8 0.63
4 -2 8 4.63 0.71
4 -2 8 3.5 0.71
4 -2 8 4.25 0.71
5 -2 8 1.93 0.6
5 -2 8 1.93 0.64
6 -2 8 3.81 0.77
6 -2 8 6.29 0.82
7 -2 8 0.43 0.22
7 -2 8 0.5 0.61
7 -2 8 0.13 0.56
8 -2 8 1.24 0.66
8 -2 8 2.06 0.74
9 -2 8 2.21 0.82
9 -2 8 1.87 0.79
10 -2 8 -0.05 0.79
10 -2 8 0.62 0.78
11 -2 8 1.31 0.76
-12 -1 8 0.65 0.49
10 1 -8 1.49 0.96
9 1 -8 8.07 1.28
8 1 -8 0.61 0.82
7 1 -8 16 1.91
6 1 -8 31.38 3.18
5 1 -8 23.48 2.28
-5 -1 8 19.81 2.82
4 1 -8 25.41 2.44
-4 -1 8 22.34 3.09
3 1 -8 57.84 5.27
3 1 -8 57.02 4.54
-3 -1 8 52.58 6.76
-3 -1 8 53.96 4.43
2 1 -8 18.2 1.91
2 1 -8 20.2 1.69
-2 -1 8 19.38 1.61
-2 -1 8 17.76 2.46
1 1 -8 10.87 1.32
-1 -1 8 12.14 1.1
-1 -1 8 12.77 1.71
0 1 -8 0.13 0.45
0 -1 8 0.6 0.46
0 -1 8 1.2 0.41
-1 1 -8 12.35 1.48
1 -1 8 14.46 1.9
1 -1 8 14.41 1.43
-2 1 -8 13.28 1.59
2 -1 8 16.35 1.58
2 -1 8 15.77 2.04
3 -1 8 39.2 3.82
3 -1 8 41.21 4.95
4 -1 8 16.98 2.23
4 -1 8 16.09 1.79
5 -1 8 12.55 1.49
6 -1 8 16.3 1.82
7 -1 8 22.02 2.34
7 -1 8 22.8 2.38
8 -1 8 0.42 0.71
8 -1 8 0.15 0.73
9 -1 8 4.78 0.92
9 -1 8 3.69 0.96
10 -1 8 0.1 0.84
10 -1 8 1.06 0.82
11 -1 8 1.52 0.83
-12 0 8 2.78 0.55
10 0 -8 0.22 0.93
9 0 -8 10.47 1.51
8 0 -8 2.56 0.91
7 0 -8 5.72 1
6 0 -8 3.64 0.78
5 0 -8 48.65 4.53
-5 0 8 44.98 5.76
4 0 -8 3.39 0.72
-4 0 8 2.15 0.65
3 0 -8 48.89 3.71
3 0 -8 43.15 4.32
-3 0 8 44.83 5.51
-3 0 8 42.73 3.61
2 0 -8 1.54 0.57
2 0 -8 2.88 0.55
-2 0 8 1.96 0.59
-2 0 8 2.97 0.46
1 0 -8 0.32 0.5
-1 0 8 0.82 0.45
0 0 -8 91.8 8.81
0 0 8 96.04 11.3
0 0 8 92.45 8.62
-1 0 -8 2.23 0.59
1 0 8 1.93 0.58
1 0 8 2.37 0.52
-2 0 -8 9.76 1.1
2 0 8 9.47 1.5
2 0 8 7.96 1.11
-3 0 -8 63.57 6.33
3 0 8 69.49 8.11
4 0 8 3.73 0.74
5 0 8 63.83 6.1
6 0 8 2.04 0.69
7 0 8 1.71 0.73
7 0 8 0.85 0.78
8 0 8 0.89 0.76
8 0 8 1.29 0.78
9 0 8 1.27 0.8
9 0 8 1.54 0.85
10 0 8 -0.7 0.86
10 0 8 0.16 0.79
11 0 8 0.24 0.8
-12 0 -8 -0.08 0.64
-12 1 8 2.85 0.54
-11 1 8 7.86 0.83
10 -1 -8 0.34 0.9
9 -1 -8 0.3 0.95
8 -1 -8 3.61 0.98
7 -1 -8 1.16 0.73
6 -1 -8 0.76 0.67
5 -1 -8 2.23 0.71
-5 1 8 0.8 0.56
4 -1 -8 16.64 1.84
-4 1 8 16.12 2.22
3 -1 -8 1.9 0.54
3 -1 -8 0.24 0.65
-3 1 8 3.05 0.64
-3 1 8 1.55 0.44
2 -1 -8 27.32 2.84
-2 1 8 29.32 3.58
1 -1 -8 18.68 1.95
-1 1 8 18.04 2.47
0 -1 -8 0.63 0.57
0 1 8 1.21 0.44
0 1 8 0.89 0.59
-2 -1 -8 31.32 3.21
2 1 8 34.05 4.18
-3 -1 -8 4.75 0.85
3 1 8 5.99 1.02
4 1 8 13.05 1.97
5 1 8 2.73 0.67
6 1 8 0.17 0.23
7 1 8 3.47 0.89
8 1 8 2.28 0.88
8 1 8 2.27 0.9
9 1 8 0.77 0.8
9 1 8 -0.45 0.85
10 1 8 1.87 0.92
11 1 8 -0.4 0.74
-12 -1 -8 1.84 0.68
12 -2 -8 0.65 0.56
-12 2 8 0.57 0.47
-11 2 8 1.44 0.52
10 -2 -8 0.56 0.9
9 -2 -8 1.92 0.93
8 -2 -8 1.13 0.84
7 -2 -8 0.48 0.71
6 -2 -8 5.05 0.88
5 -2 -8 3.4 0.75
-5 2 8 2.9 0.68
4 -2 -8 -0.16 0.62
-4 2 8 -0.03 0.53
3 -2 -8 5.09 0.86
3 -2 -8 4.31 0.63
-3 2 8 4.6 0.84
2 -2 -8 -0.05 0.65
-2 2 8 1.67 0.64
1 -2 -8 1.82 0.67
-1 2 8 1.86 0.73
0 -2 -8 137.19 12.33
0 2 8 124.62 15.84
-1 -2 -8 0.44 0.64
1 2 8 -0.07 0.73
-2 -2 -8 5.23 0.85
2 2 8 5.06 1.08
-3 -2 -8 1.29 0.6
3 2 8 0.99 0.78
-4 -2 -8 0.98 0.6
4 2 8 0.19 0.75
5 2 8 0.44 0.64
9 2 8 -0.46 0.84
10 2 8 0.28 0.89
-11 -2 -8 0.66 0.65
11 2 8 1.39 0.82
-12 -2 -8 -0.12 0.62
12 -3 -8 0.71 0.55
-12 3 8 1.12 0.47
-11 3 8 0.29 0.47
-10 3 8 7.67 0.82
9 -3 -8 -0.26 0.85
-9 3 8 0.09 0.48
8 -3 -8 -0.46 0.8
-8 3 8 0.48 0.42
7 -3 -8 0.76 0.76
-7 3 8 0.85 0.42
6 -3 -8 9.07 1.17
-6 3 8 8.22 0.8
5 -3 -8 0.85 0.68
4 -3 -8 0.25 0.62
-4 3 8 -0.05 0.51
3 -3 -8 7.13 1
-3 3 8 5.96 1.06
2 -3 -8 1.91 0.76
-2 3 8 1.54 0.78
1 -3 -8 3.12 0.78
-1 3 8 2.67 0.91
0 -3 -8 0.15 0.7
0 3 8 1.42 0.89
-1 -3 -8 0.28 0.67
1 3 8 2.07 0.91
-2 -3 -8 0.53 0.62
2 3 8 2.46 0.93
-3 -3 -8 3.87 0.78
3 3 8 4.51 1.08
-4 -3 -8 4.45 0.8
4 3 8 3.6 0.99
5 3 8 -0.16 0.73
9 3 8 2.04 1.04
10 3 8 -0.22 0.85
-11 -3 -8 -0.71 0.63
-12 -3 -8 1.13 0.64
12 -4 -8 0.6 0.5
11 -4 -8 4.64 0.88
-11 4 8 4.3 0.62
-10 4 8 -0.15 0.48
9 -4 -8 -0.03 0.84
-9 4 8 0.38 0.5
8 -4 -8 3.2 0.91
7 -4 -8 3.23 0.91
6 -4 -8 0.09 0.71
5 -4 -8 6.95 1
4 -4 -8 2.19 0.7
-4 4 8 1.75 0.64
3 -4 -8 9.11 1.2
2 -4 -8 3.93 0.83
-2 4 8 3.54 0.97
1 -4 -8 9.81 1.2
-1 4 8 7.44 1.43
0 -4 -8 214.61 20.15
-1 -4 -8 1.56 0.7
-2 -4 -8 0.54 0.65
-3 -4 -8 2.87 0.72
-4 -4 -8 3.14 0.73
4 4 8 1.9 0.95
5 4 8 15.33 2.46
-10 -4 -8 0.04 0.6
10 4 8 -1.17 0.83
-11 -4 -8 1.43 0.64
11 -5 -8 1.19 0.65
10 -5 -8 -0.63 0.7
9 -5 -8 2.63 0.9
9 -5 -8 2.1 0.86
8 -5 -8 15.47 1.91
7 -5 -8 -0.09 0.75
6 -5 -8 0.47 0.68
5 -5 -8 17.17 1.94
4 -5 -8 4.01 0.81
-4 5 8 2.22 0.75
3 -5 -8 3.69 0.81
-3 5 8 2.62 0.88
2 -5 -8 5.49 0.87
-2 5 8 3.69 1.05
1 -5 -8 1.57 0.77
0 -5 -8 1.37 0.73
-1 -5 -8 0.22 0.63
-2 -5 -8 1.59 0.7
-3 -5 -8 3.26 0.81
-4 -5 -8 1.03 0.7
-5 -5 -8 19.88 2.18
5 5 8 19.71 3
-8 -5 -8 0.28 0.53
-9 -5 -8 2.18 0.62
-10 -5 -8 2.96 0.66
10 5 8 0.59 0.96
-11 -5 -8 -0.47 0.54
11 -6 -8 0.74 0.6
10 -6 -8 5.57 1.02
9 -6 -8 2.06 0.85
8 -6 -8 0.67 0.79
8 -6 -8 1.7 0.82
7 -6 -8 11.99 1.52
7 -6 -8 10.46 1.44
6 -6 -8 5.92 1
5 -6 -8 3.85 0.83
4 -6 -8 2.6 0.72
4 -6 -8 1.99 0.63
-4 6 8 1.58 0.73
3 -6 -8 11.94 1.36
-3 6 8 7.2 1.4
2 -6 -8 3.99 0.82
-2 6 8 2.92 0.99
1 -6 -8 -0.42 0.73
0 -6 -8 44.68 4.37
-1 -6 -8 1.09 0.67
-2 -6 -8 0.77 0.69
-3 -6 -8 13.23 1.65
-4 -6 -8 13.52 1.57
-4 -6 -8 10.54 1.4
-5 -6 -8 17.61 1.77
-5 -6 -8 11.66 1.65
5 6 8 13.85 2.11
-9 -6 -8 3.76 0.71
-10 -6 -8 -0.09 0.55
-11 -6 -8 2.16 0.57
11 -7 -8 0.77 0.59
10 -7 -8 3.38 0.82
9 -7 -8 1.55 0.78
8 -7 -8 19.59 2.29
8 -7 -8 18.26 2.18
7 -7 -8 -0.34 0.73
7 -7 -8 0.35 0.74
6 -7 -8 12.93 1.76
6 -7 -8 14.8 1.7
5 -7 -8 6.37 1.07
5 -7 -8 7.4 1.06
4 -7 -8 6 0.89
-4 7 8 4.92 1.07
3 -7 -8 2.09 0.74
3 -7 -8 0.79 0.55
-3 7 8 0.79 0.83
2 -7 -8 7.29 1.01
-2 7 8 4.76 1.23
1 -7 -8 1.96 0.79
0 -7 -8 0.4 0.71
-1 -7 -8 2.07 0.73
-2 -7 -8 -0.03 0.67
-3 -7 -8 10.14 1.03
-3 -7 -8 9.32 1.21
-3 -7 -8 10.65 1.34
-4 -7 -8 17.13 1.84
-4 -7 -8 17.44 1.92
-4 -7 -8 13.72 1.49
-5 -7 -8 13.42 1.75
-5 -7 -8 16.7 1.86
-6 -7 -8 21.87 2.44
-7 -7 -8 1.95 0.68
10 -8 -8 -0.26 0.63
9 -8 -8 0.74 0.73
8 -8 -8 0.44 0.74
7 -8 -8 20.72 2.32
7 -8 -8 18.11 2.17
6 -8 -8 38.97 3.97
6 -8 -8 34.33 3.65
5 -8 -8 5.4 0.91
5 -8 -8 4.27 0.91
4 -8 -8 0.89 0.56
4 -8 -8 0.79 0.68
-4 8 8 0.09 0.82
3 -8 -8 0.66 0.74
3 -8 -8 0.17 0.52
-3 8 8 0.07 0.84
2 -8 -8 0.12 0.49
2 -8 -8 1.1 0.72
-2 8 8 -0.01 0.88
1 -8 -8 1.03 0.78
0 -8 -8 0.42 0.73
-1 -8 -8 4.98 0.93
-2 -8 -8 2.89 0.64
-2 -8 -8 3.24 0.82
-3 -8 -8 5.34 0.84
-3 -8 -8 5.86 0.75
-3 -8 -8 5.88 1.04
-4 -8 -8 2.02 0.85
-4 -8 -8 2.54 0.72
-4 -8 -8 2.07 0.59
-5 -8 -8 2.9 0.73
-5 -8 -8 3.07 0.91
-7 -8 -8 15.53 1.87
-8 -8 -8 -0.29 0.57
-9 -8 -8 3.89 0.8
-10 -8 -8 2.47 0.48
9 -9 -8 4.23 0.9
8 -9 -8 8.63 1.28
7 -9 -8 0.25 0.73
6 -9 -8 0.49 0.72
6 -9 -8 2.34 0.72
5 -9 -8 13.9 1.92
5 -9 -8 17.58 1.84
4 -9 -8 4.76 0.79
4 -9 -8 4.7 0.85
-4 9 8 1.41 1.02
3 -9 -8 10.83 1.29
3 -9 -8 9.48 1.29
-3 9 8 7.39 1.55
2 -9 -8 -0.01 0.51
2 -9 -8 1.76 0.75
-2 9 8 -0.32 0.95
1 -9 -8 0.78 0.81
0 -9 -8 0.08 0.48
0 -9 -8 0.17 0.79
-1 -9 -8 0.69 0.76
-1 -9 -8 0.28 0.51
-2 -9 -8 2 0.8
-2 -9 -8 2.45 0.67
-3 -9 -8 4.3 0.97
-3 -9 -8 5.58 0.85
-3 -9 -8 5.2 0.74
-4 -9 -8 8.83 1.34
-4 -9 -8 10 1.24
-4 -9 -8 8.66 1.01
-5 -9 -8 20.26 1.97
-5 -9 -8 12.19 1.6
-5 -9 -8 20.2 2.07
5 9 8 14.49 2.49
-6 -9 -8 17.12 2.03
-7 -9 -8 0.14 0.68
-8 -9 -8 1.55 0.67
-9 -9 -8 3 0.77
9 -10 -8 0.11 0.61
8 -10 -8 -0.73 0.66
7 -10 -8 -0.63 0.66
6 -10 -8 -0.4 0.69
5 -10 -8 6.71 1.04
5 -10 -8 5.95 1.01
4 -10 -8 5.57 0.96
4 -10 -8 6.97 1.02
3 -10 -8 23.35 2.38
3 -10 -8 21.21 2.41
-3 10 8 20.08 3.22
2 -10 -8 5.31 0.94
2 -10 -8 4.22 0.75
-2 10 8 3.35 1.17
1 -10 -8 2.17 0.87
1 -10 -8 2.27 0.54
0 -10 -8 4.66 0.77
0 -10 -8 5.62 1.07
-1 -10 -8 3 0.92
-1 -10 -8 3.04 0.69
-2 -10 -8 9.91 1.34
-2 -10 -8 9.43 1.12
-2 -10 -8 10.46 1.38
-3 -10 -8 12.6 1.47
-3 -10 -8 16.59 1.79
-4 -10 -8 2.37 0.93
-4 -10 -8 3.32 0.68
-4 -10 -8 3.05 0.72
-5 -10 -8 10.34 1.38
-5 -10 -8 11.54 1.38
-5 -10 -8 8.33 1.02
5 10 8 6.22 1.74
-6 -10 -8 1.04 0.71
-7 -10 -8 5.84 0.96
-8 -10 -8 0.21 0.67
-9 -10 -8 0.06 0.6
8 -11 -8 5.91 0.95
7 -11 -8 6.63 1.04
6 -11 -8 0.59 0.65
5 -11 -8 0.3 0.61
4 -11 -8 7.8 1.11
4 -11 -8 7.14 1.06
3 -11 -8 0.56 0.74
3 -11 -8 0.28 0.54
-3 11 8 -0.15 0.94
2 -11 -8 19.46 1.94
2 -11 -8 14.23 1.82
-2 11 8 16.31 2.42
1 -11 -8 15.33 1.68
1 -11 -8 16.19 1.93
0 -11 -8 0.04 0.45
0 -11 -8 -0.2 0.84
-1 -11 -8 5.44 1.28
-1 -11 -8 10.2 1.16
-2 -11 -8 14 1.61
-2 -11 -8 12.34 1.38
-3 -11 -8 6.94 1.03
-3 -11 -8 6.44 1.17
-3 -11 -8 7.52 0.92
-4 -11 -8 2.45 0.96
-4 -11 -8 4.2 0.74
-4 -11 -8 4.53 0.81
-5 -11 -8 3.84 0.78
-5 -11 -8 2.55 0.68
-6 -11 -8 0.39 0.65
-7 -11 -8 0.11 0.65
-8 -11 -8 0.3 0.65
7 -12 -8 1.54 0.62
6 -12 -8 9.17 1.27
5 -12 -8 -0.28 0.55
4 -12 -8 1.48 0.58
3 -12 -8 2.17 0.58
-3 12 8 0.35 0.96
2 -12 -8 11.35 1.4
-2 12 8 11.26 1.94
1 -12 -8 3.17 0.88
-1 12 8 0.73 1.1
0 -12 -8 14.89 1.93
-1 -12 -8 15.2 1.89
-1 -12 -8 12.53 1.51
-1 -12 -8 13.19 1.37
-2 -12 -8 6.16 0.97
-2 -12 -8 9.47 1.13
-3 -12 -8 0.87 0.6
-3 -12 -8 0.93 0.64
-4 -12 -8 7.57 1.03
-4 -12 -8 6.2 0.89
-5 -12 -8 0.55 0.62
-5 -12 -8 0.26 0.57
-6 -12 -8 2.63 0.72
-7 -12 -8 3.86 0.82
6 -13 -8 0.96 0.54
5 -13 -8 0.22 0.52
4 -13 -8 4.98 0.79
3 -13 -8 3.5 0.67
2 -13 -8 7.86 1.07
0 -13 -8 6.59 0.86
-1 -13 -8 22.29 2.02
-2 -13 -8 12.79 1.49
-2 -13 -8 14.2 1.38
-3 -13 -8 2.94 0.6
-3 -13 -8 1.98 0.66
-4 -13 -8 3.19 0.69
-4 -13 -8 4.7 0.73
-5 -13 -8 0.7 0.52
-5 -13 -8 0 0.57
4 -14 -8 0.88 0.46
3 -14 -8 -0.04 0.43
2 -14 -8 3.44 0.6
1 -14 -8 2.75 0.61
0 -14 -8 11.35 1.21
-1 -14 -8 5.41 0.79
-2 -14 -8 7.64 0.91
-3 -14 -8 0.63 0.56
-4 -14 -8 0.13 0.52
2 -15 -8 -0.18 0.46
1 -15 -8 3.38 0.61
0 -15 -8 0.87 0.51
-1 -15 -8 1.23 0.51
-2 -15 -8 -0.2 0.49
-4 -19 9 1.3 0.63
-4 -19 9 1.3 0.39
-3 -19 9 0.18 0.58
-3 -19 9 -0.23 0.38
-2 -19 9 0.58 0.57
-1 -19 9 8.76 1.3
0 -19 9 5.37 0.92
1 -19 9 9.53 1.4
2 -19 9 1.08 0.65
3 -19 9 -0.54 0.62
4 -19 9 -0.51 0.61
4 -19 9 0.72 0.56
-5 -18 9 0.52 0.39
-5 -18 9 1.72 0.66
-4 -18 9 1.4 0.68
-4 -18 9 1.55 0.42
-3 -18 9 1.21 0.66
-3 -18 9 1.46 0.41
-2 -18 9 1.78 0.67
-1 -18 9 11.55 1.58
0 -18 9 24.1 2.83
1 -18 9 11.6 1.58
2 -18 9 2.51 0.75
2 -18 9 3.12 0.73
3 -18 9 1.36 0.67
3 -18 9 1.71 0.63
4 -18 9 2.22 0.68
4 -18 9 1.86 0.59
5 -18 9 0.75 0.51
-7 -17 9 0.17 0.39
-6 -17 9 0.13 0.42
-5 -17 9 0.36 0.44
-5 -17 9 1.14 0.68
-4 -17 9 1.36 0.73
-4 -17 9 1.31 0.45
-3 -17 9 1.96 0.43
-3 -17 9 0.7 0.73
-2 -17 9 0.76 0.41
-2 -17 9 0.92 0.74
-1 -17 9 -0.4 0.71
-1 -17 9 1.53 0.38
0 -17 9 4.96 0.93
1 -17 9 1.05 0.68
1 -17 9 1.08 0.67
2 -17 9 1.39 0.65
2 -17 9 2.26 0.71
3 -17 9 2.97 0.76
3 -17 9 3.4 0.71
4 -17 9 0.83 0.55
4 -17 9 1.23 0.64
5 -17 9 0.43 0.51
6 -17 9 1.52 0.59
6 -17 9 0.8 0.5
7 -17 9 0.28 0.48
7 -17 9 0.5 0.49
-8 -16 9 0.83 0.41
-8 -16 9 0.7 0.47
-7 -16 9 0.86 0.45
-7 -16 9 0.29 0.51
-6 -16 9 -0.12 0.43
-6 -16 9 0.68 0.53
-5 -16 9 5.13 0.97
-5 -16 9 4.79 0.61
-5 -16 9 3.84 0.72
-4 -16 9 1.32 0.45
-4 -16 9 0.94 0.83
-3 -16 9 3.98 0.77
-3 -16 9 3.49 0.94
-3 -16 9 3.8 0.54
-2 -16 9 25.4 1.91
-2 -16 9 25.22 2.1
-2 -16 9 25.16 2.52
-2 -16 9 22.14 2.94
-1 -16 9 13.55 1.57
-1 -16 9 11.79 1.89
-1 -16 9 15.51 1.26
0 -16 9 26.95 2.67
0 -16 9 27.16 2.24
0 -16 9 26.22 3.15
1 -16 9 13.07 1.82
1 -16 9 16.29 1.69
1 -16 9 12.89 1.2
2 -16 9 31.51 3.31
2 -16 9 29.99 3.53
3 -16 9 5.16 0.91
3 -16 9 4.92 0.82
4 -16 9 0.28 0.53
4 -16 9 1.04 0.6
5 -16 9 1.61 0.58
5 -16 9 3.47 0.61
6 -16 9 -0.07 0.53
6 -16 9 -0.05 0.46
7 -16 9 0.5 0.52
8 -16 9 0.16 0.51
-8 -15 9 2.24 0.48
-8 -15 9 2.26 0.59
-7 -15 9 1.21 0.48
-7 -15 9 1.06 0.58
-6 -15 9 2.05 0.61
-6 -15 9 1.72 0.52
-5 -15 9 0.04 0.76
-5 -15 9 0.43 0.55
-5 -15 9 0.24 0.48
-4 -15 9 8.71 1.01
-4 -15 9 8.53 1.19
-4 -15 9 9.85 1.36
-4 -15 9 8.78 0.85
-3 -15 9 1.7 0.44
-3 -15 9 1.02 0.43
-3 -15 9 1.7 0.58
-3 -15 9 0.94 0.61
-3 -15 9 -0.12 0.78
-2 -15 9 13.41 2.21
-2 -15 9 18.24 1.88
-2 -15 9 17.92 1.53
-2 -15 9 19.47 1.42
-1 -15 9 1.32 0.36
-1 -15 9 2.35 0.41
-1 -15 9 1.91 0.56
-1 -15 9 -0.59 0.74
0 -15 9 3.96 0.9
0 -15 9 4.2 0.67
0 -15 9 5.13 0.82
0 -15 9 4.29 0.5
1 -15 9 0.7 0.56
1 -15 9 0.65 0.65
1 -15 9 0.46 0.28
2 -15 9 19.4 2.4
2 -15 9 18.68 2.14
2 -15 9 21.54 2.24
3 -15 9 2.25 0.6
3 -15 9 1.91 0.71
3 -15 9 1.65 0.55
3 -15 9 2.33 0.67
4 -15 9 10.85 1.29
4 -15 9 10.51 1.31
4 -15 9 9.81 1.22
4 -15 9 9.33 1.42
5 -15 9 -0.16 0.55
5 -15 9 0.68 0.49
5 -15 9 0.22 0.48
6 -15 9 3.61 0.64
6 -15 9 2.51 0.61
7 -15 9 0.84 0.55
8 -15 9 1.93 0.57
-9 -14 9 1.04 0.43
-9 -14 9 -0.26 0.55
-8 -14 9 1.04 0.46
-8 -14 9 0.45 0.58
-7 -14 9 12.59 1.35
-7 -14 9 14.24 1.24
-6 -14 9 -0.06 0.68
-6 -14 9 0.7 0.59
-6 -14 9 0.12 0.48
-5 -14 9 17.68 1.43
-5 -14 9 18.29 2.24
-5 -14 9 15.38 1.93
-5 -14 9 15.84 1.67
-4 -14 9 -0.11 0.72
-4 -14 9 1.58 0.55
-4 -14 9 0.27 0.4
-4 -14 9 1.06 0.64
-3 -14 9 3.22 0.71
-3 -14 9 4.68 0.64
-3 -14 9 2.82 0.48
-3 -14 9 3.69 0.51
-3 -14 9 2.84 0.82
-2 -14 9 2.42 0.45
-2 -14 9 3.24 0.77
-2 -14 9 2.91 0.44
-2 -14 9 3.43 0.6
-2 -14 9 2.53 0.61
-1 -14 9 -0.52 0.66
-1 -14 9 0.94 0.46
-1 -14 9 -0.11 0.36
-1 -14 9 0.29 0.31
-1 -14 9 0.11 0.48
-1 -14 9 0.53 0.59
0 -14 9 72.87 7.28
0 -14 9 67.58 5.76
0 -14 9 70.67 6.68
0 -14 9 72.02 5.72
0 -14 9 70.08 7.79
1 -14 9 0.6 0.49
1 -14 9 0.06 0.5
1 -14 9 -0.3 0.59
1 -14 9 0.19 0.57
1 -14 9 -0.11 0.26
2 -14 9 1.8 0.64
2 -14 9 2.98 0.61
2 -14 9 2.34 0.52
2 -14 9 1.8 0.75
2 -14 9 2.12 0.56
3 -14 9 4.29 0.67
3 -14 9 5.25 0.82
3 -14 9 4.69 0.86
3 -14 9 4.01 0.72
4 -14 9 1.61 0.53
4 -14 9 3.15 0.74
4 -14 9 1.29 0.61
4 -14 9 1.64 0.52
5 -14 9 14.89 1.67
5 -14 9 13.14 1.83
5 -14 9 14.16 1.67
5 -14 9 15.98 1.59
6 -14 9 -0.02 0.49
6 -14 9 0.32 0.47
7 -14 9 9.54 1.22
8 -14 9 0.73 0.55
9 -14 9 0.78 0.54
-10 -13 9 1.22 0.58
-10 -13 9 0.74 0.39
-9 -13 9 0.78 0.43
-9 -13 9 0.78 0.62
-8 -13 9 9.9 1.15
-8 -13 9 10.62 1.03
-7 -13 9 1.79 0.52
-7 -13 9 1.59 0.75
-7 -13 9 2.76 0.67
-6 -13 9 2.16 0.64
-6 -13 9 1.83 0.5
-6 -13 9 1.84 0.74
-5 -13 9 4.28 0.9
-5 -13 9 4.84 0.77
-5 -13 9 3.91 0.6
-5 -13 9 7.14 1
-4 -13 9 9.45 0.95
-4 -13 9 10.7 1.46
-4 -13 9 10.32 1.28
-4 -13 9 9.93 1.05
-3 -13 9 2.45 0.45
-3 -13 9 3.59 0.59
-3 -13 9 3.67 0.75
-3 -13 9 2.95 0.65
-3 -13 9 2.8 0.46
-2 -13 9 3.81 0.72
-2 -13 9 2.94 0.59
-2 -13 9 3.41 0.46
-2 -13 9 2.98 0.45
-1 -13 9 2.32 0.38
-1 -13 9 2.06 0.52
-1 -13 9 2.29 0.4
-1 -13 9 3.05 0.65
0 -13 9 0.56 0.4
0 -13 9 0.19 0.5
0 -13 9 0.58 0.48
0 -13 9 0.2 0.58
0 -13 9 -0.18 0.58
0 -13 9 0.33 0.26
1 -13 9 1.2 0.48
1 -13 9 1.17 0.52
1 -13 9 1.7 0.71
1 -13 9 1.01 0.6
1 -13 9 1.31 0.28
1 -13 9 2.63 0.5
2 -13 9 2.19 0.66
2 -13 9 1.05 0.5
2 -13 9 3.15 0.52
2 -13 9 2.29 0.63
2 -13 9 2.05 0.53
3 -13 9 7.03 0.95
3 -13 9 6.02 0.84
3 -13 9 6.9 0.79
3 -13 9 5.25 0.77
3 -13 9 6.41 0.94
4 -13 9 8.09 1.09
4 -13 9 7.98 1.2
4 -13 9 8.69 1.05
4 -13 9 9.31 1.14
5 -13 9 5.42 0.76
5 -13 9 5.36 0.91
5 -13 9 4.62 0.75
5 -13 9 5.92 0.88
6 -13 9 4.63 0.7
7 -13 9 5.37 0.79
8 -13 9 8.73 1.15
9 -13 9 0.86 0.55
10 -13 9 1.86 0.59
-10 -12 9 -0.09 0.39
-10 -12 9 0.52 0.59
-9 -12 9 2.48 0.51
-9 -12 9 3.57 0.7
-8 -12 9 5.31 0.66
-8 -12 9 6.09 0.85
-7 -12 9 5.18 1.01
-7 -12 9 4.86 0.81
-7 -12 9 5.26 0.66
-6 -12 9 2.54 0.5
-6 -12 9 2 0.66
-6 -12 9 2.93 0.79
-5 -12 9 1.06 0.57
-5 -12 9 1.68 0.68
-5 -12 9 0.81 0.42
-4 -12 9 15.58 1.81
-4 -12 9 14.54 1.68
-4 -12 9 14.54 1.51
-4 -12 9 13.48 1.45
-4 -12 9 13.92 1.2
-3 -12 9 1.75 0.53
-3 -12 9 1.19 0.36
-3 -12 9 0.68 0.37
-3 -12 9 2.07 0.62
-2 -12 9 6.59 0.88
-2 -12 9 6.62 0.67
-2 -12 9 6.74 0.64
-2 -12 9 6.88 0.81
-1 -12 9 0.39 0.5
-1 -12 9 0.42 0.58
-1 -12 9 0.27 0.31
0 -12 9 -0.3 0.63
0 -12 9 -0.39 0.48
0 -12 9 -0.79 0.52
0 -12 9 0.33 0.44
1 -12 9 0.77 0.58
1 -12 9 0.73 0.53
1 -12 9 0.45 0.44
1 -12 9 1.47 0.5
2 -12 9 2.2 0.52
2 -12 9 3.17 0.63
2 -12 9 3.56 0.56
2 -12 9 3.16 0.69
3 -12 9 0.98 0.44
3 -12 9 1.36 0.62
3 -12 9 2.44 0.5
3 -12 9 2 0.47
3 -12 9 1.89 0.56
4 -12 9 12.87 1.44
4 -12 9 11.09 1.39
4 -12 9 13.13 1.32
4 -12 9 11.23 1.5
5 -12 9 3.2 0.69
5 -12 9 1.99 0.51
5 -12 9 2.45 0.63
5 -12 9 3.01 0.57
6 -12 9 3.08 0.74
6 -12 9 2.93 0.58
7 -12 9 2.31 0.56
8 -12 9 8.47 1.07
9 -12 9 2.64 0.63
10 -12 9 1.8 0.59
-11 -11 9 5.45 0.58
-11 -11 9 5.22 0.77
-10 -11 9 1.58 0.62
-10 -11 9 0.93 0.41
-9 -11 9 6.86 0.89
-9 -11 9 5.85 0.68
-8 -11 9 4.01 0.56
-8 -11 9 2.95 0.72
-7 -11 9 9.66 1.27
-7 -11 9 9.69 0.94
-7 -11 9 7.23 0.99
-6 -11 9 4.75 0.57
-6 -11 9 3.83 0.7
-6 -11 9 3.32 0.84
-5 -11 9 1.52 0.63
-5 -11 9 0.94 0.4
-5 -11 9 1.73 0.65
-5 -11 9 1.85 0.58
-4 -11 9 2.08 0.4
-4 -11 9 1.39 0.58
-4 -11 9 2.36 0.64
-3 -11 9 10.62 1.16
-3 -11 9 8.55 0.95
-3 -11 9 12.23 1.36
-2 -11 9 5.19 0.8
-2 -11 9 4.94 0.81
-2 -11 9 4.07 0.68
-1 -11 9 3.23 0.61
-1 -11 9 2.29 0.71
-1 -11 9 2.3 0.64
0 -11 9 3.3 0.63
0 -11 9 4.22 0.81
0 -11 9 4.09 0.72
1 -11 9 2.55 0.55
1 -11 9 2.08 0.65
1 -11 9 2.55 0.61
2 -11 9 6.94 1.12
2 -11 9 8.62 0.93
2 -11 9 9.36 1.08
3 -11 9 12.69 1.69
3 -11 9 15.69 1.32
3 -11 9 13.93 1.55
4 -11 9 1.69 0.45
4 -11 9 1.69 0.62
4 -11 9 0.51 0.46
5 -11 9 4.08 0.64
5 -11 9 3.64 0.72
5 -11 9 3.43 0.7
6 -11 9 1.76 0.62
6 -11 9 2.14 0.52
7 -11 9 4.65 0.67
7 -11 9 4.37 0.84
8 -11 9 2.97 0.62
9 -11 9 6.1 0.86
10 -11 9 2.47 0.61
11 -11 9 2.44 0.62
-11 -10 9 0.08 0.57
-11 -10 9 -0.26 0.39
-10 -10 9 0.93 0.42
-10 -10 9 0.56 0.42
-10 -10 9 1.24 0.65
-9 -10 9 1.76 0.46
-9 -10 9 0.96 0.44
-9 -10 9 1.7 0.66
-8 -10 9 16.44 1.78
-8 -10 9 19.16 1.48
-7 -10 9 1.98 0.47
-7 -10 9 2.56 0.64
-7 -10 9 1.41 0.73
-6 -10 9 -0.42 0.6
-6 -10 9 -0.35 0.39
-6 -10 9 0.94 0.56
-5 -10 9 0.31 0.55
-5 -10 9 0.93 0.36
-5 -10 9 0.6 0.56
-3 -10 9 1.87 0.37
-3 -10 9 0.77 0.53
-2 -10 9 37.11 3.66
-2 -10 9 38.69 3.16
-1 -10 9 0.47 0.66
-1 -10 9 0.2 0.49
0 -10 9 20.31 2.11
0 -10 9 20.23 1.8
-1 10 -9 1.17 0.48
1 -10 9 0.47 0.58
1 -10 9 0.19 0.45
2 -10 9 30.56 2.52
2 -10 9 29.65 2.95
3 -10 9 3.6 0.56
3 -10 9 3.4 0.74
4 -10 9 11.36 1.22
4 -10 9 10.02 0.94
4 -10 9 7.29 1.16
5 -10 9 1.43 0.64
5 -10 9 3.22 0.69
5 -10 9 2.74 0.52
6 -10 9 2.61 0.52
6 -10 9 1.36 0.6
7 -10 9 6.26 0.82
7 -10 9 5.84 0.94
8 -10 9 13.18 1.49
9 -10 9 3.13 0.66
10 -10 9 3.75 0.69
11 -10 9 3.07 0.66
-11 -9 9 0.9 0.42
-11 -9 9 1.28 0.62
-10 -9 9 0.76 0.43
-10 -9 9 1.04 0.42
-10 -9 9 1.89 0.68
-9 -9 9 6.17 0.88
-9 -9 9 6.94 0.68
-9 -9 9 5.44 0.67
-8 -9 9 -0.49 0.61
-8 -9 9 -0.58 0.39
-8 -9 9 -0.31 0.39
-7 -9 9 4.84 0.57
-7 -9 9 4.95 0.74
-7 -9 9 4.89 0.58
-7 -9 9 4.7 0.94
-6 -9 9 1.43 0.56
-6 -9 9 0.8 0.56
-6 -9 9 0.95 0.39
-6 -9 9 0.68 0.39
-6 -9 9 1.89 0.68
-5 -9 9 1.72 0.57
-5 -9 9 2.54 0.41
-5 -9 9 1.55 0.57
-4 -9 9 0.3 0.32
-4 -9 9 1.12 0.53
-3 -9 9 2.4 0.59
-2 -9 9 22.17 1.96
-2 -9 9 22.29 2.31
-1 -9 9 3.8 0.75
-1 -9 9 2.5 0.6
0 9 -9 1.51 0.54
0 -9 9 1.55 0.53
0 -9 9 0.71 0.66
-1 9 -9 8.2 0.85
1 -9 9 7 0.84
1 -9 9 7.34 1.01
-2 9 -9 25.92 2.17
2 -9 9 25.6 2.16
2 -9 9 24.49 2.54
-3 9 -9 5.32 0.63
3 -9 9 4 0.79
3 -9 9 4.42 0.62
4 -9 9 2.68 0.49
4 -9 9 1.86 0.6
5 -9 9 0.74 0.51
5 -9 9 1.6 0.43
6 -9 9 0.1 0.5
6 -9 9 1.05 0.41
7 -9 9 3.23 0.71
7 -9 9 3.08 0.54
8 -9 9 0.41 0.62
8 -9 9 0.48 0.49
9 -9 9 3 0.64
10 -9 9 0.71 0.56
11 -9 9 1.25 0.58
-12 -8 9 1.05 0.58
-12 -8 9 0.47 0.39
-11 -8 9 1.16 0.63
-11 -8 9 0.19 0.42
-10 -8 9 2.02 0.68
-10 -8 9 1.25 0.46
-9 -8 9 5.98 0.8
-9 -8 9 3.21 0.57
-9 -8 9 4.97 0.58
-8 -8 9 0.77 0.41
-8 -8 9 0.66 0.38
-8 -8 9 0.52 0.6
-7 -8 9 0.52 0.62
-7 -8 9 0.02 0.37
-7 -8 9 -0.05 0.37
-7 -8 9 0.28 0.57
-6 -8 9 -0.07 0.49
-6 -8 9 -0.01 0.52
-6 -8 9 0.77 0.36
-6 -8 9 0.51 0.36
-5 -8 9 0.47 0.5
-5 -8 9 0.84 0.36
-4 -8 9 10.45 1.15
-3 -8 9 16.32 1.7
-3 -8 9 13.83 1.44
-2 -8 9 22.86 2.01
-2 -8 9 22.62 2.34
1 8 -9 30.49 2.58
-1 -8 9 30.24 2.95
-1 -8 9 29.24 2.54
0 8 -9 233.04 18.86
0 -8 9 235.69 18.55
0 -8 9 233.6 21.56
-1 8 -9 33.72 2.77
1 -8 9 31.95 3.2
1 -8 9 33 2.74
-2 8 -9 21.25 1.81
2 -8 9 21.17 1.79
2 -8 9 19.09 2.11
3 -8 9 16.63 1.84
3 -8 9 18.49 1.56
4 -8 9 11.98 1.07
4 -8 9 9.43 1.29
5 -8 9 0.96 0.52
6 -8 9 1.55 0.47
6 -8 9 1.48 0.56
7 -8 9 2.45 0.52
7 -8 9 1.46 0.45
7 -8 9 1.51 0.6
8 -8 9 2.22 0.68
8 -8 9 1.13 0.48
8 -8 9 2.59 0.58
9 -8 9 3.18 0.69
10 -8 9 1.56 0.58
11 -8 9 3.56 0.7
-12 -7 9 2.78 0.65
-12 -7 9 3.44 0.52
-11 -7 9 0.64 0.61
-11 -7 9 0.14 0.44
-10 -7 9 0.99 0.6
-10 -7 9 0.5 0.45
-9 -7 9 8.99 0.92
-9 -7 9 10.42 1.06
-9 -7 9 9.19 0.88
-8 -7 9 0.04 0.36
-8 -7 9 0.28 0.54
-8 -7 9 0.18 0.4
-7 -7 9 0.37 0.58
-7 -7 9 0.39 0.53
-7 -7 9 0.33 0.38
-7 -7 9 -0.09 0.35
-6 -7 9 2.31 0.52
-6 -7 9 3.47 0.45
-6 -7 9 2.81 0.45
-5 -7 9 0.69 0.48
-4 -7 9 5.17 0.73
-3 -7 9 70.38 6.84
-3 -7 9 76.37 5.91
2 7 -9 32.14 2.59
-2 -7 9 29.06 2.51
-2 -7 9 28.13 2.92
1 7 -9 1.05 0.58
-1 -7 9 0.61 0.49
-1 -7 9 0.33 0.64
0 7 -9 12.91 1.27
0 -7 9 12.9 1.25
0 -7 9 11.85 1.47
-1 7 -9 -0.01 0.5
1 -7 9 0.42 0.59
1 -7 9 0.35 0.44
2 -7 9 24.36 2.04
2 -7 9 23.42 2.39
3 -7 9 50.46 4.93
3 -7 9 54.08 4.23
4 -7 9 1.61 0.43
4 -7 9 1.2 0.56
5 -7 9 1.31 0.56
6 -7 9 3.3 0.55
6 -7 9 2.9 0.67
6 -7 9 2.8 0.5
7 -7 9 0.09 0.41
7 -7 9 0.17 0.41
7 -7 9 -0.02 0.51
8 -7 9 1.91 0.54
8 -7 9 1.18 0.53
8 -7 9 2.26 0.69
9 -7 9 7.03 0.89
9 -7 9 5.9 0.85
9 -7 9 5.76 0.97
10 -7 9 4.87 0.79
11 -7 9 -0.28 0.54
-12 -6 9 1.37 0.46
-12 -6 9 1.63 0.58
-11 -6 9 2.56 0.65
-11 -6 9 2.18 0.51
-10 -6 9 -0.89 0.45
-10 -6 9 -0.35 0.58
-9 -6 9 1.39 0.58
-8 -6 9 0.8 0.39
-8 -6 9 1.55 0.55
-7 -6 9 0.24 0.35
-7 -6 9 0.41 0.6
-7 -6 9 1.74 0.5
-6 -6 9 2 0.38
-6 -6 9 1.71 0.42
-5 -6 9 0.2 0.47
-4 -6 9 2.1 0.56
-3 -6 9 4.4 0.77
-3 -6 9 3.25 0.65
2 6 -9 24.86 2.18
-2 -6 9 24.98 2.15
-2 -6 9 24.98 2.48
1 6 -9 27.97 2.36
-1 -6 9 27.46 2.32
-1 -6 9 26.63 2.69
0 6 -9 14.14 1.36
0 -6 9 12.94 1.53
0 -6 9 14.22 1.3
1 -6 9 27.04 2.7
1 -6 9 28.32 2.33
2 -6 9 26.22 2.66
2 -6 9 27.93 2.29
3 -6 9 2.38 0.66
3 -6 9 4.4 0.57
4 -6 9 5.09 0.87
4 -6 9 6.46 0.71
5 -6 9 0.56 0.41
5 -6 9 0.81 0.55
5 -6 9 0.66 0.41
6 -6 9 5.23 0.86
6 -6 9 5.09 0.71
7 -6 9 5.7 0.84
7 -6 9 6.32 1
7 -6 9 7.43 0.86
8 -6 9 0.33 0.61
8 -6 9 0.87 0.52
8 -6 9 0.99 0.52
9 -6 9 4.27 0.72
9 -6 9 3.02 0.71
9 -6 9 4.87 0.92
10 -6 9 0.06 0.53
11 -6 9 0.82 0.58
-11 -5 9 2.01 0.51
-11 -5 9 1.32 0.6
-10 -5 9 1.41 0.57
-9 -5 9 0.48 0.55
-8 -5 9 10.54 1.08
7 5 -9 2.49 0.73
-7 -5 9 1.51 0.51
-7 -5 9 1.2 0.37
6 5 -9 11.35 1.47
5 5 -9 0 0.61
-5 -5 9 -0.23 0.4
4 5 -9 21.94 2.22
-4 -5 9 20.69 1.87
3 5 -9 28.54 2.68
3 5 -9 29.27 2.38
-3 -5 9 26.32 2.29
-3 -5 9 23.9 2.64
2 5 -9 6.49 0.85
-2 -5 9 6.74 0.82
-2 -5 9 7.56 0.91
1 5 -9 18.2 1.64
-1 -5 9 18.5 2.47
-1 -5 9 17.67 1.81
-1 -5 9 16.42 1.58
0 -5 9 27.26 2.28
0 -5 9 28.3 3.5
0 -5 9 26.16 2.64
1 -5 9 23.08 2.43
1 -5 9 26.15 3.22
1 -5 9 25.33 2.1
2 -5 9 10.18 1.12
2 -5 9 8.42 1.52
2 -5 9 8.96 1
4 -5 9 16.52 1.51
4 -5 9 17.3 1.83
5 -5 9 0.91 0.59
5 -5 9 1.53 0.44
5 -5 9 1.26 0.48
6 -5 9 12.73 1.48
6 -5 9 11.89 1.37
7 -5 9 7.59 0.99
7 -5 9 9.86 1.12
7 -5 9 6.88 0.99
8 -5 9 3.31 0.66
8 -5 9 1.15 0.74
8 -5 9 4.98 0.66
9 -5 9 0.66 0.52
9 -5 9 0.6 0.7
9 -5 9 0.95 0.6
10 -5 9 10.02 1.12
10 -5 9 7.89 1.26
10 -5 9 8.32 1.19
11 -5 9 1.57 0.63
-12 -4 9 -0.43 0.52
-12 -4 9 0.07 0.44
-11 -4 9 0.33 0.54
-11 -4 9 -0.26 0.47
-10 -4 9 2.32 0.61
9 4 -9 -0.23 0.81
-9 -4 9 -0.3 0.52
8 4 -9 14.84 1.59
-8 -4 9 9.79 1.21
7 4 -9 2.58 0.81
6 4 -9 8.13 1.11
5 4 -9 6.57 0.95
-5 -4 9 5.74 0.71
4 4 -9 33.28 3.3
-4 -4 9 33.3 2.76
3 4 -9 3.26 0.65
3 4 -9 3.17 0.75
-3 -4 9 2.57 0.59
-3 -4 9 1.86 0.79
-3 -4 9 3 0.63
2 4 -9 47.95 3.76
2 4 -9 45.63 4.33
-2 -4 9 44.7 5.62
-2 -4 9 45.7 3.68
-2 -4 9 42.72 4.24
1 4 -9 58.99 4.66
1 4 -9 52.45 5.36
-1 -4 9 55.99 4.56
-1 -4 9 60.3 6.95
-1 -4 9 56.28 5.29
0 -4 9 67.08 6.43
0 -4 9 73.18 8.43
0 -4 9 67.31 5.54
1 -4 9 58.11 4.7
1 -4 9 62.17 7.15
1 -4 9 55.1 5.46
2 -4 9 28.65 3.42
2 -4 9 25.74 2.26
2 -4 9 26.41 2.64
3 -4 9 0.58 0.45
3 -4 9 0.5 0.55
3 -4 9 0.76 0.52
4 -4 9 33.47 3.14
4 -4 9 30.9 2.68
4 -4 9 32.73 4.04
5 -4 9 2.39 0.54
5 -4 9 0.8 0.43
5 -4 9 0.79 0.56
6 -4 9 9.47 1.2
6 -4 9 9.22 1.22
7 -4 9 0.73 0.22
7 -4 9 0.99 0.63
7 -4 9 0.81 0.56
8 -4 9 1.08 0.71
8 -4 9 3.97 0.6
8 -4 9 2.62 0.68
9 -4 9 0.82 0.78
9 -4 9 0.72 0.66
9 -4 9 1 0.52
10 -4 9 8.22 1.25
10 -4 9 7.94 1.3
10 -4 9 11.43 1.19
11 -4 9 -0.28 0.53
-12 -3 9 0.19 0.47
-12 -3 9 0.58 0.51
-11 -3 9 0.39 0.54
-11 -3 9 0.02 0.48
10 3 -9 5.11 1.16
-10 -3 9 5.25 0.75
9 3 -9 0.53 0.92
-9 -3 9 0.46 0.51
8 3 -9 1.47 0.82
-8 -3 9 2.06 0.53
7 3 -9 0.33 0.75
6 3 -9 23.87 2.52
5 3 -9 3.65 0.77
4 3 -9 7.49 0.97
-4 -3 9 7.94 0.81
-4 -3 9 5.68 1.13
3 3 -9 6.78 0.85
3 3 -9 7.45 0.91
-3 -3 9 6.79 0.85
-3 -3 9 5.88 1.1
-3 -3 9 7.51 0.81
2 3 -9 13.13 1.34
2 3 -9 14.2 1.44
-2 -3 9 13.48 1.26
-2 -3 9 14.76 1.97
-2 -3 9 11.9 1.4
1 3 -9 1.02 0.45
-1 -3 9 0.92 0.58
-1 -3 9 1.62 0.49
-1 -3 9 0.73 0.46
0 3 -9 1.19 0.41
0 -3 9 0.92 0.56
0 -3 9 2.04 0.52
0 -3 9 1.99 0.49
1 -3 9 1.64 0.52
1 -3 9 1.46 0.45
1 -3 9 0.73 0.55
2 -3 9 8.33 1.05
2 -3 9 8.1 0.92
3 -3 9 2.35 0.6
3 -3 9 2.11 0.49
3 -3 9 2.71 0.63
4 -3 9 4.68 0.77
4 -3 9 4 0.74
5 -3 9 4.39 0.76
5 -3 9 4.19 0.72
5 -3 9 3.31 0.55
6 -3 9 13.94 1.48
6 -3 9 15.92 1.8
6 -3 9 19.3 1.79
7 -3 9 1.03 0.67
7 -3 9 0.77 0.23
7 -3 9 1.48 0.64
8 -3 9 3.45 0.67
8 -3 9 4.24 0.85
8 -3 9 3.56 0.82
9 -3 9 -0.53 0.51
9 -3 9 -0.67 0.7
9 -3 9 -0.28 0.7
10 -3 9 0.98 0.79
10 -3 9 0.55 0.77
11 -3 9 -0.39 0.73
-12 -2 9 0.54 0.46
-11 -2 9 1.29 0.53
10 2 -9 0.67 1.01
-10 -2 9 -0.17 0.54
9 2 -9 7.99 1.23
-9 -2 9 4.43 0.71
8 2 -9 1.03 0.86
-8 -2 9 0.03 0.5
7 2 -9 0.53 0.75
6 2 -9 9.66 1.27
5 2 -9 1.49 0.66
-5 -2 9 1.22 0.62
4 2 -9 11.22 1.41
-4 -2 9 10.36 1.79
-4 -2 9 10.98 1.1
3 2 -9 0.8 0.54
3 2 -9 1.4 0.62
-3 -2 9 0.76 0.5
-3 -2 9 0.97 0.63
2 2 -9 1.25 0.51
2 2 -9 1.51 0.59
-2 -2 9 0.91 0.59
-2 -2 9 1.65 0.48
-2 -2 9 1.21 0.44
1 2 -9 3.81 0.61
-1 -2 9 4.66 0.59
-1 -2 9 3.4 0.76
-1 -2 9 4.51 0.6
0 2 -9 2.17 0.52
0 -2 9 2.33 0.48
0 -2 9 1.49 0.57
0 -2 9 2.11 0.53
-1 2 -9 3.48 0.58
1 -2 9 2.51 0.69
1 -2 9 5.13 0.62
2 -2 9 0.67 0.5
2 -2 9 1.58 0.54
3 -2 9 0.49 0.51
3 -2 9 0.9 0.56
4 -2 9 7.82 0.96
4 -2 9 5.49 0.95
5 -2 9 7.35 1.04
6 -2 9 3.29 0.66
6 -2 9 0.42 0.58
7 -2 9 3.36 0.8
7 -2 9 3.51 0.37
7 -2 9 4.38 0.78
8 -2 9 4.22 0.89
8 -2 9 4.35 0.9
9 -2 9 1.62 0.81
9 -2 9 2.72 0.86
10 -2 9 2.27 0.9
11 -2 9 1.47 0.78
-12 -1 9 5.13 0.65
-11 -1 9 0.53 0.52
10 1 -9 1.51 0.98
9 1 -9 2.39 0.97
8 1 -9 -0.06 0.83
7 1 -9 18.31 2.13
6 1 -9 9.7 1.28
5 1 -9 0.21 0.65
-5 -1 9 -0.06 0.59
4 1 -9 49.32 4.64
-4 -1 9 46.62 5.93
3 1 -9 5.62 0.87
3 1 -9 6.99 0.81
-3 -1 9 4.72 0.97
-3 -1 9 6.69 0.71
2 1 -9 2.59 0.59
2 1 -9 1.31 0.53
-2 -1 9 1.16 0.56
-2 -1 9 1.32 0.45
1 1 -9 31.58 3.4
-1 -1 9 32.64 3.29
-1 -1 9 41.64 4.39
-1 -1 9 35.38 2.87
0 1 -9 3.36 0.66
0 -1 9 4.99 0.62
0 -1 9 3.64 0.74
-1 1 -9 60.81 5.82
1 -1 9 60.9 5.7
1 -1 9 62.15 7.48
-2 1 -9 5.92 0.82
2 -1 9 5.29 0.94
2 -1 9 6.47 0.83
3 -1 9 4.05 0.78
3 -1 9 5.05 0.79
4 -1 9 51.62 6.2
4 -1 9 49.28 4.79
5 -1 9 1.9 0.68
6 -1 9 1.7 0.3
6 -1 9 2.96 0.71
7 -1 9 6.79 0.65
7 -1 9 8.79 1.15
8 -1 9 2.96 0.92
8 -1 9 4.46 0.98
9 -1 9 1.65 0.8
9 -1 9 0.93 0.85
10 -1 9 1.59 0.89
11 -1 9 3.83 0.93
-12 0 9 0.12 0.47
-11 0 9 5.58 0.71
10 0 -9 -0.03 0.95
-10 0 9 0.64 0.52
9 0 -9 1.34 0.98
8 0 -9 0.41 0.85
7 0 -9 2.27 0.86
6 0 -9 0.75 0.68
5 0 -9 63 5.65
-5 0 9 54.92 7.21
4 0 -9 16.29 1.8
-4 0 9 15.39 2.22
3 0 -9 7.72 1.19
3 0 -9 10.73 1.13
-3 0 9 10.49 1.03
-3 0 9 12.65 1.65
2 0 -9 11.66 1.27
2 0 -9 10.5 1.48
-2 0 9 11.83 1.17
-2 0 9 15.36 1.87
1 0 -9 1.83 0.6
-1 0 9 1.74 0.6
0 0 -9 7.61 0.99
0 0 9 6.88 0.94
0 0 9 9.55 1.4
-1 0 -9 6.79 0.91
1 0 9 6.2 1.05
1 0 9 7.02 0.86
-2 0 -9 19.22 2.23
2 0 9 23.41 2.86
2 0 9 21.97 2.17
-3 0 -9 18.16 2.06
3 0 9 18.78 2.02
3 0 9 20.64 2.6
4 0 9 4.14 0.79
6 0 9 1.61 0.28
6 0 9 2.4 0.8
7 0 9 0.98 0.8
8 0 9 2.76 0.88
9 0 9 0.43 0.81
10 0 9 0.59 0.78
11 0 9 -0.2 0.77
-12 0 -9 -0.3 0.64
-12 1 9 0.17 0.47
-11 1 9 0.16 0.5
10 -1 -9 3.95 1.05
-10 1 9 2.46 0.58
9 -1 -9 1.87 0.97
-9 1 9 1.51 0.53
8 -1 -9 1.39 0.93
7 -1 -9 1.44 0.81
-7 1 9 2.7 0.48
6 -1 -9 1.48 0.73
-6 1 9 1.31 0.4
5 -1 -9 -0.27 0.67
-5 1 9 -0.18 0.51
4 -1 -9 8.19 1.05
-4 1 9 6.35 1.07
3 -1 -9 14.1 1.34
3 -1 -9 12.52 1.65
-3 1 9 17.78 2.05
-3 1 9 11.76 1.26
2 -1 -9 67.42 6.49
-2 1 9 68.66 8.3
1 -1 -9 4.68 0.84
-1 1 9 4.62 0.88
0 -1 -9 -0.21 0.62
0 1 9 0.32 0.67
0 1 9 0.41 0.43
-1 -1 -9 0.52 0.66
1 1 9 1.04 0.53
1 1 9 1.5 0.7
-2 -1 -9 60.97 6.49
2 1 9 75.39 8.36
-3 -1 -9 26.84 2.91
3 1 9 30.39 3.72
4 1 9 1.43 0.63
5 1 9 0.39 0.55
6 1 9 5.4 0.49
7 1 9 15.59 1.9
8 1 9 1.28 0.86
9 1 9 -0.32 0.88
10 1 9 0.37 0.87
-12 -1 -9 0.05 0.63
12 -2 -9 0.48 0.55
-12 2 9 0.32 0.47
-11 2 9 1.12 0.51
-10 2 9 -0.17 0.5
9 -2 -9 3.11 0.99
-9 2 9 1.87 0.53
8 -2 -9 2.28 0.97
-8 2 9 2.82 0.53
7 -2 -9 10.62 1.38
-7 2 9 9.27 0.96
6 -2 -9 0.74 0.69
-6 2 9 -0.22 0.39
5 -2 -9 0.58 0.65
-5 2 9 -0.43 0.49
4 -2 -9 -0.73 0.65
-4 2 9 0.32 0.53
3 -2 -9 -0.06 0.46
3 -2 -9 0.2 0.66
-3 2 9 0.87 0.57
2 -2 -9 21.13 2.36
-2 2 9 23.26 3
1 -2 -9 2.05 0.73
-1 2 9 1.49 0.76
0 -2 -9 18.39 1.93
0 2 9 19.97 2.62
0 2 9 15.27 1.71
-1 -2 -9 10.55 1.29
1 2 9 9.51 1.58
-2 -2 -9 13.75 1.77
2 2 9 15.95 2.46
-3 -2 -9 0.79 0.7
3 2 9 1.41 0.83
4 2 9 1.02 0.73
5 2 9 2.83 0.34
5 2 9 2.48 0.75
8 2 9 12.22 1.61
9 2 9 0.19 0.87
10 2 9 1.25 0.85
-11 -2 -9 -0.54 0.61
-12 -2 -9 -0.35 0.61
12 -3 -9 0.73 0.55
-12 3 9 1.11 0.48
-11 3 9 -0.24 0.48
-10 3 9 0.78 0.51
9 -3 -9 3.06 1.01
-9 3 9 3.52 0.59
8 -3 -9 -0.16 0.85
-8 3 9 0.05 0.45
7 -3 -9 14.41 1.65
-7 3 9 9.75 0.95
6 -3 -9 23.36 2.56
-6 3 9 24.2 1.84
-5 3 9 6.66 1.07
4 -3 -9 0.58 0.71
-4 3 9 0.21 0.56
3 -3 -9 14.05 1.73
-3 3 9 15.16 2.15
2 -3 -9 11.84 1.67
-2 3 9 15 2.18
1 -3 -9 1.43 0.73
-1 3 9 1 0.88
0 -3 -9 1.1 0.77
0 3 9 1.18 0.95
-1 -3 -9 0.31 0.76
1 3 9 0.79 0.91
-2 -3 -9 11.4 1.37
2 3 9 10.7 1.75
-3 -3 -9 11.74 1.58
3 3 9 14.67 2.33
-4 -3 -9 0.96 0.63
4 3 9 0.22 0.82
5 3 9 -0.09 0.26
5 3 9 0.11 0.71
9 3 9 -0.58 0.86
10 3 9 0.19 0.94
-11 -3 -9 2.84 0.67
11 -4 -9 0.5 0.67
9 -4 -9 -0.3 0.86
8 -4 -9 8.9 1.32
7 -4 -9 1.26 0.86
6 -4 -9 -0.17 0.75
5 -4 -9 7.94 1.14
4 -4 -9 6.83 0.94
-4 4 9 4 0.86
3 -4 -9 0.69 0.7
-3 4 9 -0.23 0.65
2 -4 -9 5.55 0.92
-2 4 9 3.09 0.98
0 -4 -9 51.75 5.16
0 4 9 54.62 6.7
-1 -4 -9 35.98 3.63
1 4 9 36.41 4.77
-2 -4 -9 4.05 0.86
2 4 9 3.77 1.11
-3 -4 -9 2.96 0.75
3 4 9 2.2 1
-4 -4 -9 8.1 1.05
4 4 9 6.56 0.64
4 4 9 6.75 1.33
5 4 9 -0.01 0.81
9 4 9 1.92 0.96
-10 -4 -9 3.26 0.67
10 4 9 2.77 1.12
-11 -4 -9 2.12 0.63
11 -5 -9 1.31 0.64
10 -5 -9 0.03 0.74
9 -5 -9 2.33 0.87
8 -5 -9 4.02 0.98
7 -5 -9 1.87 0.85
6 -5 -9 4.86 0.95
5 -5 -9 11.5 1.54
4 -5 -9 3.49 0.78
-4 5 9 1.92 0.72
3 -5 -9 0.96 0.71
-3 5 9 1.62 0.76
2 -5 -9 3.81 0.85
-2 5 9 2.25 0.92
1 -5 -9 37.2 3.61
-1 5 9 34.84 4.75
0 -5 -9 10.31 1.36
0 5 9 10.17 1.67
-1 -5 -9 23.73 2.82
1 5 9 32.18 3.84
-2 -5 -9 4.91 0.98
2 5 9 6.63 1.34
-3 -5 -9 5.33 0.9
3 5 9 3.68 1.2
-4 -5 -9 0.7 0.68
4 5 9 -0.13 0.91
5 5 9 7.2 1.39
-9 -5 -9 1.69 0.6
9 5 9 1.7 0.99
-10 -5 -9 0.66 0.57
-11 -5 -9 0.77 0.54
11 -6 -9 0.09 0.58
10 -6 -9 0.89 0.73
9 -6 -9 0.61 0.8
8 -6 -9 2.47 0.83
8 -6 -9 0.93 0.83
7 -6 -9 1.88 0.87
7 -6 -9 4.49 0.91
6 -6 -9 8.58 1.24
6 -6 -9 8.83 1.27
5 -6 -9 9.27 1.29
5 -6 -9 10.04 1.39
4 -6 -9 0.91 0.6
4 -6 -9 1.06 0.72
-4 6 9 -0.11 0.66
3 -6 -9 23.07 2.38
-3 6 9 20.85 3.09
2 -6 -9 27.39 2.69
-2 6 9 23.75 3.57
1 -6 -9 20.19 2.29
-1 6 9 21.68 3.12
0 -6 -9 6.07 1.07
-1 -6 -9 12.55 1.63
-2 -6 -9 24.93 2.62
-3 -6 -9 12.04 1.57
-4 -6 -9 7.91 1.13
-4 -6 -9 6.49 0.97
4 6 9 6.41 1.41
-5 -6 -9 1.71 0.59
5 6 9 0.64 0.97
-6 -6 -9 5.3 0.9
10 -7 -9 5.74 1
9 -7 -9 1.6 0.79
8 -7 -9 0.69 0.8
7 -7 -9 5.45 1.04
7 -7 -9 4.84 1.01
6 -7 -9 15.06 1.97
6 -7 -9 18.8 2.11
5 -7 -9 13.57 1.72
5 -7 -9 13.23 1.61
4 -7 -9 3.76 0.75
4 -7 -9 4.5 0.88
-4 7 9 1.63 0.88
3 -7 -9 25.95 2.46
3 -7 -9 21.01 2.49
-3 7 9 22.21 3.21
2 -7 -9 13.85 1.62
-2 7 9 11.53 1.91
1 -7 -9 -0.08 0.77
-1 7 9 -0.18 0.91
0 -7 -9 -0.84 0.78
-1 -7 -9 0.11 0.79
-2 -7 -9 2.91 0.86
-3 -7 -9 17.78 1.87
-3 -7 -9 15.39 1.91
-3 -7 -9 14.83 1.51
-4 -7 -9 3.03 0.65
-4 -7 -9 3.79 0.89
4 7 9 1.95 1.16
-5 -7 -9 2.92 0.65
5 7 9 -0.24 1.05
-6 -7 -9 3.67 0.72
-7 -7 -9 2.69 0.79
10 -8 -9 1.6 0.68
9 -8 -9 -0.19 0.69
8 -8 -9 0.25 0.74
7 -8 -9 9 1.32
6 -8 -9 19.58 2.29
6 -8 -9 22.25 2.44
5 -8 -9 0.36 0.64
5 -8 -9 0.48 0.71
4 -8 -9 3.58 0.71
4 -8 -9 3.2 0.81
-4 8 9 0.85 0.88
3 -8 -9 9.12 1.16
3 -8 -9 10.59 1.27
-3 8 9 6.66 1.48
2 -8 -9 3.02 0.83
2 -8 -9 2.56 0.62
-2 8 9 1.16 1
1 -8 -9 1.47 0.82
-1 8 9 1.28 1
0 -8 -9 0.68 0.83
-1 -8 -9 14.64 1.79
-2 -8 -9 13.62 1.58
-2 -8 -9 11.37 1.52
-3 -8 -9 1.83 0.84
-3 -8 -9 2.13 0.58
-3 -8 -9 2.36 0.63
-4 -8 -9 1.76 0.59
-4 -8 -9 1.56 0.7
-4 -8 -9 1.38 0.84
4 8 9 -0.73 1.09
-5 -8 -9 0.84 0.66
5 8 9 -0.01 1.09
-6 -8 -9 9.37 1.36
-7 -8 -9 1.38 0.71
-8 -8 -9 0.28 0.58
-9 -8 -9 -0.05 0.56
9 -9 -9 -0.23 0.65
8 -9 -9 2.58 0.82
7 -9 -9 0.34 0.72
6 -9 -9 8.85 1.29
5 -9 -9 -0.17 0.71
5 -9 -9 0.55 0.68
4 -9 -9 13.86 1.77
4 -9 -9 14.98 1.8
3 -9 -9 1.64 0.62
3 -9 -9 2.05 0.79
-3 9 9 -0.48 0.88
2 -9 -9 0.63 0.51
2 -9 -9 1.25 0.76
-2 9 9 -0.89 0.91
1 -9 -9 -0.25 0.78
-1 9 9 -1.29 0.99
0 -9 -9 5.56 1.13
0 -9 -9 5.39 0.84
-1 -9 -9 1.03 0.88
-1 -9 -9 0.59 0.58
-2 -9 -9 1.63 0.69
-2 -9 -9 2.71 0.91
-3 -9 -9 8.5 1.37
-3 -9 -9 9.69 1.25
-3 -9 -9 9.19 1.03
-4 -9 -9 13.2 1.74
-4 -9 -9 13.41 1.39
-4 -9 -9 14.17 1.71
-5 -9 -9 0.99 0.69
5 9 9 -0.69 1.09
-6 -9 -9 0.86 0.66
-7 -9 -9 0.9 0.68
-8 -9 -9 0 0.63
-9 -9 -9 0.41 0.66
8 -10 -9 4.53 0.88
7 -10 -9 1 0.7
6 -10 -9 1.31 0.71
5 -10 -9 7.71 1.14
4 -10 -9 17.35 2.14
4 -10 -9 20.49 2.1
3 -10 -9 1.48 0.77
3 -10 -9 1.49 0.57
-3 10 9 -0.55 0.89
2 -10 -9 1.94 0.8
2 -10 -9 0.79 0.51
2 -10 -9 1.75 0.41
-2 10 9 -0.69 0.97
1 -10 -9 0.68 0.81
1 -10 -9 0.15 0.51
-1 10 9 -1.2 0.96
0 -10 -9 18.46 1.83
0 -10 -9 16.56 2.03
0 10 9 11 2.38
-1 -10 -9 3.91 1.07
-1 -10 -9 4.19 0.81
-2 -10 -9 12.04 1.54
-2 -10 -9 9.4 1.41
-2 -10 -9 10.43 1.19
-3 -10 -9 1.89 0.75
-3 -10 -9 1.39 0.97
-3 -10 -9 2.43 0.67
3 10 9 0.77 1.22
-4 -10 -9 25.14 2.61
-4 -10 -9 20.43 2.63
-4 -10 -9 25.9 2.15
4 10 9 18.42 3.57
-5 -10 -9 17.44 1.85
5 10 9 11.53 2.29
-6 -10 -9 0.86 0.69
-7 -10 -9 0.34 0.67
-8 -10 -9 -0.4 0.62
7 -11 -9 2.06 0.69
6 -11 -9 0.07 0.6
5 -11 -9 0.14 0.57
4 -11 -9 0.68 0.56
3 -11 -9 1.24 0.53
-3 11 9 -1.77 0.84
2 -11 -9 6.31 1.02
2 -11 -9 3.96 0.73
-2 11 9 3.48 1.21
1 -11 -9 17.23 1.91
1 -11 -9 15.46 1.66
-1 11 9 12.62 2.34
0 -11 -9 0.61 0.48
0 -11 -9 0.44 0.89
0 11 9 -1.34 1.06
-1 -11 -9 9.06 1.47
-1 -11 -9 12.14 1.3
1 11 9 6.57 1.9
-2 -11 -9 7.01 0.95
-2 -11 -9 5.72 1.23
-2 -11 -9 8.04 0.91
2 11 9 3.73 1.6
-3 -11 -9 23.74 2.06
-3 -11 -9 21.78 2.49
3 11 9 20.56 3.52
-4 -11 -9 33.24 3.5
4 11 9 30.89 4.59
-5 -11 -9 4.8 0.84
-5 -11 -9 3.66 0.7
-6 -11 -9 0.56 0.68
-7 -11 -9 0.7 0.65
6 -12 -9 2.23 0.64
5 -12 -9 2.32 0.63
4 -12 -9 1.27 0.54
3 -12 -9 9.23 1.2
2 -12 -9 6.67 0.97
-2 12 9 6.71 1.41
-1 12 9 6.36 1.44
0 12 9 7.62 1.73
-1 -12 -9 3.97 0.7
-1 -12 -9 2.69 0.54
1 12 9 -0.51 1.15
-2 -12 -9 2.78 0.71
-2 -12 -9 2.43 0.56
2 12 9 -0.05 1.21
-3 -12 -9 2.04 0.61
-4 -12 -9 0.99 0.6
-4 -12 -9 -0.05 0.58
-5 -12 -9 0.65 0.55
-5 -12 -9 0.8 0.61
-6 -12 -9 0.14 0.59
5 -13 -9 -0.28 0.46
4 -13 -9 1.7 0.53
3 -13 -9 1.43 0.49
0 -13 -9 3.39 0.71
-1 -13 -9 8.62 1.01
-2 -13 -9 2.3 0.67
-3 -13 -9 2.33 0.63
-3 -13 -9 3.06 0.58
-4 -13 -9 10.18 1.1
-4 -13 -9 9.21 1.23
-5 -13 -9 1.01 0.51
-5 -13 -9 0.65 0.55
3 -14 -9 0.05 0.39
1 -14 -9 3.04 0.62
0 -14 -9 8.5 0.95
-1 -14 -9 2.14 0.6
-2 -14 -9 2.78 0.61
-3 -14 -9 0.78 0.54
-4 -19 10 0.03 0.61
-4 -19 10 0.37 0.37
-3 -19 10 1.01 0.39
-3 -19 10 0.66 0.63
-2 -19 10 0.18 0.58
-1 -19 10 10.87 1.49
0 -19 10 0.19 0.6
1 -19 10 9.03 1.36
2 -19 10 -0.04 0.66
3 -19 10 0.58 0.66
4 -19 10 -0.56 0.62
-5 -18 10 0.53 0.62
-5 -18 10 0.19 0.39
-4 -18 10 -0.01 0.64
-4 -18 10 0.89 0.41
-3 -18 10 0.52 0.41
-3 -18 10 0.5 0.63
-2 -18 10 1.59 0.68
-1 -18 10 3.37 0.76
0 -18 10 4.97 0.92
1 -18 10 3.11 0.78
2 -18 10 2.47 0.73
3 -18 10 0.96 0.65
3 -18 10 -0.14 0.58
4 -18 10 0.36 0.63
4 -18 10 0.59 0.56
5 -18 10 -0.07 0.51
-6 -17 10 -0.02 0.41
-6 -17 10 0.96 0.5
-5 -17 10 1.87 0.46
-5 -17 10 3.07 0.76
-4 -17 10 1.32 0.42
-4 -17 10 0.98 0.72
-3 -17 10 1.99 0.45
-3 -17 10 1.69 0.73
-2 -17 10 9.32 1.45
-2 -17 10 10.45 0.95
-1 -17 10 0.16 0.65
0 -17 10 -0.06 0.66
1 -17 10 -0.05 0.65
2 -17 10 11.85 1.49
2 -17 10 10.84 1.58
3 -17 10 2.61 0.75
3 -17 10 3.16 0.69
4 -17 10 1.69 0.68
4 -17 10 1.79 0.6
5 -17 10 3.77 0.71
5 -17 10 3.71 0.68
6 -17 10 0.11 0.52
6 -17 10 -0.01 0.47
-7 -16 10 0.65 0.42
-7 -16 10 0.84 0.54
-6 -16 10 2.56 0.52
-6 -16 10 3.53 0.63
-5 -16 10 3.82 0.58
-5 -16 10 3.53 0.7
-5 -16 10 5.69 0.94
-4 -16 10 1.89 0.49
-4 -16 10 3.21 0.65
-4 -16 10 3.11 0.82
-3 -16 10 4.23 0.71
-3 -16 10 3.64 0.86
-3 -16 10 4.72 0.58
-3 -16 10 4.13 0.9
-2 -16 10 37.07 4.37
-2 -16 10 37.79 3.78
-2 -16 10 40.53 2.88
-1 -16 10 17.82 2.21
-1 -16 10 17.59 1.88
0 -16 10 0.19 0.64
0 -16 10 0.04 0.45
1 -16 10 22.54 2.68
1 -16 10 22.32 2.51
2 -16 10 39.62 4.21
2 -16 10 40.01 4.5
3 -16 10 4.35 0.84
3 -16 10 4.19 0.92
3 -16 10 3.76 0.76
4 -16 10 2.31 0.56
4 -16 10 0.6 0.7
4 -16 10 1.24 0.57
4 -16 10 1.57 0.66
5 -16 10 6.19 0.84
5 -16 10 5.48 0.87
5 -16 10 6.61 0.98
6 -16 10 7.33 0.96
6 -16 10 6.8 0.93
7 -16 10 0.87 0.55
-8 -15 10 0.49 0.43
-8 -15 10 0.92 0.55
-7 -15 10 -0.48 0.44
-7 -15 10 0.17 0.56
-6 -15 10 4.84 0.63
-6 -15 10 4.44 0.75
-5 -15 10 4.77 0.92
-5 -15 10 3.98 0.62
-5 -15 10 3.25 0.7
-4 -15 10 9.76 1.03
-4 -15 10 11.45 1.5
-4 -15 10 10.11 1.35
-4 -15 10 11.83 1.17
-3 -15 10 2.09 0.7
-3 -15 10 2.6 0.46
-3 -15 10 2.2 0.62
-3 -15 10 0.79 0.77
-2 -15 10 25.53 1.8
-2 -15 10 21.37 2.09
-2 -15 10 21.4 2.76
-2 -15 10 23.8 2.38
-1 -15 10 2.47 0.57
-1 -15 10 2.26 0.44
-1 -15 10 1.81 0.76
-1 -15 10 2.4 0.76
-1 -15 10 2.25 0.57
0 -15 10 1.14 0.7
0 -15 10 1.54 0.68
0 -15 10 1.3 0.48
1 -15 10 3.66 0.74
1 -15 10 3.87 0.85
1 -15 10 3.09 0.79
1 -15 10 3.89 0.77
2 -15 10 16.82 2.07
2 -15 10 18.09 2.24
2 -15 10 20.06 1.94
2 -15 10 18.59 2
2 -15 10 18.1 1.75
3 -15 10 1.29 0.57
3 -15 10 1.3 0.51
3 -15 10 1.37 0.77
3 -15 10 1.45 0.62
4 -15 10 9.71 1.27
4 -15 10 10.23 1.47
4 -15 10 11.31 1.37
4 -15 10 12.21 1.41
5 -15 10 1.51 0.57
5 -15 10 2.05 0.71
5 -15 10 2.89 0.59
6 -15 10 4.17 0.7
7 -15 10 -0.42 0.54
8 -15 10 0.99 0.55
-9 -14 10 3.04 0.64
-9 -14 10 3.67 0.54
-8 -14 10 0.54 0.6
-8 -14 10 0.36 0.45
-7 -14 10 3.09 0.72
-7 -14 10 4.51 0.6
-6 -14 10 4.56 0.79
-6 -14 10 5.7 0.66
-5 -14 10 5.55 0.7
-5 -14 10 8.26 1.08
-5 -14 10 5.27 0.84
-5 -14 10 5.85 1.03
-4 -14 10 8.99 1.36
-4 -14 10 14.16 1.29
-4 -14 10 11.9 1.67
-3 -14 10 16.93 1.34
-3 -14 10 13.86 2.1
-3 -14 10 16.32 1.79
-3 -14 10 17.4 1.61
-3 -14 10 16.86 1.69
-2 -14 10 2.6 0.6
-2 -14 10 2.17 0.73
-2 -14 10 1.6 0.77
-2 -14 10 3.23 0.64
-2 -14 10 2.93 0.45
-1 -14 10 6.18 0.64
-1 -14 10 6.58 1.06
-1 -14 10 5.9 0.75
-1 -14 10 7.62 0.92
0 -14 10 38.14 3.68
0 -14 10 39.96 3.18
0 -14 10 34.56 3.21
0 -14 10 38.85 4.25
1 -14 10 3.67 0.81
1 -14 10 2.4 0.67
1 -14 10 3.81 0.77
1 -14 10 2.83 0.67
1 -14 10 5.02 0.65
2 -14 10 1.87 0.72
2 -14 10 2.38 0.54
2 -14 10 2.39 0.66
2 -14 10 2.15 0.58
2 -14 10 1.85 0.59
3 -14 10 15.89 1.83
3 -14 10 18.27 1.95
3 -14 10 18.55 1.98
3 -14 10 18.1 2.12
4 -14 10 16.88 1.89
4 -14 10 16.6 1.8
4 -14 10 17.56 1.93
4 -14 10 16.8 2.06
5 -14 10 7.57 1.07
5 -14 10 8.53 1.04
5 -14 10 9.35 1.21
5 -14 10 8.38 1.15
6 -14 10 3.76 0.67
7 -14 10 4.07 0.71
8 -14 10 0.59 0.53
9 -14 10 2.42 0.6
-10 -13 10 1.61 0.41
-10 -13 10 1.69 0.59
-9 -13 10 -0.04 0.6
-9 -13 10 -0.09 0.42
-8 -13 10 0.24 0.46
-8 -13 10 0.2 0.63
-7 -13 10 2.85 0.7
-7 -13 10 3.56 0.57
-6 -13 10 14.86 1.63
-6 -13 10 15.07 1.89
-6 -13 10 18.35 1.41
-5 -13 10 11.61 1.39
-5 -13 10 13.16 1.61
-5 -13 10 12.97 1.15
-5 -13 10 12.58 1.76
-4 -13 10 1.33 0.66
-4 -13 10 -0.24 0.54
-4 -13 10 -0.25 0.57
-4 -13 10 0.03 0.66
-4 -13 10 0.52 0.41
-3 -13 10 11.1 1.02
-3 -13 10 12.46 1.29
-3 -13 10 11.71 1.18
-3 -13 10 11.3 1.53
-2 -13 10 3.25 0.71
-2 -13 10 2.52 0.46
-2 -13 10 4.64 0.8
-1 -13 10 19.25 1.56
-1 -13 10 19.63 1.83
-1 -13 10 21.7 1.87
-1 -13 10 19.79 2.41
-1 -13 10 21.58 2.16
0 -13 10 2.22 0.67
0 -13 10 2.26 0.49
0 -13 10 2.38 0.63
0 -13 10 2.93 0.57
0 -13 10 2.9 0.76
1 -13 10 23.55 2.44
1 -13 10 25.96 2.48
1 -13 10 23.35 2.6
1 -13 10 22.8 2.78
1 -13 10 26.43 2.13
2 -13 10 7.2 1.03
2 -13 10 8.85 1.11
2 -13 10 8.33 0.99
2 -13 10 10.02 0.99
2 -13 10 8.43 1.15
3 -13 10 4.25 0.69
3 -13 10 3.76 0.73
3 -13 10 6.22 0.85
3 -13 10 7.44 0.85
3 -13 10 6.11 0.9
4 -13 10 0.14 0.67
4 -13 10 0.2 0.51
4 -13 10 -0.25 0.44
4 -13 10 0.52 0.46
5 -13 10 15.02 1.71
5 -13 10 13.2 1.82
5 -13 10 15.1 1.58
6 -13 10 13.6 1.47
6 -13 10 11.86 1.58
7 -13 10 1.67 0.56
8 -13 10 0.02 0.54
9 -13 10 0.72 0.54
-10 -12 10 0.24 0.61
-10 -12 10 0.49 0.4
-9 -12 10 0.88 0.47
-9 -12 10 1.36 0.66
-8 -12 10 10.53 1.04
-8 -12 10 10.42 1.18
-7 -12 10 2.55 0.72
-7 -12 10 2.9 0.54
-7 -12 10 2.52 0.8
-6 -12 10 0.42 0.68
-6 -12 10 0.31 0.63
-6 -12 10 0.51 0.45
-5 -12 10 0.49 0.59
-5 -12 10 0.9 0.43
-5 -12 10 1.47 0.65
-5 -12 10 0.49 0.64
-4 -12 10 0.44 0.39
-4 -12 10 0.42 0.56
-4 -12 10 1.03 0.64
-4 -12 10 1.62 0.61
-3 -12 10 2.67 0.44
-3 -12 10 2.95 0.68
-3 -12 10 2.93 0.58
-3 -12 10 2.92 0.73
-2 -12 10 15.54 1.45
-2 -12 10 13.7 1.17
-2 -12 10 13.46 1.39
-2 -12 10 14.46 1.8
-1 -12 10 4.09 0.51
-1 -12 10 3.95 0.82
-1 -12 10 4.3 0.74
-1 -12 10 5.24 0.86
-1 -12 10 5.6 0.66
0 -12 10 30.65 2.37
0 -12 10 26.18 2.9
0 -12 10 28.65 2.73
0 -12 10 24.27 2.05
0 -12 10 28.15 3.11
1 -12 10 1.81 0.52
1 -12 10 2.29 0.56
1 -12 10 2.12 0.66
1 -12 10 2.8 0.61
2 -12 10 16.18 1.46
2 -12 10 15.26 1.86
2 -12 10 13.76 1.71
2 -12 10 15.79 1.73
2 -12 10 16.03 1.64
3 -12 10 2.67 0.58
3 -12 10 2.24 0.52
3 -12 10 2.17 0.54
3 -12 10 1.37 0.49
3 -12 10 1.84 0.69
4 -12 10 1.6 0.67
4 -12 10 1.3 0.52
4 -12 10 1.74 0.47
4 -12 10 1.09 0.45
5 -12 10 1.23 0.5
5 -12 10 1.06 0.66
5 -12 10 0.95 0.62
6 -12 10 1.38 0.51
6 -12 10 2.1 0.72
7 -12 10 5.35 0.77
8 -12 10 5.17 0.78
9 -12 10 1.07 0.54
10 -12 10 0.82 0.53
-11 -11 10 1.12 0.59
-10 -11 10 0.53 0.39
-10 -11 10 0.93 0.63
-9 -11 10 4.21 0.57
-9 -11 10 4.26 0.78
-8 -11 10 0.48 0.66
-8 -11 10 -0.24 0.44
-7 -11 10 0.45 0.44
-7 -11 10 -0.63 0.63
-7 -11 10 0.14 0.74
-6 -11 10 0.15 0.63
-6 -11 10 -0.17 0.6
-6 -11 10 0.23 0.44
-5 -11 10 1.05 0.62
-5 -11 10 1.11 0.41
-5 -11 10 0.8 0.6
-4 -11 10 4.79 0.74
-4 -11 10 3.29 0.48
-4 -11 10 2.85 0.69
-4 -11 10 3.28 0.67
-3 -11 10 16.33 2
-3 -11 10 16.79 1.6
-3 -11 10 16.04 1.33
-3 -11 10 17.56 1.6
-2 -11 10 4.22 0.81
-2 -11 10 5.09 0.75
-2 -11 10 3.68 0.68
-2 -11 10 2.73 0.46
-1 -11 10 40.71 3.12
-1 -11 10 41.22 4.72
-1 -11 10 45.53 4.09
-1 -11 10 42.97 3.51
0 -11 10 2.4 0.68
0 -11 10 3.16 0.63
0 -11 10 2.07 0.58
1 -11 10 50.57 3.96
1 -11 10 44.64 5.35
1 -11 10 50.81 4.61
2 -11 10 7.55 1.08
2 -11 10 8.6 0.92
2 -11 10 8.94 1.14
3 -11 10 13.99 1.86
3 -11 10 16.06 1.45
3 -11 10 16.3 1.72
3 -11 10 16.69 1.67
4 -11 10 2.99 0.55
4 -11 10 2.33 0.66
4 -11 10 2.29 0.58
5 -11 10 -0.51 0.58
5 -11 10 0.59 0.61
5 -11 10 0.76 0.46
6 -11 10 1.54 0.49
6 -11 10 0.7 0.64
7 -11 10 0.34 0.63
7 -11 10 0.57 0.47
8 -11 10 -0.08 0.5
9 -11 10 2.21 0.59
10 -11 10 0.42 0.52
-11 -10 10 0.93 0.41
-11 -10 10 2.02 0.61
-10 -10 10 0.71 0.44
-10 -10 10 1.15 0.64
-10 -10 10 0.15 0.4
-9 -10 10 2.19 0.5
-9 -10 10 2.2 0.69
-9 -10 10 1.86 0.49
-8 -10 10 1.46 0.46
-8 -10 10 1.71 0.65
-8 -10 10 0.46 0.45
-7 -10 10 1.77 0.46
-7 -10 10 1.47 0.78
-7 -10 10 2.47 0.65
-7 -10 10 0.82 0.45
-6 -10 10 0.46 0.42
-6 -10 10 0.47 0.62
-6 -10 10 0.46 0.56
-6 -10 10 0.74 0.6
-5 -10 10 2.33 0.64
-5 -10 10 4.12 0.65
-5 -10 10 2.45 0.46
-4 -10 10 14.27 1.52
-4 -10 10 14.67 1.84
-4 -10 10 15.02 1.23
-4 -10 10 16.88 1.51
-3 -10 10 2.04 0.42
-3 -10 10 4.77 0.7
-3 -10 10 2.12 0.61
-2 -10 10 12.01 1.38
-2 -10 10 10.81 1.25
-1 -10 10 1.08 0.57
-1 -10 10 2.38 0.68
0 10 -10 17.43 1.59
0 -10 10 17.63 1.58
0 -10 10 15.77 1.85
-1 10 -10 5.21 0.68
1 -10 10 3.69 0.82
1 -10 10 4.15 0.67
-2 10 -10 7.06 0.76
2 -10 10 5.66 0.88
2 -10 10 5.83 0.76
3 -10 10 7.85 1.02
3 -10 10 6.45 0.97
3 -10 10 8.64 0.87
4 -10 10 12.44 1.16
4 -10 10 10.4 1.39
4 -10 10 13.15 1.31
4 -10 10 10.35 1.46
5 -10 10 4.51 0.9
5 -10 10 6.67 0.77
5 -10 10 5.79 0.9
6 -10 10 0.78 0.46
6 -10 10 0.19 0.57
7 -10 10 1.7 0.71
7 -10 10 3.01 0.55
8 -10 10 5.95 1.12
8 -10 10 9.83 1.07
9 -10 10 2.27 0.63
10 -10 10 1.8 0.57
11 -10 10 0.92 0.54
-11 -9 10 0.83 0.44
-11 -9 10 1.81 0.63
-10 -9 10 1.38 0.65
-10 -9 10 0.72 0.44
-10 -9 10 0.97 0.42
-9 -9 10 0.07 0.66
-9 -9 10 -0.07 0.43
-9 -9 10 0.04 0.42
-8 -9 10 3.49 0.51
-8 -9 10 3.11 0.54
-8 -9 10 5.05 0.77
-7 -9 10 0.21 0.4
-7 -9 10 0.71 0.39
-7 -9 10 0.66 0.68
-7 -9 10 0.59 0.59
-6 -9 10 2.44 0.58
-6 -9 10 0.19 0.4
-6 -9 10 1.03 0.38
-6 -9 10 1.5 0.55
-5 -9 10 4.32 0.69
-5 -9 10 3.91 0.56
-5 -9 10 5.81 0.76
-5 -9 10 5.13 0.55
-4 -9 10 25.01 2.02
-4 -9 10 20.9 1.72
-3 -9 10 11.05 1.38
-3 -9 10 12.06 1.21
-2 -9 10 0.72 0.72
-2 -9 10 0.16 0.54
1 9 -10 14.69 1.42
-1 -9 10 13.93 1.41
-1 -9 10 13.44 1.63
0 9 -10 1.74 0.57
0 -9 10 1.54 0.57
0 -9 10 1.25 0.66
-1 9 -10 10.85 1.08
1 -9 10 9.5 1.1
1 -9 10 9.68 1.24
-2 9 -10 -0.26 0.47
2 -9 10 0.14 0.58
2 -9 10 0.41 0.44
-3 9 -10 3.62 0.59
3 -9 10 3.64 0.67
3 -9 10 2.76 0.53
4 -9 10 29.94 2.42
4 -9 10 27.59 2.85
5 -9 10 3.34 0.67
5 -9 10 4.62 0.57
5 -9 10 1.67 0.7
6 -9 10 10.31 1.23
6 -9 10 10.87 1.35
7 -9 10 1.46 0.67
7 -9 10 1.79 0.51
8 -9 10 8.01 1.17
8 -9 10 8.53 1.06
9 -9 10 0.2 0.56
10 -9 10 1.56 0.58
11 -9 10 1.52 0.56
-11 -8 10 0.33 0.43
-11 -8 10 0.99 0.62
-10 -8 10 0.84 0.66
-10 -8 10 0.91 0.46
-9 -8 10 0.74 0.45
-9 -8 10 2.58 0.68
-9 -8 10 0.61 0.43
-8 -8 10 0.32 0.41
-8 -8 10 0.05 0.61
-8 -8 10 -0.02 0.42
-7 -8 10 1.19 0.43
-7 -8 10 1.4 0.4
-7 -8 10 1.5 0.66
-7 -8 10 1.68 0.62
-6 -8 10 2.99 0.46
-6 -8 10 2.71 0.45
-6 -8 10 2.68 0.57
-6 -8 10 3.05 0.63
-5 -8 10 0.02 0.35
-5 -8 10 0.32 0.49
-5 -8 10 0.48 0.37
-4 -8 10 3.88 0.66
-4 -8 10 4.66 0.54
-3 -8 10 0.67 0.57
-3 -8 10 2.12 0.7
2 8 -10 -0.4 0.66
-2 -8 10 0.3 0.55
-2 -8 10 -0.3 0.69
1 8 -10 1.89 0.61
-1 -8 10 2.76 0.73
-1 -8 10 2.79 0.6
0 8 -10 171.82 13.86
0 -8 10 170.24 15.84
0 -8 10 172.83 13.64
-1 8 -10 10.78 1.03
1 -8 10 7.63 1.14
1 -8 10 9.69 1.02
2 -8 10 0.03 0.48
2 -8 10 0.11 0.58
3 -8 10 0.05 0.58
3 -8 10 0.94 0.45
4 -8 10 1.88 0.46
4 -8 10 0.73 0.58
5 -8 10 1.33 0.59
6 -8 10 1.26 0.64
6 -8 10 2.57 0.53
7 -8 10 4.39 0.7
7 -8 10 4.58 0.89
8 -8 10 0.55 0.52
8 -8 10 0.35 0.67
9 -8 10 12.36 1.34
9 -8 10 8.99 1.4
10 -8 10 1.31 0.59
11 -8 10 1.86 0.59
-12 -7 10 0.04 0.55
-12 -7 10 0.36 0.43
-11 -7 10 -0.1 0.44
-11 -7 10 0.4 0.61
-10 -7 10 5.07 0.67
-10 -7 10 6.17 0.84
-9 -7 10 0.68 0.61
-9 -7 10 0.89 0.47
-8 -7 10 4.85 0.6
-8 -7 10 4.49 0.57
-8 -7 10 4.36 0.74
-7 -7 10 1.86 0.42
-7 -7 10 1.88 0.68
-7 -7 10 1.91 0.59
-7 -7 10 2.04 0.45
-6 -7 10 1.79 0.4
-6 -7 10 1.61 0.58
-6 -7 10 2.51 0.54
-6 -7 10 1.63 0.41
-5 -7 10 6.75 0.63
-5 -7 10 5.92 0.8
-4 -7 10 4.3 0.68
-3 -7 10 15.5 1.49
-3 -7 10 14.91 1.7
2 7 -10 3.41 0.76
-2 -7 10 1.82 0.7
-2 -7 10 1.68 0.62
0 7 -10 22.35 1.97
0 -7 10 21.62 1.92
0 -7 10 21.46 2.25
1 -7 10 70.74 6.9
1 -7 10 77.1 5.94
2 -7 10 -0.06 0.6
2 -7 10 0.7 0.47
3 -7 10 4.8 0.64
3 -7 10 5.28 0.81
4 -7 10 1.59 0.62
4 -7 10 1.76 0.46
5 -7 10 6.02 0.72
5 -7 10 5.79 0.92
6 -7 10 1 0.57
6 -7 10 0.94 0.45
7 -7 10 0.62 0.45
7 -7 10 -0.11 0.58
8 -7 10 0.41 0.69
8 -7 10 2.51 0.55
9 -7 10 2.16 0.79
9 -7 10 3.34 0.69
10 -7 10 3.18 0.65
11 -7 10 0.1 0.53
-12 -6 10 2.41 0.49
-12 -6 10 1.4 0.57
-11 -6 10 1.61 0.66
-11 -6 10 2.62 0.53
-10 -6 10 2.92 0.69
-10 -6 10 2.78 0.55
-9 -6 10 2.31 0.59
-9 -6 10 0.08 0.47
-8 -6 10 0.92 0.4
-8 -6 10 0.72 0.56
-8 -6 10 1.04 0.45
-7 -6 10 3.17 0.61
-7 -6 10 2.46 0.45
-7 -6 10 2.44 0.47
-6 -6 10 11.65 1.09
-6 -6 10 14.09 1.11
-5 -6 10 0.54 0.47
-4 -6 10 11.05 1.18
3 6 -10 1.16 0.72
-3 -6 10 -0.04 0.57
-3 -6 10 1.17 0.65
2 6 -10 18.07 1.69
-2 -6 10 16.95 1.64
-2 -6 10 18.21 1.88
1 6 -10 29.74 2.49
-1 -6 10 29.4 2.42
-1 -6 10 26.69 2.81
0 6 -10 99 7.9
0 -6 10 94.95 9.02
0 -6 10 97.76 7.77
2 -6 10 22.31 2.38
2 -6 10 24.88 2.04
3 -6 10 0.3 0.45
3 -6 10 -0.57 0.58
4 -6 10 6.94 1.03
4 -6 10 8.25 0.9
5 -6 10 -0.02 0.58
5 -6 10 1.07 0.43
6 -6 10 1.71 0.64
7 -6 10 1.22 0.72
7 -6 10 1.09 0.48
8 -6 10 0.86 0.68
8 -6 10 1.48 0.53
9 -6 10 15.7 1.87
9 -6 10 15.35 1.72
10 -6 10 3.17 0.67
10 -6 10 3.4 0.89
11 -6 10 -0.86 0.51
-12 -5 10 0.29 0.44
-12 -5 10 0.32 0.51
-11 -5 10 5.2 0.79
-11 -5 10 5.86 0.69
-10 -5 10 1.11 0.59
-10 -5 10 0.65 0.5
-9 -5 10 1.55 0.52
-9 -5 10 3.82 0.64
-8 -5 10 0.33 0.52
-8 -5 10 1.24 0.45
-7 -5 10 21.09 1.51
-7 -5 10 17.13 1.73
-7 -5 10 17.96 1.48
6 5 -10 12.75 1.36
-6 -5 10 10.33 0.99
-6 -5 10 9.35 0.95
5 5 -10 4.03 0.79
-5 -5 10 4.2 0.62
4 5 -10 1.36 0.64
-4 -5 10 2.4 0.57
3 5 -10 44.3 3.57
-3 -5 10 41.41 3.47
-3 -5 10 41.08 4
2 5 -10 4.31 0.75
-2 -5 10 4.46 0.66
-2 -5 10 1.87 0.87
-2 -5 10 4.84 0.71
1 5 -10 6.73 0.86
-1 -5 10 6.31 0.87
-1 -5 10 6.54 0.76
-1 -5 10 4.58 1.06
0 -5 10 -0.55 0.62
0 -5 10 0.22 0.49
0 -5 10 -0.63 0.55
1 -5 10 7.6 0.81
1 -5 10 6.71 1.13
1 -5 10 6.36 0.94
2 -5 10 10.54 1.03
2 -5 10 8.92 1.44
2 -5 10 11.77 1.24
3 -5 10 46.45 3.92
3 -5 10 50.02 4.57
3 -5 10 48.06 5.95
4 -5 10 2.07 0.67
4 -5 10 2.42 0.51
5 -5 10 2.18 0.67
5 -5 10 1.93 0.48
6 -5 10 3.38 0.74
7 -5 10 2.47 0.7
8 -5 10 0.54 0.71
8 -5 10 0.84 0.59
8 -5 10 1.64 0.55
9 -5 10 0.04 0.52
9 -5 10 0.27 0.79
10 -5 10 3.98 0.72
10 -5 10 3.2 0.89
11 -5 10 0.61 0.54
-12 -4 10 0.86 0.46
-12 -4 10 0.59 0.49
-11 -4 10 2.57 0.55
-11 -4 10 2.16 0.61
-10 -4 10 3.38 0.61
-10 -4 10 3.58 0.67
9 4 -10 0.22 0.91
-9 -4 10 0.84 0.49
-9 -4 10 -0.33 0.54
8 4 -10 1.27 0.86
-8 -4 10 1.77 0.52
-8 -4 10 0.83 0.46
7 4 -10 0.59 0.75
-7 -4 10 1.41 0.42
-7 -4 10 -0.04 0.49
6 4 -10 7.79 1.07
-6 -4 10 6.68 0.68
5 4 -10 18.96 1.92
-5 -4 10 15.46 1.56
4 4 -10 3.73 0.8
-4 -4 10 7.2 0.74
3 4 -10 1.66 0.59
3 4 -10 2.05 0.64
-3 -4 10 0.59 0.75
-3 -4 10 1.62 0.58
-3 -4 10 1.76 0.57
2 4 -10 16.64 1.56
2 4 -10 16.5 1.69
-2 -4 10 15.83 1.49
-2 -4 10 15.14 1.66
-2 -4 10 15.48 2.32
1 4 -10 95.74 7.41
-1 -4 10 92.55 11.06
-1 -4 10 86.19 8.42
-1 -4 10 89.78 7.26
0 -4 10 78.12 9.16
0 -4 10 73.19 6.02
0 -4 10 74.1 6.98
1 -4 10 74.9 6.85
1 -4 10 69.98 5.9
1 -4 10 75.94 8.97
2 -4 10 9.25 0.9
2 -4 10 4.82 0.89
3 -4 10 1.11 0.62
3 -4 10 1.33 0.5
3 -4 10 0.61 0.55
4 -4 10 17.82 1.83
4 -4 10 17.11 2.28
4 -4 10 15.72 1.54
5 -4 10 14.77 1.62
5 -4 10 13.87 1.35
6 -4 10 8.38 0.95
6 -4 10 10.39 1.22
7 -4 10 -0.01 0.66
7 -4 10 0.09 0.22
7 -4 10 0.29 0.45
8 -4 10 5.56 0.98
8 -4 10 3.8 0.71
9 -4 10 1.03 0.54
9 -4 10 1.56 0.89
10 -4 10 8.09 1.02
10 -4 10 7.85 1.22
-12 -3 10 0.25 0.47
-11 -3 10 1.91 0.58
-11 -3 10 2.64 0.55
10 3 -10 -1.05 0.9
-10 -3 10 -0.18 0.49
-10 -3 10 -0.18 0.54
9 3 -10 -1.19 0.9
-9 -3 10 0.57 0.5
-9 -3 10 -0.19 0.52
8 3 -10 2.89 0.9
-8 -3 10 2.66 0.57
-8 -3 10 2.67 0.52
7 3 -10 1.49 0.81
-7 -3 10 1.12 0.53
-7 -3 10 0.9 0.42
6 3 -10 6.13 1.09
-6 -3 10 7.96 0.71
5 3 -10 3.5 0.8
4 3 -10 0.93 0.63
4 3 -10 1.71 0.71
-4 -3 10 1.94 0.55
-4 -3 10 1.04 0.68
3 3 -10 35.56 3.87
3 3 -10 41.65 3.37
-3 -3 10 42.43 3.29
-3 -3 10 40.2 5.02
2 3 -10 37.11 3.94
2 3 -10 43.97 3.45
-2 -3 10 40.23 3.35
-2 -3 10 45.26 5.14
-2 -3 10 39.53 3.85
1 3 -10 8.84 0.99
-1 -3 10 9.2 1
-1 -3 10 8.65 0.92
-1 -3 10 6.94 1.27
0 3 -10 7.19 1.1
0 -3 10 10.44 1.04
0 -3 10 11.44 1.16
0 -3 10 10.56 1.61
1 -3 10 3 0.61
1 -3 10 2.16 0.68
1 -3 10 2.69 0.54
2 -3 10 47.02 3.85
2 -3 10 48.43 4.46
2 -3 10 46.36 5.84
3 -3 10 56.47 7.05
3 -3 10 59.17 4.64
3 -3 10 56.89 5.4
4 -3 10 4.94 0.67
4 -3 10 6.03 0.9
4 -3 10 5.04 0.9
5 -3 10 0.92 0.45
5 -3 10 0.75 0.63
6 -3 10 4.73 0.64
6 -3 10 3.2 0.38
6 -3 10 4.72 0.83
7 -3 10 1.5 0.28
7 -3 10 2.46 0.77
8 -3 10 9.58 1.29
9 -3 10 0.32 0.74
10 -3 10 0.48 0.79
11 -3 10 0.52 0.8
-12 -2 10 0.83 0.48
-11 -2 10 0.35 0.5
10 2 -10 3.62 1.1
-10 -2 10 1.36 0.55
9 2 -10 2.91 1
-9 -2 10 1.4 0.53
8 2 -10 2.3 1.01
-8 -2 10 3.36 0.55
7 2 -10 6.93 1.19
-7 -2 10 8.1 0.76
6 2 -10 5.76 0.92
-6 -2 10 3.95 0.55
5 2 -10 -0.29 0.64
-5 -2 10 0.66 0.57
4 2 -10 4.12 0.82
4 2 -10 4.8 0.85
-4 -2 10 5.36 0.69
-4 -2 10 4.33 0.91
3 2 -10 35.79 3.44
3 2 -10 34.63 2.99
-3 -2 10 35.3 4.45
-3 -2 10 34.43 2.9
2 2 -10 16.05 1.52
2 2 -10 12.85 1.65
-2 -2 10 16.98 2.22
-2 -2 10 15.29 1.42
1 2 -10 8.57 1.03
-1 -2 10 9.37 0.99
-1 -2 10 9.41 1.55
-1 -2 10 8.35 1.05
0 2 -10 4.62 0.75
0 -2 10 3.74 0.89
0 -2 10 6.32 0.69
0 -2 10 6.6 0.76
-1 2 -10 5.85 0.86
1 -2 10 7.22 0.89
1 -2 10 9.72 1.39
2 -2 10 26.55 2.63
2 -2 10 26.7 3.43
4 -2 10 1.02 0.63
4 -2 10 0.67 0.52
5 -2 10 3.37 0.74
6 -2 10 21.54 1.61
6 -2 10 25.87 2.39
7 -2 10 3.4 0.72
7 -2 10 1.64 0.3
8 -2 10 8.66 1.26
9 -2 10 1.3 0.89
10 -2 10 0.18 0.86
11 -2 10 1.42 0.87
-12 -1 10 0.81 0.49
-11 -1 10 8.22 0.85
10 1 -10 -0.41 0.97
-10 -1 10 0.11 0.51
9 1 -10 0.38 0.97
-9 -1 10 0.84 0.52
8 1 -10 5.15 1.07
-8 -1 10 3.79 0.6
7 1 -10 0.42 0.8
-7 -1 10 0.69 0.43
6 1 -10 2.7 0.85
-6 -1 10 3.4 0.49
5 1 -10 4 0.8
-5 -1 10 2.52 0.73
4 1 -10 26.75 2.72
4 1 -10 26.99 2.33
-4 -1 10 25.76 3.45
3 1 -10 16.3 1.51
3 1 -10 13.51 1.73
-3 -1 10 14.34 1.4
-3 -1 10 17.36 2.24
2 1 -10 10.93 1.27
2 1 -10 10.6 1.4
-2 -1 10 14.08 1.85
-2 -1 10 11.13 1.15
1 1 -10 10.19 1.17
-1 -1 10 10.68 1.04
-1 -1 10 10.76 1.65
-1 -1 10 8.13 1.09
0 1 -10 9.5 1.37
0 -1 10 13.98 1.82
0 -1 10 11.84 1.29
-1 1 -10 1.97 0.6
1 -1 10 2.99 0.6
2 -1 10 4.65 0.77
3 -1 10 18.72 2.08
3 -1 10 21.18 2.69
4 -1 10 28.77 3.49
4 -1 10 25.41 2.72
5 -1 10 11.26 1.42
6 -1 10 4.53 0.79
6 -1 10 2.75 0.35
7 -1 10 2.89 0.81
7 -1 10 1.2 0.29
8 -1 10 0.66 0.7
9 -1 10 0.64 0.84
10 -1 10 0.13 0.79
-12 0 10 2.54 0.55
-11 0 10 -0.2 0.5
-10 0 10 0.38 0.53
9 0 -10 -0.18 0.97
-9 0 10 0.84 0.53
8 0 -10 0.07 0.87
-8 0 10 0.58 0.46
7 0 -10 -0.1 0.82
-7 0 10 0.4 0.42
6 0 -10 10.8 1.39
-6 0 10 10.9 1
5 0 -10 1.09 0.7
-5 0 10 0.31 0.56
4 0 -10 1.25 0.69
4 0 -10 1.09 0.62
-4 0 10 1.23 0.61
3 0 -10 11.02 1.47
3 0 -10 10.88 1.24
-3 0 10 10.93 1.15
-3 0 10 13.65 1.83
2 0 -10 2.26 0.64
2 0 -10 1.36 0.67
-2 0 10 1.9 0.52
1 0 -10 2.82 0.76
-1 0 10 4.13 0.81
0 0 -10 0.97 0.67
0 0 10 2.44 0.55
0 0 10 2.83 0.74
1 0 10 4.3 0.7
-2 0 -10 13.14 1.43
2 0 10 10.31 1.43
2 0 10 13.78 1.96
3 0 10 7.84 1.15
3 0 10 11 1.62
4 0 10 1.84 0.65
4 0 10 1.87 0.75
5 0 10 6.31 0.93
5 0 10 4.36 0.44
6 0 10 2.94 0.81
7 0 10 1.28 0.83
8 0 10 6.91 1.23
9 0 10 1.6 0.84
10 0 10 3.91 1
-12 0 -10 0.38 0.62
-12 1 10 -0.01 0.48
-11 1 10 0.47 0.51
-10 1 10 0.54 0.54
9 -1 -10 0.9 0.96
-9 1 10 1.39 0.54
8 -1 -10 2.46 0.97
-8 1 10 1.45 0.49
7 -1 -10 2.91 0.92
-7 1 10 2.75 0.51
6 -1 -10 4.63 0.93
-6 1 10 2.46 0.49
5 -1 -10 8.81 1.08
-5 1 10 5.48 1.04
4 -1 -10 13.02 1.38
4 -1 -10 9.31 1.14
-4 1 10 10.24 1.7
3 -1 -10 41.68 4.17
3 -1 -10 43.33 3.54
-3 1 10 44.21 5.31
-3 1 10 41.37 3.46
2 -1 -10 20.61 2.2
2 -1 -10 18.3 1.85
-2 1 10 22.32 2.8
1 -1 -10 19.36 2.33
-1 1 10 25.25 3.01
0 -1 -10 0.38 0.7
0 1 10 0.72 0.5
0 1 10 2.35 0.74
-1 -1 -10 21.32 2.47
1 1 10 22.38 2.34
1 1 10 28.72 3.24
-2 -1 -10 15.61 1.96
2 1 10 16.22 1.85
2 1 10 21.12 2.55
-3 -1 -10 71.14 7
3 1 10 78.49 8.97
3 1 10 70.15 6.85
4 1 10 2.36 0.68
5 1 10 6.21 0.98
5 1 10 3.96 0.85
5 1 10 4.33 0.44
6 1 10 0.18 0.25
6 1 10 0.25 0.75
7 1 10 8.64 1.29
8 1 10 -0.14 0.83
9 1 10 0.46 0.93
10 1 10 0.4 0.81
-12 -1 -10 -0.41 0.59
12 -2 -10 0.66 0.56
-12 2 10 1 0.49
-11 2 10 0.05 0.49
-10 2 10 0.43 0.52
9 -2 -10 0.5 0.97
-9 2 10 0.62 0.52
8 -2 -10 9.39 1.42
-8 2 10 9.21 0.9
7 -2 -10 0.6 0.84
-7 2 10 -0.16 0.42
6 -2 -10 0.89 0.81
-6 2 10 2.06 0.43
5 -2 -10 3.64 0.8
-5 2 10 2.22 0.68
4 -2 -10 11.04 1.34
-4 2 10 9.97 1.66
3 -2 -10 26.95 2.73
3 -2 -10 24.57 2.26
-3 2 10 27.86 3.43
2 -2 -10 0.25 0.7
-2 2 10 1.62 0.68
1 -2 -10 13.31 1.78
-1 2 10 16.33 2.33
0 -2 -10 0.17 0.72
0 2 10 2.07 0.86
-1 -2 -10 7.96 1.14
1 2 10 7.56 1.36
1 2 10 8.63 1.08
-2 -2 -10 1.68 0.78
2 2 10 2.14 0.89
-3 -2 -10 39.28 4.17
3 2 10 45.35 5.36
4 2 10 3.42 0.8
4 2 10 2.9 0.4
5 2 10 5.56 1.04
5 2 10 6.7 0.59
7 2 10 7.06 1.21
8 2 10 -0.35 0.93
9 2 10 1.88 1.01
10 2 10 0.09 0.81
-11 -2 -10 0.84 0.59
11 -3 -10 1.25 0.7
-11 3 10 1.76 0.54
-10 3 10 0.41 0.51
9 -3 -10 4.4 1.11
-9 3 10 4.76 0.66
8 -3 -10 0.48 0.9
-8 3 10 0.16 0.47
7 -3 -10 0.97 0.88
-7 3 10 1.03 0.43
6 -3 -10 0.37 0.79
5 -3 -10 -0.42 0.73
-5 3 10 -0.09 0.53
4 -3 -10 1.37 0.72
-4 3 10 0.17 0.54
3 -3 -10 12.73 1.45
-3 3 10 10.3 1.82
2 -3 -10 50.31 5.13
-2 3 10 55.5 6.58
1 -3 -10 44.46 4.74
-1 3 10 53.38 6.14
0 -3 -10 12.79 1.73
0 3 10 16.07 2.45
-1 -3 -10 60.81 5.99
1 3 10 63.59 7.76
-2 -3 -10 68.91 6.75
2 3 10 71.79 8.71
-3 -3 -10 1.17 0.76
3 3 10 0.21 0.84
4 3 10 1.93 0.86
4 3 10 2.28 0.33
5 3 10 6.25 0.49
5 3 10 3.62 1.01
8 3 10 1.52 0.96
9 3 10 0.52 0.96
-10 -3 -10 3.46 0.66
10 3 10 2.66 1
-11 -3 -10 -0.27 0.57
11 -4 -10 1.79 0.72
10 -4 -10 -0.33 0.75
8 -4 -10 0.63 0.88
7 -4 -10 1.23 0.91
6 -4 -10 3.49 0.95
5 -4 -10 0.48 0.76
4 -4 -10 3.02 0.8
-4 4 10 1.64 0.69
3 -4 -10 0.82 0.71
-3 4 10 0.3 0.64
2 -4 -10 1.58 0.78
-2 4 10 0.72 0.77
1 -4 -10 27.4 3.1
-1 4 10 34.35 4.1
0 -4 -10 0.12 0.76
0 4 10 0.56 0.96
-1 -4 -10 72.73 6.58
1 4 10 63.74 8.47
-2 -4 -10 1.33 0.82
2 4 10 0.95 0.96
-3 -4 -10 6.26 1
3 4 10 4.87 1.18
3 4 10 4.15 0.44
-4 -4 -10 2.81 0.82
4 4 10 1.37 0.31
4 4 10 0.93 0.89
5 4 10 -0.69 0.77
8 4 10 1.3 0.99
-9 -4 -10 2.16 0.59
9 4 10 2.05 1
-10 -4 -10 1.75 0.61
-11 -4 -10 0.33 0.54
11 -5 -10 2.65 0.72
10 -5 -10 0.58 0.75
9 -5 -10 -0.01 0.79
8 -5 -10 0.29 0.85
7 -5 -10 2.38 0.92
6 -5 -10 10.14 1.39
5 -5 -10 8.34 1.22
4 -5 -10 5.58 0.92
-4 5 10 3.07 0.83
3 -5 -10 26.64 2.65
-3 5 10 23.63 3.37
2 -5 -10 5.54 0.99
-2 5 10 4.76 1.1
1 -5 -10 8.12 1.13
-1 5 10 6.79 1.39
0 -5 -10 0.18 0.78
0 5 10 -0.19 0.95
-1 -5 -10 13.25 1.62
1 5 10 9.7 1.81
-2 -5 -10 6.47 1.12
2 5 10 5.19 1.33
-3 -5 -10 22.08 2.32
3 5 10 18.44 3.14
-4 -5 -10 6.84 1.12
4 5 10 5.69 1.33
5 5 10 -0.28 0.89
9 5 10 -0.14 0.98
-10 -5 -10 -0.6 0.54
10 -6 -10 3.64 0.85
9 -6 -10 -0.48 0.76
8 -6 -10 7.24 1.22
7 -6 -10 -1.32 0.74
7 -6 -10 0.03 0.78
6 -6 -10 3.73 0.94
6 -6 -10 4.05 0.94
5 -6 -10 4.05 0.89
5 -6 -10 2.65 0.8
4 -6 -10 5.16 0.94
4 -6 -10 6.3 0.88
-4 6 10 2.69 0.93
3 -6 -10 1.45 0.79
3 -6 -10 2.1 0.62
-3 6 10 0.42 0.79
2 -6 -10 13.46 1.52
-2 6 10 10.52 1.79
1 -6 -10 -0.13 0.75
-1 6 10 0.1 0.95
0 -6 -10 2.96 0.93
0 6 10 2.88 1.1
-1 -6 -10 0.96 0.86
1 6 10 0 1.03
-2 -6 -10 9.82 1.3
2 6 10 6.66 1.54
-3 -6 -10 -0.33 0.84
-3 -6 -10 0.19 0.52
3 6 10 -1.33 0.98
-4 -6 -10 0.59 0.61
-4 -6 -10 2.07 0.89
4 6 10 0.49 1.03
-5 -6 -10 2.23 0.64
5 6 10 0.11 0.97
-6 -6 -10 3.7 0.78
9 6 10 1.87 1.19
10 -7 -10 3.43 0.81
9 -7 -10 2.45 0.82
8 -7 -10 1.64 0.82
7 -7 -10 12.13 1.63
7 -7 -10 10.64 1.49
6 -7 -10 3.9 0.94
6 -7 -10 5.06 0.95
5 -7 -10 1.73 0.78
5 -7 -10 0.66 0.69
4 -7 -10 1.28 0.77
4 -7 -10 0.37 0.61
-4 7 10 -1.64 0.66
3 -7 -10 22.97 2.56
3 -7 -10 25.68 2.51
-3 7 10 20.99 3.24
2 -7 -10 2.89 0.62
2 -7 -10 3.06 0.89
-2 7 10 1.1 0.99
1 -7 -10 0.04 0.77
-1 7 10 0.27 0.95
0 -7 -10 -0.61 0.82
0 7 10 -0.01 1.01
-1 -7 -10 1.2 0.91
1 7 10 1 1.11
-2 -7 -10 0.68 0.89
2 7 10 -0.09 1.07
-3 -7 -10 15.43 2.12
-3 -7 -10 18.39 1.63
-3 -7 -10 17.54 2.01
-4 -7 -10 4.44 0.8
-4 -7 -10 4.16 1.06
4 7 10 3.75 1.28
-5 -7 -10 1.21 0.65
5 7 10 -1.99 0.97
-6 -7 -10 7.29 1.09
-7 -7 -10 9.1 1.27
9 -8 -10 1.63 0.74
8 -8 -10 1.74 0.77
7 -8 -10 -0.1 0.71
6 -8 -10 3.01 0.9
6 -8 -10 5.74 0.92
5 -8 -10 0.11 0.65
5 -8 -10 0.42 0.73
4 -8 -10 11.05 1.27
4 -8 -10 9.14 1.26
-4 8 10 6.36 1.4
3 -8 -10 1.08 0.77
3 -8 -10 1.12 0.59
-3 8 10 -0.37 0.82
2 -8 -10 0.91 0.8
2 -8 -10 0.93 0.54
-2 8 10 -0.41 0.89
1 -8 -10 6.53 1.09
-1 8 10 4.84 1.35
0 -8 -10 -0.9 0.83
0 8 10 -0.48 1.06
-1 -8 -10 4.44 1.08
1 8 10 4.29 1.33
-2 -8 -10 6.36 0.98
-2 -8 -10 6.78 1.2
2 8 10 5.39 1.47
-3 -8 -10 3.02 0.76
-3 -8 -10 3.76 1.08
-3 -8 -10 5.08 0.7
3 8 10 1.33 1.2
-4 -8 -10 4.35 0.83
-4 -8 -10 4.16 1.09
4 8 10 0.8 1.21
-5 -8 -10 -0.21 0.66
5 8 10 -0.22 1.02
-6 -8 -10 9.92 1.41
-7 -8 -10 2.67 0.71
-8 -8 -10 3.11 0.81
-9 -8 -10 0.9 0.62
9 -9 -10 0.49 0.62
8 -9 -10 2.08 0.78
7 -9 -10 0.5 0.72
6 -9 -10 5.85 1.04
5 -9 -10 6.67 1.04
5 -9 -10 5.78 1.03
4 -9 -10 7.86 1.18
4 -9 -10 8.23 1.16
3 -9 -10 4.87 0.94
3 -9 -10 4.21 0.75
-3 9 10 1.78 1
2 -9 -10 2.3 0.86
-2 9 10 1.5 1.01
1 -9 -10 10.77 1.41
-1 9 10 8.87 1.75
0 -9 -10 3.62 0.72
0 -9 -10 2.2 0.96
0 9 10 1.34 1.15
-1 -9 -10 2.32 0.98
-1 -9 -10 3.75 0.74
1 9 10 1.29 1.19
-2 -9 -10 2.54 1
-2 -9 -10 2.49 0.65
-2 -9 -10 2.14 0.76
2 9 10 0.98 1.14
-3 -9 -10 8.41 0.94
-3 -9 -10 6.74 1.31
-3 -9 -10 7.84 1.11
3 9 10 4.38 1.51
-4 -9 -10 13.82 1.31
-4 -9 -10 12.03 1.65
-4 -9 -10 11.9 1.55
4 9 10 7.82 1.94
-5 -9 -10 11.07 1.38
5 9 10 7.26 1.66
-6 -9 -10 2.11 0.69
-7 -9 -10 0.91 0.69
-8 -9 -10 1.11 0.67
8 -10 -10 0.86 0.64
7 -10 -10 0.21 0.65
6 -10 -10 1.51 0.72
5 -10 -10 13.42 1.7
4 -10 -10 36.64 3.9
3 -10 -10 1.47 0.78
3 -10 -10 0.69 0.53
-3 10 10 -1.58 0.79
2 -10 -10 15.27 1.66
2 -10 -10 14.45 1.89
1 -10 -10 0.32 0.8
1 -10 -10 -0.33 0.55
-1 10 10 -0.74 0.95
0 -10 -10 0.74 0.63
0 -10 -10 -0.07 0.85
0 10 10 -1.11 1.13
-1 -10 -10 -0.41 0.89
-1 -10 -10 -0.28 0.65
1 10 10 -1.15 1.08
-2 -10 -10 20.11 2.19
-2 -10 -10 19.68 2.32
-2 -10 -10 21.93 1.8
2 10 10 13.46 2.71
-3 -10 -10 14.08 1.43
-3 -10 -10 12.63 1.71
-3 -10 -10 16.68 1.95
3 10 10 10.68 2.19
4 10 10 2.78 1.21
-5 -10 -10 2.04 0.72
-6 -10 -10 0.07 0.66
-7 -10 -10 -0.06 0.61
-8 -10 -10 2.09 0.68
7 -11 -10 -0.17 0.55
6 -11 -10 1.05 0.58
5 -11 -10 1.1 0.57
4 -11 -10 0.22 0.51
3 -11 -10 7.14 0.97
-3 11 10 5.15 1.27
-2 11 10 -2.07 0.91
1 -11 -10 1.03 0.41
-1 11 10 1.31 1.05
0 -11 -10 -0.05 0.48
0 11 10 -0.71 1.01
-1 -11 -10 4.28 0.74
-1 -11 -10 4.62 0.78
1 11 10 2.26 1.32
-2 -11 -10 14.02 1.43
-2 -11 -10 13.14 1.61
2 11 10 12.15 2.23
-3 -11 -10 18.3 2.2
-3 -11 -10 20.63 1.86
-4 -11 -10 0.96 0.6
-4 -11 -10 0.87 0.65
-5 -11 -10 0.45 0.64
-6 -11 -10 0.95 0.66
-7 -11 -10 0.16 0.62
6 -12 -10 -0.11 0.46
5 -12 -10 0.05 0.46
4 -12 -10 0.66 0.46
3 -12 -10 -0.08 0.45
-1 -12 -10 9.46 1.04
-1 -12 -10 8.48 1.05
-2 -12 -10 1.75 0.66
-2 -12 -10 0.96 0.53
-3 -12 -10 0.94 0.67
-3 -12 -10 0.95 0.56
-4 -12 -10 0.46 0.57
-4 -12 -10 1.19 0.57
-5 -12 -10 0.11 0.56
4 -13 -10 0.12 0.42
3 -13 -10 0.48 0.41
0 -13 -10 0.53 0.58
-1 -13 -10 2.45 0.67
-2 -13 -10 0.91 0.61
-3 -13 -10 1.31 0.56
-4 -13 -10 0.82 0.51
-4 -13 -10 0.31 0.47
1 -14 -10 7.08 0.83
0 -14 -10 2.14 0.58
-1 -14 -10 1.9 0.56
-3 -19 11 -0.31 0.59
-3 -19 11 -0.29 0.38
-2 -19 11 4.47 0.85
-1 -19 11 1.53 0.66
0 -19 11 0.2 0.62
1 -19 11 1.9 0.72
2 -19 11 4.82 0.91
3 -19 11 0.23 0.66
-5 -18 11 0.72 0.41
-5 -18 11 -0.21 0.61
-4 -18 11 3.25 0.76
-4 -18 11 2.45 0.48
-3 -18 11 -0.04 0.39
-3 -18 11 -0.18 0.62
-2 -18 11 3.59 0.81
-1 -18 11 6.92 1.08
0 -18 11 7.4 1.12
1 -18 11 7.83 1.16
2 -18 11 5.51 0.98
3 -18 11 -0.19 0.66
4 -18 11 3.17 0.78
-6 -17 11 -0.12 0.49
-6 -17 11 0.1 0.42
-5 -17 11 5.82 0.64
-5 -17 11 5.44 0.94
-5 -17 11 4.89 0.73
-4 -17 11 -0.21 0.41
-4 -17 11 0.22 0.51
-4 -17 11 -0.31 0.7
-3 -17 11 6.32 0.96
-3 -17 11 3.7 0.58
-2 -17 11 3.32 0.82
-2 -17 11 3.44 0.52
-1 -17 11 1.1 0.7
0 -17 11 1.33 0.73
1 -17 11 0.94 0.7
2 -17 11 3.35 0.82
3 -17 11 10.24 1.4
4 -17 11 -0.53 0.55
4 -17 11 0.09 0.5
4 -17 11 0.27 0.64
5 -17 11 3.1 0.74
5 -17 11 6.25 0.75
5 -17 11 4.77 0.87
6 -17 11 0.64 0.54
-7 -16 11 0.01 0.52
-7 -16 11 0.23 0.44
-6 -16 11 3.77 0.72
-6 -16 11 4.8 0.61
-5 -16 11 10.93 1.07
-5 -16 11 11.26 1.2
-5 -16 11 11.63 1.52
-4 -16 11 9.29 0.95
-4 -16 11 10.73 1.38
-4 -16 11 8.25 1.05
-3 -16 11 2.06 0.48
-3 -16 11 3.38 0.81
-3 -16 11 2.59 0.63
-2 -16 11 26.46 2.37
-2 -16 11 28 3.11
-2 -16 11 27.29 2.05
-2 -16 11 24.34 2.69
-1 -16 11 56.61 6.13
-1 -16 11 53.18 5.28
0 -16 11 0.93 0.48
0 -16 11 -0.09 0.7
0 -16 11 0.81 0.68
1 -16 11 63.54 6.88
1 -16 11 59.67 5.08
2 -16 11 27.77 2.99
2 -16 11 30.87 3.42
3 -16 11 4.17 0.86
3 -16 11 4.27 0.8
3 -16 11 4.09 0.71
3 -16 11 4.53 0.89
4 -16 11 9.07 1.27
4 -16 11 9.28 1.41
4 -16 11 10.05 1.18
4 -16 11 8.91 1.29
5 -16 11 9.2 1.11
5 -16 11 7.72 1.19
6 -16 11 3.23 0.65
7 -16 11 -0.72 0.54
-8 -15 11 1.24 0.46
-8 -15 11 1.56 0.58
-7 -15 11 -0.32 0.56
-7 -15 11 -0.09 0.44
-6 -15 11 3.45 0.56
-6 -15 11 2.31 0.66
-5 -15 11 1.47 0.77
-5 -15 11 1.38 0.49
-5 -15 11 2.06 0.64
-4 -15 11 -0.24 0.6
-4 -15 11 0.55 0.76
-4 -15 11 1.09 0.68
-4 -15 11 -0.46 0.43
-3 -15 11 1.16 0.6
-3 -15 11 1.11 0.65
-3 -15 11 1.87 0.46
-3 -15 11 0.85 0.75
-2 -15 11 7.18 0.96
-2 -15 11 6.89 0.73
-2 -15 11 6.69 0.85
-2 -15 11 7.56 1.06
-2 -15 11 7.3 1.12
-1 -15 11 0.99 0.51
-1 -15 11 0.8 0.69
-1 -15 11 1.88 0.71
-1 -15 11 1.1 0.51
-1 -15 11 0.82 0.41
0 -15 11 0.18 0.64
0 -15 11 0.89 0.63
1 -15 11 1.54 0.71
1 -15 11 1.64 0.6
1 -15 11 1.21 0.78
1 -15 11 2.31 0.67
2 -15 11 3.52 0.77
2 -15 11 3.23 0.9
2 -15 11 3.35 0.71
2 -15 11 6.16 0.72
2 -15 11 4.59 0.85
3 -15 11 1.23 0.52
3 -15 11 1.03 0.8
3 -15 11 1.34 0.64
3 -15 11 0.91 0.58
4 -15 11 0.1 0.55
4 -15 11 -0.01 0.7
4 -15 11 0.27 0.6
4 -15 11 0.07 0.51
5 -15 11 0.87 0.55
5 -15 11 -0.15 0.5
5 -15 11 0.95 0.74
5 -15 11 0.36 0.65
6 -15 11 3.43 0.67
7 -15 11 0.86 0.58
8 -15 11 1.05 0.55
-9 -14 11 0.65 0.56
-9 -14 11 -0.05 0.41
-8 -14 11 0.57 0.46
-8 -14 11 0.56 0.58
-7 -14 11 1.59 0.64
-7 -14 11 1.74 0.5
-6 -14 11 1.26 0.49
-6 -14 11 0.03 0.62
-5 -14 11 4.15 0.96
-5 -14 11 4.21 0.92
-5 -14 11 5.34 0.63
-5 -14 11 4.92 0.77
-4 -14 11 22.07 2.07
-4 -14 11 22.67 2.39
-4 -14 11 21.08 2.71
-4 -14 11 23.27 1.76
-3 -14 11 8.05 1.07
-3 -14 11 9.41 0.97
-3 -14 11 6.21 1.05
-3 -14 11 10.51 1.37
-2 -14 11 2.31 0.6
-2 -14 11 1.74 0.71
-2 -14 11 2.42 0.47
-2 -14 11 1.82 0.74
-1 -14 11 5.63 0.68
-1 -14 11 5.09 0.87
-1 -14 11 3.23 0.54
-1 -14 11 3.95 0.78
0 -14 11 33.16 3.74
0 -14 11 33.22 3.27
0 -14 11 31.76 2.83
0 -14 11 33.38 2.82
0 -14 11 32.79 3.24
1 -14 11 8.3 1.28
1 -14 11 8.13 1.02
1 -14 11 9.37 1.06
1 -14 11 8.11 1.19
2 -14 11 3.08 0.84
2 -14 11 2.45 0.66
2 -14 11 2.55 0.58
2 -14 11 1.78 0.6
2 -14 11 2.58 0.68
3 -14 11 15.51 1.44
3 -14 11 14.69 1.79
3 -14 11 13.91 1.68
3 -14 11 13.06 1.55
3 -14 11 14.8 1.68
4 -14 11 21.49 2.21
4 -14 11 20.64 2.43
4 -14 11 21.68 2.12
4 -14 11 18.46 2.25
5 -14 11 4.83 0.75
5 -14 11 4.89 0.9
5 -14 11 4.33 0.94
6 -14 11 1.47 0.76
6 -14 11 1 0.53
7 -14 11 1.42 0.58
8 -14 11 2.57 0.64
9 -14 11 0.28 0.52
-9 -13 11 0.73 0.44
-8 -13 11 1.31 0.67
-8 -13 11 0.42 0.47
-7 -13 11 -0.41 0.65
-7 -13 11 0.56 0.47
-6 -13 11 4.59 0.61
-6 -13 11 3.78 0.75
-6 -13 11 3.39 0.88
-5 -13 11 8.92 1.1
-5 -13 11 11.28 1.44
-5 -13 11 10.97 1.01
-4 -13 11 0.27 0.69
-4 -13 11 0.24 0.68
-4 -13 11 0.73 0.58
-4 -13 11 0.56 0.42
-3 -13 11 2.06 0.59
-3 -13 11 0.69 0.67
-3 -13 11 2.06 0.69
-3 -13 11 0.95 0.43
-2 -13 11 1.6 0.43
-2 -13 11 2.79 0.68
-2 -13 11 3.11 0.72
-2 -13 11 3.57 0.62
-1 -13 11 30.89 2.97
-1 -13 11 29.67 3.38
-1 -13 11 27.55 2.94
-1 -13 11 30.34 2.23
-1 -13 11 31.2 2.57
-1 -13 11 28.18 2.58
0 -13 11 0.93 0.58
0 -13 11 2.57 0.46
0 -13 11 -0.03 0.71
0 -13 11 0.96 0.51
0 -13 11 0.81 0.57
0 -13 11 0.44 0.4
1 -13 11 28.25 2.83
1 -13 11 27.9 3.2
1 -13 11 24.83 2.99
1 -13 11 28.41 2.44
1 -13 11 30.51 2.8
2 -13 11 5.27 0.91
2 -13 11 6.78 1.03
2 -13 11 6.15 0.82
2 -13 11 7.35 0.87
2 -13 11 5.32 0.85
3 -13 11 2.9 0.7
3 -13 11 3.79 0.86
3 -13 11 4.39 0.7
3 -13 11 3.48 0.62
3 -13 11 3.16 0.65
4 -13 11 0.34 0.58
4 -13 11 0.27 0.46
4 -13 11 1.5 0.71
4 -13 11 -0.47 0.46
5 -13 11 8.44 1.19
5 -13 11 8.5 1.02
5 -13 11 7.3 1.18
6 -13 11 7.03 1.17
6 -13 11 7.94 0.99
7 -13 11 0.29 0.51
8 -13 11 1.42 0.59
9 -13 11 0.74 0.5
-10 -12 11 -0.34 0.37
-10 -12 11 -0.06 0.61
-9 -12 11 1.73 0.69
-9 -12 11 2.05 0.48
-8 -12 11 2.13 0.52
-8 -12 11 1.27 0.7
-7 -12 11 3.16 0.91
-7 -12 11 3.89 0.59
-7 -12 11 4.18 0.79
-6 -12 11 5.61 0.83
-6 -12 11 4.7 0.62
-6 -12 11 4.26 0.92
-5 -12 11 2.15 0.7
-5 -12 11 3.03 0.66
-5 -12 11 2.26 0.49
-5 -12 11 2.23 0.72
-4 -12 11 16.11 1.55
-4 -12 11 14.95 1.95
-4 -12 11 15.85 1.59
-4 -12 11 14.87 1.28
-3 -12 11 2.49 0.68
-3 -12 11 1.7 0.65
-3 -12 11 2.14 0.57
-3 -12 11 1.6 0.43
-2 -12 11 1.28 0.67
-2 -12 11 -0.15 0.35
-2 -12 11 0.9 0.52
-2 -12 11 1.38 0.6
-2 -12 11 -0.11 0.58
-1 -12 11 6.02 0.98
-1 -12 11 5.36 0.63
-1 -12 11 7.44 0.79
-1 -12 11 5.98 0.86
-1 -12 11 6.52 0.97
0 -12 11 69.22 6.12
0 -12 11 66.22 5.32
0 -12 11 78.74 5.94
0 -12 11 73.34 8.06
0 -12 11 78.53 7.05
0 -12 11 74.6 6.88
1 -12 11 6.94 1.1
1 -12 11 7.87 0.92
1 -12 11 7.3 1.07
1 -12 11 8.45 0.94
1 -12 11 5.34 0.94
1 -12 11 8.46 0.8
2 -12 11 1.06 0.51
2 -12 11 0.78 0.47
2 -12 11 0.59 0.69
2 -12 11 0.91 0.55
2 -12 11 0.67 0.53
3 -12 11 2.21 0.58
3 -12 11 1.13 0.48
3 -12 11 1.48 0.53
3 -12 11 1.69 0.67
3 -12 11 1.94 0.58
4 -12 11 17.69 2.19
4 -12 11 17.8 1.91
4 -12 11 20.07 2.01
5 -12 11 9.87 1.37
5 -12 11 10.95 1.33
5 -12 11 9.8 1.16
6 -12 11 1.76 0.75
6 -12 11 1.26 0.53
7 -12 11 7.31 0.98
7 -12 11 8.87 1.19
8 -12 11 6.35 0.92
9 -12 11 1.77 0.56
10 -12 11 -0.21 0.47
-10 -11 11 3.88 0.73
-10 -11 11 2.87 0.48
-9 -11 11 7.15 0.96
-9 -11 11 7.05 0.72
-8 -11 11 0.56 0.48
-8 -11 11 0.97 0.68
-7 -11 11 2.09 0.5
-7 -11 11 2.52 0.72
-7 -11 11 1.47 0.79
-6 -11 11 0.99 0.45
-6 -11 11 1.28 0.64
-6 -11 11 1.26 0.67
-5 -11 11 0.31 0.4
-5 -11 11 -0.87 0.6
-5 -11 11 -0.47 0.59
-4 -11 11 1.89 0.63
-4 -11 11 1.13 0.61
-4 -11 11 0.19 0.38
-4 -11 11 1.7 0.61
-3 -11 11 0.11 0.58
-3 -11 11 0.23 0.54
-3 -11 11 0.17 0.36
-3 -11 11 0.4 0.6
-2 -11 11 27.55 2.27
-2 -11 11 24.93 2.95
-2 -11 11 25.28 2.28
-2 -11 11 24.54 1.94
-2 -11 11 26.82 2.61
-1 -11 11 24.68 2.96
-1 -11 11 27.57 2.28
-1 -11 11 25.53 1.95
-1 -11 11 26.31 2.62
0 -11 11 -0.42 0.63
0 -11 11 0.56 0.57
0 -11 11 0.02 0.49
-1 11 -11 17.52 1.69
1 -11 11 19.86 1.99
1 -11 11 17.71 2.16
1 -11 11 19.16 1.7
2 -11 11 28.63 2.55
2 -11 11 25.31 2.57
2 -11 11 23.74 2.19
2 -11 11 23.25 2.88
3 -11 11 -0.16 0.48
3 -11 11 0.59 0.48
3 -11 11 -0.53 0.64
3 -11 11 0.22 0.47
4 -11 11 4.21 0.85
4 -11 11 3.91 0.79
4 -11 11 4.02 0.68
4 -11 11 6.01 0.71
5 -11 11 -0.4 0.63
5 -11 11 -0.38 0.6
5 -11 11 0.07 0.45
6 -11 11 8.35 1.14
6 -11 11 7.45 0.98
7 -11 11 4.51 0.75
7 -11 11 5.49 1
8 -11 11 0.5 0.53
9 -11 11 5.9 0.86
10 -11 11 1.14 0.51
-11 -10 11 0.4 0.58
-11 -10 11 0.62 0.4
-10 -10 11 4.38 0.55
-10 -10 11 4.17 0.57
-10 -10 11 4.11 0.77
-9 -10 11 -0.3 0.42
-9 -10 11 0.21 0.46
-9 -10 11 0.21 0.65
-8 -10 11 16.2 1.3
-8 -10 11 14.65 1.3
-8 -10 11 12.91 1.57
-7 -10 11 1.05 0.47
-7 -10 11 1.99 0.76
-6 -10 11 0.36 0.43
-6 -10 11 0.12 0.58
-6 -10 11 1.41 0.63
-6 -10 11 0.93 0.42
-5 -10 11 4.42 0.75
-4 -10 11 -0.09 0.36
-4 -10 11 -0.67 0.56
-4 -10 11 0.41 0.59
-4 -10 11 -0.4 0.6
-3 -10 11 8.08 0.83
-3 -10 11 8.27 1.18
-3 -10 11 10.81 1.07
-2 -10 11 11.25 1.64
-2 -10 11 14.32 1.09
-2 -10 11 14.12 1.62
-2 -10 11 13.17 1.36
1 10 -11 3.04 0.69
-1 -10 11 1.64 0.69
-1 -10 11 1.89 0.6
-1 -10 11 1.94 0.6
0 10 -11 5.24 0.76
0 -10 11 4.38 0.77
0 -10 11 4.56 0.85
0 -10 11 5.29 0.75
-1 10 -11 1.1 0.56
1 -10 11 1.99 0.67
1 -10 11 1.72 0.54
1 -10 11 2.78 0.61
-2 10 -11 4.68 0.75
2 -10 11 5.52 0.92
2 -10 11 8.16 0.97
2 -10 11 4.99 0.74
3 -10 11 2.96 0.59
3 -10 11 2.78 0.68
3 -10 11 2.07 0.54
4 -10 11 -0.43 0.54
4 -10 11 -0.17 0.45
4 -10 11 0.67 0.47
4 -10 11 -0.19 0.59
5 -10 11 12.19 1.3
5 -10 11 12.09 1.45
5 -10 11 9.91 1.56
6 -10 11 4.49 0.89
6 -10 11 4.96 0.74
7 -10 11 18.81 2.05
7 -10 11 20.74 2.16
8 -10 11 10.02 1.25
9 -10 11 1.48 0.6
10 -10 11 1.7 0.57
11 -10 11 2.02 0.56
-11 -9 11 1.05 0.44
-11 -9 11 1.09 0.6
-10 -9 11 1.88 0.67
-10 -9 11 1.28 0.44
-10 -9 11 2.14 0.49
-9 -9 11 0.89 0.45
-9 -9 11 1.69 0.67
-9 -9 11 0.49 0.47
-8 -9 11 5.32 0.86
-8 -9 11 5.41 0.64
-8 -9 11 6.1 0.68
-7 -9 11 4.07 0.68
-7 -9 11 0.76 0.72
-7 -9 11 1.82 0.48
-6 -9 11 13.28 1.3
-6 -9 11 15.65 1.28
-6 -9 11 15.9 1.49
-6 -9 11 16.19 1.51
-5 -9 11 4.1 0.52
-5 -9 11 4.81 0.67
-5 -9 11 2.53 0.49
-5 -9 11 3.55 0.68
-4 -9 11 7.51 0.96
-4 -9 11 6.35 0.89
-4 -9 11 7.53 0.7
-3 -9 11 5.58 0.9
-3 -9 11 3.9 0.5
-3 -9 11 5.25 0.74
-2 -9 11 13.59 1.67
-2 -9 11 14.71 1.43
1 9 -11 4.14 0.75
-1 -9 11 3.31 0.67
-1 -9 11 4.27 0.81
0 9 -11 1.61 0.6
0 -9 11 1.37 0.71
0 -9 11 1.36 0.59
-1 9 -11 11.55 1.11
1 -9 11 10.18 1.09
1 -9 11 8.77 1.24
-2 9 -11 11.63 1.22
2 -9 11 12.68 1.23
2 -9 11 11.39 1.44
-3 9 -11 9.11 0.96
3 -9 11 7.71 1.21
3 -9 11 8.34 1.09
3 -9 11 8.26 0.93
4 -9 11 5.59 0.92
4 -9 11 5.99 0.77
4 -9 11 6.88 0.88
4 -9 11 5.93 0.93
5 -9 11 9.15 1.34
5 -9 11 10.07 1.18
5 -9 11 11.96 1.35
6 -9 11 16.44 1.89
6 -9 11 17.54 1.81
7 -9 11 13.18 1.52
7 -9 11 11.49 1.41
8 -9 11 4.58 0.71
8 -9 11 2.3 0.84
9 -9 11 3.26 0.88
9 -9 11 3.05 0.69
10 -9 11 1.3 0.55
11 -9 11 1.94 0.56
-11 -8 11 1.78 0.64
-11 -8 11 1.85 0.48
-10 -8 11 1.01 0.66
-10 -8 11 1.24 0.48
-9 -8 11 1.42 0.45
-9 -8 11 1.8 0.69
-9 -8 11 2.14 0.52
-8 -8 11 3.54 0.56
-8 -8 11 3.46 0.53
-8 -8 11 3.2 0.73
-7 -8 11 8.98 0.84
-7 -8 11 9.38 1.03
-7 -8 11 9.21 0.84
-7 -8 11 8.12 1.21
-6 -8 11 9.13 0.85
-6 -8 11 8.32 0.9
-6 -8 11 9.85 1.04
-6 -8 11 10.58 1.05
-5 -8 11 8.7 0.93
-5 -8 11 7.09 0.91
-5 -8 11 7.71 0.74
-5 -8 11 7.56 0.75
-4 -8 11 1.52 0.57
-4 -8 11 0.76 0.37
-3 -8 11 4.88 0.77
-3 -8 11 4.88 0.85
2 8 -11 7.17 0.97
-2 -8 11 6.13 0.9
-2 -8 11 11.98 1.23
1 8 -11 4.18 0.74
-1 -8 11 5.16 0.84
-1 -8 11 3.53 0.65
0 8 -11 106.35 8.35
0 -8 11 102.35 8.22
0 -8 11 99.45 9.54
-1 8 -11 11.54 1.29
1 -8 11 12.01 1.26
1 -8 11 13.04 1.44
2 -8 11 16.18 1.49
2 -8 11 15.33 1.74
3 -8 11 3.28 0.58
3 -8 11 3.08 0.7
4 -8 11 7.87 0.9
4 -8 11 8.15 1.08
5 -8 11 9.29 0.92
5 -8 11 7.34 1.06
5 -8 11 8.3 0.98
5 -8 11 5.91 1.08
6 -8 11 3.5 0.55
6 -8 11 1.83 0.71
7 -8 11 1.12 0.68
7 -8 11 3.17 0.57
8 -8 11 3 0.61
8 -8 11 1.97 0.77
9 -8 11 4.47 0.75
9 -8 11 2.79 0.85
10 -8 11 0.39 0.52
11 -8 11 2.17 0.58
-11 -7 11 0.65 0.61
-11 -7 11 -0.31 0.46
-10 -7 11 5.84 0.83
-10 -7 11 5.03 0.68
-9 -7 11 -0.24 0.62
-9 -7 11 0.19 0.47
-8 -7 11 8.27 0.77
-8 -7 11 7.67 0.79
-8 -7 11 7.41 0.94
-7 -7 11 1.53 0.58
-7 -7 11 1.48 0.46
-7 -7 11 2.1 0.44
-6 -7 11 0.88 0.52
-6 -7 11 0.53 0.38
-6 -7 11 0.72 0.54
-6 -7 11 0.39 0.41
-5 -7 11 1.81 0.42
-5 -7 11 2.08 0.43
-5 -7 11 1.61 0.55
-4 -7 11 1.66 0.57
3 7 -11 18.24 1.77
-3 -7 11 18.82 1.68
-3 -7 11 16.57 1.9
2 7 -11 63.43 4.99
-2 -7 11 57.36 5.68
-2 -7 11 60.36 4.9
1 7 -11 64.98 5.29
-1 -7 11 64.73 6.03
-1 -7 11 62.91 5.19
0 7 -11 5.28 0.82
0 -7 11 5.09 0.9
0 -7 11 5.24 0.76
1 -7 11 56.62 5.36
1 -7 11 57.03 4.61
3 -7 11 18.44 1.94
3 -7 11 17.95 1.64
4 -7 11 5.23 0.82
4 -7 11 4.41 0.67
5 -7 11 0.79 0.45
5 -7 11 0.64 0.62
6 -7 11 1.96 0.5
6 -7 11 1.37 0.66
7 -7 11 0.4 0.48
7 -7 11 0.88 0.64
8 -7 11 2.79 0.58
8 -7 11 0.41 0.76
9 -7 11 0.59 0.58
9 -7 11 -0.15 0.76
10 -7 11 1.97 0.78
10 -7 11 2.18 0.58
11 -7 11 0.35 0.51
-12 -6 11 0.6 0.51
-12 -6 11 -0.22 0.43
-11 -6 11 0.6 0.58
-11 -6 11 0.22 0.47
-10 -6 11 1.55 0.51
-10 -6 11 2.11 0.66
-9 -6 11 6.9 0.77
-9 -6 11 7.27 0.91
-8 -6 11 0.77 0.43
-8 -6 11 1.64 0.48
-8 -6 11 1.52 0.59
-7 -6 11 1.14 0.54
-7 -6 11 0.23 0.42
-7 -6 11 0.42 0.37
-6 -6 11 1.03 0.4
-6 -6 11 1.7 0.42
-6 -6 11 1.39 0.53
-5 -6 11 0.92 0.49
-5 -6 11 0.31 0.38
-5 -6 11 0.16 0.36
-4 -6 11 1.58 0.56
3 6 -11 15.37 1.52
-3 -6 11 12.56 1.59
-3 -6 11 15 1.41
2 6 -11 33.71 2.83
-2 -6 11 34.05 2.76
-2 -6 11 30.45 3.17
1 6 -11 0.83 0.66
-1 -6 11 1.61 0.67
-1 -6 11 1.25 0.55
0 6 -11 8.33 0.97
0 -6 11 7.25 0.88
0 -6 11 6.82 1.04
1 -6 11 3.69 0.68
1 -6 11 4.93 0.83
2 -6 11 24.63 2.47
2 -6 11 24.16 2.12
3 -6 11 11.13 1.18
3 -6 11 12.25 1.43
4 -6 11 9.7 1.09
4 -6 11 11.57 1.37
5 -6 11 5.77 0.94
5 -6 11 5.23 0.7
6 -6 11 4.11 0.61
6 -6 11 3.37 0.37
6 -6 11 5.28 0.91
7 -6 11 6.57 0.91
7 -6 11 7.5 1.07
8 -6 11 3.02 0.9
8 -6 11 3.11 0.65
9 -6 11 1.9 0.85
9 -6 11 2.52 0.62
10 -6 11 0.09 0.72
10 -6 11 0.93 0.54
11 -6 11 1.24 0.54
-12 -5 11 1.47 0.47
-12 -5 11 0.53 0.49
-11 -5 11 4.43 0.59
-11 -5 11 3.14 0.68
-10 -5 11 6.91 0.77
-10 -5 11 6.72 0.89
-9 -5 11 0.93 0.51
-9 -5 11 0.83 0.59
-8 -5 11 2.21 0.59
-8 -5 11 1.82 0.5
-7 -5 11 1.93 0.46
-7 -5 11 1.56 0.4
-7 -5 11 1.5 0.55
-6 -5 11 -0.2 0.36
-6 -5 11 0.47 0.4
-5 -5 11 1.83 0.43
-5 -5 11 0.75 0.52
-4 -5 11 1.92 0.55
3 5 -11 4.67 0.88
-3 -5 11 4.19 0.77
-3 -5 11 7.41 0.84
2 5 -11 0.87 0.67
-2 -5 11 1.16 0.78
-2 -5 11 1.95 0.59
-2 -5 11 1.86 0.6
1 5 -11 55.75 4.43
-1 -5 11 52.2 4.34
-1 -5 11 54.2 6.62
-1 -5 11 51.49 5.02
0 -5 11 3.93 0.73
0 -5 11 2.19 0.8
0 -5 11 2.76 0.63
1 -5 11 66.97 6.26
1 -5 11 65.03 5.39
1 -5 11 68.55 8.2
2 -5 11 6.05 1.12
2 -5 11 8.91 1.05
2 -5 11 6.64 0.84
3 -5 11 12.6 1.29
3 -5 11 12.87 1.96
3 -5 11 13.52 1.55
4 -5 11 10.08 1.09
4 -5 11 10.48 1.35
5 -5 11 0.53 0.46
5 -5 11 -0.7 0.63
6 -5 11 0.92 0.47
6 -5 11 1.31 0.25
6 -5 11 1.38 0.76
7 -5 11 0.85 0.26
7 -5 11 1.15 0.52
7 -5 11 2.46 0.85
8 -5 11 0.21 0.77
8 -5 11 1.32 0.54
9 -5 11 2.7 0.91
9 -5 11 1.63 0.58
10 -5 11 -0.04 0.51
10 -5 11 0.77 0.79
11 -5 11 1.21 0.55
-12 -4 11 0.47 0.47
-12 -4 11 -0.32 0.46
-11 -4 11 1.34 0.57
-11 -4 11 1.48 0.51
-10 -4 11 6.95 0.79
-10 -4 11 7.11 0.89
-9 -4 11 1 0.51
-9 -4 11 0.89 0.59
8 4 -11 9.46 1.38
-8 -4 11 7.98 0.96
-8 -4 11 9.37 0.85
7 4 -11 1.45 0.82
-7 -4 11 0.2 0.5
-7 -4 11 0.41 0.42
6 4 -11 7.22 1
-6 -4 11 5.93 0.62
-6 -4 11 4.64 0.57
5 4 -11 22.95 2.56
-5 -4 11 25.92 1.89
4 4 -11 14.43 1.46
4 4 -11 11.97 1.57
-4 -4 11 14.08 1.33
-4 -4 11 13.27 2.08
3 4 -11 19.8 2.33
3 4 -11 24.29 2.07
-3 -4 11 22.81 3.1
-3 -4 11 24.45 2.01
2 4 -11 2.48 0.59
2 4 -11 2.87 0.76
-2 -4 11 1.7 0.78
-2 -4 11 2.82 0.63
-2 -4 11 1.72 0.61
1 4 -11 3.48 0.75
-1 -4 11 4.08 0.67
-1 -4 11 2.7 0.6
-1 -4 11 1.78 0.76
0 -4 11 10.99 1.2
0 -4 11 11.61 1.84
0 -4 11 11.17 1.35
1 -4 11 12.67 1.15
1 -4 11 10.14 1.37
1 -4 11 10.67 1.83
2 -4 11 1.95 0.57
2 -4 11 1.33 0.63
2 -4 11 1.27 0.67
3 -4 11 20.28 1.92
3 -4 11 22.99 2.26
3 -4 11 22.24 2.89
4 -4 11 16.82 1.82
4 -4 11 16.01 2.28
4 -4 11 16.4 1.52
5 -4 11 1.97 0.52
5 -4 11 2.74 0.69
6 -4 11 -0.07 0.45
6 -4 11 0.62 0.64
6 -4 11 0.23 0.23
7 -4 11 2.7 0.61
7 -4 11 3.06 0.35
7 -4 11 4 0.9
8 -4 11 2.48 0.91
8 -4 11 2.92 0.63
9 -4 11 0.37 0.57
9 -4 11 0.06 0.76
10 -4 11 -0.12 0.84
-12 -3 11 -0.61 0.45
-11 -3 11 2.07 0.53
-10 -3 11 0.06 0.51
9 3 -11 1.03 0.97
-9 -3 11 1.11 0.53
8 3 -11 8.8 1.42
-8 -3 11 10.69 1.03
7 3 -11 0.75 0.82
-7 -3 11 0.64 0.42
6 3 -11 6.08 1.05
-6 -3 11 6.47 0.66
5 3 -11 0.63 0.65
-5 -3 11 0.32 0.39
-5 -3 11 1.16 0.6
4 3 -11 24.82 2.15
4 3 -11 22.76 2.45
-4 -3 11 22.48 3.16
-4 -3 11 24.26 2.04
3 3 -11 8.71 1.01
3 3 -11 6.79 1.01
-3 -3 11 6.16 1.2
-3 -3 11 9.28 0.9
2 3 -11 16.21 1.54
2 3 -11 13.13 1.63
-2 -3 11 16.95 2.24
-2 -3 11 15.73 1.41
-2 -3 11 13.52 1.55
1 3 -11 -0.09 0.51
-1 -3 11 -0.01 0.66
-1 -3 11 0.15 0.56
-1 -3 11 0.66 0.54
0 -3 11 0.1 0.63
0 -3 11 0.4 0.52
0 -3 11 -0.67 0.53
1 -3 11 0.47 0.62
1 -3 11 0.77 0.63
1 -3 11 0.5 0.52
2 -3 11 20.76 1.84
2 -3 11 20.5 2.12
2 -3 11 19.98 2.77
3 -3 11 11.23 1.19
3 -3 11 7.54 1.3
3 -3 11 9.66 1.04
4 -3 11 21.59 3.02
4 -3 11 24.23 2.36
4 -3 11 23.43 2
5 -3 11 7.33 0.84
5 -3 11 6.48 1.02
6 -3 11 1.72 0.55
6 -3 11 3.09 0.75
6 -3 11 1.82 0.31
7 -3 11 3.94 0.42
7 -3 11 5.08 0.92
8 -3 11 0.32 0.8
9 -3 11 2 0.9
10 -3 11 2.78 0.88
-12 -2 11 0.76 0.49
-11 -2 11 0.69 0.52
-10 -2 11 0.56 0.53
9 2 -11 1.06 0.96
-9 -2 11 0.84 0.53
8 2 -11 0.73 0.96
-8 -2 11 1.19 0.5
7 2 -11 -0.81 0.8
-7 -2 11 1.07 0.44
6 2 -11 9.82 1.27
-6 -2 11 8.1 0.81
5 2 -11 21.5 2.37
-5 -2 11 21.08 1.72
-5 -2 11 23.88 2.96
4 2 -11 3.79 0.77
4 2 -11 4.2 0.82
-4 -2 11 2.95 0.86
-4 -2 11 4.88 0.66
3 2 -11 0.11 0.64
3 2 -11 0.01 0.59
-3 -2 11 1.06 0.53
-3 -2 11 0.79 0.67
2 2 -11 2.25 0.74
2 2 -11 2.45 0.65
-2 -2 11 2.61 0.77
-2 -2 11 2.85 0.63
1 2 -11 19.8 2.26
-1 -2 11 22.42 2.19
-1 -2 11 22.06 1.95
-1 -2 11 25.64 3
0 2 -11 -0.42 0.49
0 -2 11 0.37 0.56
0 -2 11 0.95 0.66
0 -2 11 0.68 0.54
1 -2 11 23.27 2.39
1 -2 11 24.86 3.17
2 -2 11 1.38 0.6
2 -2 11 1.27 0.67
3 -2 11 0.77 0.67
3 -2 11 0.95 0.57
4 -2 11 5.2 0.95
4 -2 11 5.77 0.88
5 -2 11 18.48 1.42
5 -2 11 23.01 2.12
6 -2 11 10.03 0.85
6 -2 11 11.97 1.38
7 -2 11 3.61 0.4
7 -2 11 3.88 0.93
7 -2 11 3.51 0.69
8 -2 11 5.99 1.11
9 -2 11 0.83 0.89
10 -2 11 2.25 0.85
-12 -1 11 0.31 0.49
-11 -1 11 0.72 0.52
-10 -1 11 0.16 0.53
9 1 -11 1.33 1.08
-9 -1 11 3.87 0.62
8 1 -11 5.89 1.19
-8 -1 11 5.31 0.68
7 1 -11 0.35 0.84
-7 -1 11 0.45 0.45
6 1 -11 5.35 1.04
-6 -1 11 5.89 0.62
5 1 -11 9.76 1.22
-5 -1 11 8.87 0.79
-5 -1 11 7.81 1.32
4 1 -11 12.88 1.27
4 1 -11 11.36 1.51
-4 -1 11 10.78 1.86
3 1 -11 1.5 0.68
3 1 -11 3.56 0.7
-3 -1 11 2.04 0.73
-3 -1 11 2.81 0.55
2 1 -11 5.43 0.87
2 1 -11 7.93 0.88
-2 -1 11 6.54 0.75
-2 -1 11 4.96 1.01
1 1 -11 0.02 0.6
-1 -1 11 0.44 0.54
-1 -1 11 1.62 0.69
0 1 -11 1.52 0.66
0 -1 11 3 0.63
0 -1 11 4.1 0.81
-1 1 -11 0.46 0.58
1 -1 11 1.13 0.67
1 -1 11 -0.35 0.54
2 -1 11 13.87 2
2 -1 11 11.96 1.49
3 -1 11 6.81 0.97
3 -1 11 6.15 1.07
4 -1 11 3.84 0.76
5 -1 11 7.22 0.69
5 -1 11 9.58 1.15
6 -1 11 3.15 0.82
6 -1 11 1.61 0.32
7 -1 11 2.38 0.36
7 -1 11 4.58 0.89
8 -1 11 2.19 0.93
9 -1 11 0.65 0.84
10 -1 11 1.51 0.84
-12 0 11 -0.3 0.48
-11 0 11 0.76 0.53
-10 0 11 1.65 0.56
9 0 -11 1.54 1.03
-9 0 11 1.24 0.55
8 0 -11 10.55 1.56
-8 0 11 11.67 1.11
7 0 -11 3.36 1.02
-7 0 11 4.87 0.58
6 0 -11 13.16 1.59
-6 0 11 12.78 1.14
5 0 -11 10.22 1.23
-5 0 11 7.38 1.28
-5 0 11 9.18 0.87
4 0 -11 3.16 0.68
4 0 -11 3.45 0.82
-4 0 11 3.12 0.76
3 0 -11 2.95 0.66
3 0 -11 1.99 0.73
-3 0 11 2.41 0.55
-3 0 11 2.57 0.71
2 0 -11 20.09 2
2 0 -11 20.98 2.33
-2 0 11 23.81 1.91
-2 0 11 23.08 2.97
1 0 -11 52.26 5.21
-1 0 11 56.09 6.69
0 0 -11 48.77 4.81
0 0 11 51.84 6.19
0 0 11 49.32 4.67
-1 0 -11 25.2 2.82
1 0 11 28.43 2.72
1 0 11 30.15 3.65
-2 0 -11 3.22 0.73
3 0 11 4.5 0.83
3 0 11 4.27 0.88
4 0 11 6.42 1
4 0 11 4.42 0.91
5 0 11 1.03 0.6
5 0 11 1.74 0.75
5 0 11 0.11 0.26
6 0 11 1.67 0.72
6 0 11 0.31 0.27
7 0 11 2.34 0.83
8 0 11 0.57 0.82
9 0 11 1.64 0.94
10 0 11 2.27 1
-11 1 11 -0.35 0.5
-10 1 11 1.4 0.54
9 -1 -11 1.02 0.95
-9 1 11 1.58 0.55
8 -1 -11 0.6 0.9
-8 1 11 -0.09 0.47
7 -1 -11 5.51 1.12
-7 1 11 5.64 0.64
6 -1 -11 3.5 0.96
-6 1 11 3.66 0.52
5 -1 -11 13.37 1.58
-5 1 11 11.8 1.92
-5 1 11 12.91 1.11
4 -1 -11 0.31 0.72
-4 1 11 0.38 0.56
3 -1 -11 1.26 0.69
3 -1 -11 0.85 0.56
-3 1 11 1.04 0.45
-3 1 11 0.32 0.61
2 -1 -11 10.29 1.37
2 -1 -11 10.66 1.19
-2 1 11 14.12 1.88
1 -1 -11 74.32 7.15
-1 1 11 75.75 9.17
0 -1 -11 5.12 0.93
0 1 11 5.57 1.01
-1 -1 -11 41.54 4.35
1 1 11 46.97 5.61
1 1 11 45.64 4.21
-2 -1 -11 9.47 1.31
2 1 11 10.52 1.34
2 1 11 12.6 1.87
3 1 11 6.33 1.12
3 1 11 7.8 1.04
4 1 11 0.64 0.72
4 1 11 0.68 0.61
4 1 11 1.36 0.3
5 1 11 0.34 0.56
5 1 11 2.11 0.79
5 1 11 -0.04 0.25
6 1 11 0.34 0.28
6 1 11 1.33 0.87
7 1 11 1.25 0.86
8 1 11 0.42 0.87
9 1 11 2.57 0.95
10 1 11 0.75 0.86
-11 2 11 1.54 0.54
-10 2 11 0.06 0.52
9 -2 -11 0.72 0.93
-9 2 11 1.21 0.55
8 -2 -11 5.01 1.18
-8 2 11 6.31 0.71
7 -2 -11 0.03 0.88
-7 2 11 1.59 0.47
6 -2 -11 -0.19 0.79
-6 2 11 -0.21 0.4
5 -2 -11 0.67 0.74
-5 2 11 0.09 0.37
-5 2 11 -0.31 0.55
4 -2 -11 10.03 1.19
-4 2 11 7.22 1.23
3 -2 -11 30.6 3.04
-3 2 11 28.98 3.82
2 -2 -11 10.98 1.16
2 -2 -11 12.39 1.42
-2 2 11 10.35 1.84
1 -2 -11 2.03 0.78
-1 2 11 2.29 0.79
0 -2 -11 0.45 0.73
0 2 11 1.35 0.81
-1 -2 -11 5.97 0.97
1 2 11 5.37 1.14
1 2 11 5.96 0.86
-2 -2 -11 1.78 0.73
2 2 11 2.76 0.84
2 2 11 2.06 0.68
-3 -2 -11 2.42 0.78
3 2 11 3.55 0.75
4 2 11 4.21 0.46
4 2 11 6.42 1.03
4 2 11 4.27 0.91
5 2 11 -1.1 0.59
5 2 11 0.22 0.79
5 2 11 -0.17 0.27
6 2 11 -0.9 0.85
7 2 11 1.13 1.03
8 2 11 1.09 1
9 2 11 -0.02 0.88
10 2 11 0.75 0.93
-11 -2 -11 2.75 0.65
11 -3 -11 2.28 0.74
-11 3 11 1.08 0.55
-10 3 11 0.9 0.54
-9 3 11 0.1 0.53
8 -3 -11 0.01 0.89
-8 3 11 0.54 0.52
7 -3 -11 1.95 0.97
-7 3 11 2.13 0.53
6 -3 -11 8.2 1.26
5 -3 -11 2.74 0.84
-5 3 11 0.82 0.62
4 -3 -11 2.51 0.78
-4 3 11 0.97 0.62
3 -3 -11 2.11 0.78
-3 3 11 2.05 0.75
2 -3 -11 2.38 0.81
-2 3 11 1.83 0.76
1 -3 -11 17.11 2.1
-1 3 11 19.88 2.73
0 -3 -11 0.1 0.74
0 3 11 1.41 0.86
-1 -3 -11 7.51 1.18
1 3 11 8.78 1.45
-2 -3 -11 -0.08 0.75
2 3 11 -1.22 0.81
-3 -3 -11 0.17 0.76
3 3 11 -0.42 0.78
3 3 11 0.29 0.27
4 3 11 -0.56 0.71
4 3 11 0.32 0.28
5 3 11 -0.44 0.28
5 3 11 -0.72 0.69
7 3 11 0.62 0.92
8 3 11 1.74 1.06
9 3 11 1.84 1
-10 -3 -11 0.03 0.53
-11 -3 -11 3.37 0.66
11 -4 -11 2.15 0.71
10 -4 -11 9.27 1.35
8 -4 -11 2.35 0.96
7 -4 -11 1.89 0.97
6 -4 -11 0.18 0.84
5 -4 -11 2.72 0.9
4 -4 -11 -0.05 0.77
-4 4 11 -0.5 0.57
3 -4 -11 1.47 0.75
-3 4 11 0.1 0.64
2 -4 -11 1.37 0.78
-2 4 11 1.2 0.77
1 -4 -11 13.27 1.72
-1 4 11 14.08 2.31
0 -4 -11 25.19 2.74
0 4 11 27.14 3.64
-1 -4 -11 1.08 0.81
1 4 11 2 0.98
-2 -4 -11 -0.61 0.8
2 4 11 -0.03 0.25
2 4 11 -0.31 0.89
-3 -4 -11 1.44 0.88
3 4 11 1.36 0.89
3 4 11 0.71 0.28
4 4 11 -0.02 0.27
4 4 11 -0.68 0.8
5 4 11 1.9 0.88
7 4 11 0.52 1.03
8 4 11 0.3 0.96
-9 -4 -11 1.49 0.58
9 4 11 -0.25 1.04
-10 -4 -11 0.01 0.54
10 -5 -11 0.02 0.73
9 -5 -11 7.47 1.22
8 -5 -11 1.25 0.85
7 -5 -11 1 0.9
6 -5 -11 0.7 0.84
5 -5 -11 0.87 0.82
4 -5 -11 1.18 0.79
-4 5 11 -0.65 0.65
3 -5 -11 8.22 1.01
3 -5 -11 5.61 1.04
-3 5 11 4.18 1.06
2 -5 -11 0.63 0.79
-2 5 11 -0.46 0.75
1 -5 -11 1.08 0.79
-1 5 11 -0.37 0.84
0 -5 -11 3.11 0.88
0 5 11 2.15 1.06
-1 -5 -11 11.09 1.41
1 5 11 8.48 1.69
-2 -5 -11 0.11 0.86
2 5 11 0.24 0.26
2 5 11 0.15 1.03
-3 -5 -11 4.38 1.02
3 5 11 1.92 1.06
4 5 11 -0.87 0.9
5 5 11 -0.84 0.84
8 5 11 6.05 1.28
9 5 11 -0.68 0.92
10 -6 -11 1.45 0.71
9 -6 -11 7.93 1.23
8 -6 -11 1.1 0.81
7 -6 -11 -0.4 0.78
7 -6 -11 0.62 0.81
6 -6 -11 4.12 0.98
6 -6 -11 4.41 0.94
5 -6 -11 0.95 0.81
5 -6 -11 0.87 0.69
4 -6 -11 1.07 0.66
4 -6 -11 0.22 0.77
-4 6 11 0.08 0.7
3 -6 -11 17.22 1.89
3 -6 -11 15.7 1.82
-3 6 11 12.9 2.36
2 -6 -11 0.5 0.8
-2 6 11 -0.4 0.78
1 -6 -11 1.83 0.85
-1 6 11 1.7 1.01
0 -6 -11 5.85 1.06
0 6 11 4.86 1.3
-1 -6 -11 -0.27 0.86
1 6 11 -0.15 1.06
-2 -6 -11 3.74 1.03
2 6 11 1.9 1.16
3 6 11 6.32 1.4
-4 -6 -11 7.52 1.08
4 6 11 7.96 1.55
-5 -6 -11 7.83 1.13
5 6 11 5.9 1.39
-6 -6 -11 6.42 1.06
8 6 11 1.43 1.01
9 -7 -11 0.67 0.72
8 -7 -11 0.95 0.78
7 -7 -11 -0.25 0.73
6 -7 -11 0.11 0.76
6 -7 -11 0.48 0.73
5 -7 -11 0.2 0.68
5 -7 -11 2.24 0.81
4 -7 -11 4.51 0.89
4 -7 -11 5.67 1.03
3 -7 -11 4.39 0.93
3 -7 -11 4.11 0.73
-3 7 11 1.96 0.93
2 -7 -11 2.45 0.9
-2 7 11 2.23 0.95
1 -7 -11 1.84 0.86
-1 7 11 2.07 1.05
0 -7 -11 1.28 0.85
0 7 11 0.7 1.05
-1 -7 -11 0.2 0.86
1 7 11 -0.38 1.08
-2 -7 -11 1.82 0.98
2 7 11 0.56 1.11
-3 -7 -11 3.27 1.06
-3 -7 -11 3.58 0.64
-3 -7 -11 2.54 0.71
3 7 11 1.17 1.12
-4 -7 -11 3.74 0.74
4 7 11 1.12 1.16
-5 -7 -11 14.26 1.8
5 7 11 14.17 2.17
-6 -7 -11 -0.09 0.64
-7 -7 -11 0.07 0.64
9 -8 -11 0.67 0.66
8 -8 -11 3.83 0.88
7 -8 -11 -0.06 0.71
6 -8 -11 -0.25 0.68
5 -8 -11 0.23 0.73
5 -8 -11 0.11 0.65
4 -8 -11 14.67 1.76
4 -8 -11 12.97 1.69
3 -8 -11 0.43 0.56
3 -8 -11 1.1 0.79
-3 8 11 -1.67 0.77
2 -8 -11 3.99 0.92
-2 8 11 0.66 0.91
1 -8 -11 3.08 0.9
-1 8 11 0.92 0.99
0 -8 -11 1.31 0.86
0 8 11 0.52 1.09
-1 -8 -11 7.37 1.25
1 8 11 6.32 1.51
-2 -8 -11 19.01 2.25
-2 -8 -11 16.21 2.08
2 8 11 19.46 3.06
-3 -8 -11 8.48 1.23
-3 -8 -11 8.71 1.46
-3 -8 -11 11.27 1.04
3 8 11 5.9 1.63
-4 -8 -11 7.99 1.05
4 8 11 3.55 1.39
-5 -8 -11 10.45 1.44
5 8 11 9.23 1.71
-6 -8 -11 2.95 0.78
-7 -8 -11 1.82 0.66
-8 -8 -11 0.99 0.64
8 -9 -11 0.13 0.65
7 -9 -11 0.54 0.69
6 -9 -11 -0.42 0.68
5 -9 -11 0.77 0.67
4 -9 -11 15.64 1.93
4 -9 -11 16.89 1.97
3 -9 -11 49.76 4.62
3 -9 -11 47.04 4.89
-3 9 11 42.8 5.92
2 -9 -11 0.62 0.83
-2 9 11 -1.29 0.81
1 -9 -11 5.36 1.03
-1 9 11 2.19 1.09
0 -9 -11 1.06 0.68
0 -9 -11 0.59 0.86
0 9 11 -0.12 1.13
-1 -9 -11 4.61 0.83
-1 -9 -11 3.46 1.07
1 9 11 2.35 1.21
-2 -9 -11 2.58 0.78
-2 -9 -11 1.26 1.03
-2 -9 -11 2.27 0.67
2 9 11 -0.01 1.09
-3 -9 -11 1.9 1.04
3 9 11 -0.77 1.08
-4 -9 -11 2.91 0.73
4 9 11 -1.19 1
-5 -9 -11 7.29 1.05
5 9 11 3.94 1.33
-6 -9 -11 1.77 0.71
-7 -9 -11 0.43 0.62
-8 -9 -11 1.73 0.61
7 -10 -11 -0.61 0.57
6 -10 -11 -0.12 0.58
5 -10 -11 0.95 0.6
4 -10 -11 0.65 0.54
3 -10 -11 5.65 0.74
-3 10 11 1.4 1.02
-2 10 11 1.16 0.96
1 -10 -11 15.27 1.67
1 -10 -11 12.82 1.52
-1 10 11 9.96 2
0 -10 -11 2.19 0.72
0 -10 -11 2.13 0.92
0 10 11 1.01 1.09
-1 -10 -11 6.39 0.88
-1 -10 -11 3.19 1.06
1 10 11 3.43 1.41
-2 -10 -11 3.14 0.8
-2 -10 -11 3.07 0.73
2 10 11 0.25 1.19
-3 -10 -11 7.31 1.12
-3 -10 -11 7.98 0.98
-4 -10 -11 17.72 1.67
-4 -10 -11 16.32 2.02
-5 -10 -11 0.62 0.66
-6 -10 -11 1.02 0.72
-7 -10 -11 1.24 0.66
6 -11 -11 0.39 0.5
5 -11 -11 0.24 0.48
4 -11 -11 2.11 0.56
3 -11 -11 2.16 0.54
1 -11 -11 0.92 0.39
0 -11 -11 6.73 0.83
0 11 11 3.15 1.47
-1 -11 -11 1.2 0.68
-1 -11 -11 0.6 0.53
-2 -11 -11 2.79 0.7
-2 -11 -11 5.57 0.81
-3 -11 -11 11.21 1.13
-3 -11 -11 8.83 1.36
-4 -11 -11 1.14 0.59
-4 -11 -11 2 0.68
-5 -11 -11 0.17 0.63
-6 -11 -11 -0.14 0.6
5 -12 -11 2.29 0.53
4 -12 -11 1.21 0.46
0 -12 -11 9.05 1.03
-1 -12 -11 0.74 0.44
-1 -12 -11 0.87 0.65
-2 -12 -11 5.5 0.79
-2 -12 -11 4.6 0.74
-3 -12 -11 0.76 0.52
-3 -12 -11 1.39 0.59
-4 -12 -11 1.22 0.57
-4 -12 -11 3.03 0.61
1 -13 -11 6.29 0.81
0 -13 -11 -0.63 0.56
-1 -13 -11 2.88 0.64
-2 -13 -11 0.64 0.59
-3 -19 12 5.5 0.65
-3 -19 12 7.75 1.03
-2 -19 12 5.82 0.97
-1 -19 12 4.25 0.85
0 -19 12 1.08 0.67
1 -19 12 3.76 0.84
2 -19 12 9.9 1.39
3 -19 12 10.38 1.54
-5 -18 12 1.12 0.64
-5 -18 12 1.84 0.43
-5 -18 12 0.78 0.48
-4 -18 12 6 0.66
-4 -18 12 5.93 0.99
-3 -18 12 0.81 0.41
-3 -18 12 1.49 0.68
-2 -18 12 5.2 0.89
-2 -18 12 4.41 0.58
-1 -18 12 15.43 1.96
0 -18 12 2.95 0.8
1 -18 12 19.89 2.43
2 -18 12 8.94 1.28
3 -18 12 1.57 0.72
4 -18 12 5.33 0.96
5 -18 12 1.15 0.53
5 -18 12 -0.13 0.71
-6 -17 12 0.56 0.42
-6 -17 12 -0.3 0.51
-5 -17 12 1.06 0.68
-5 -17 12 1.2 0.55
-5 -17 12 1.09 0.46
-4 -17 12 0.86 0.43
-4 -17 12 1.28 0.72
-4 -17 12 0.69 0.53
-3 -17 12 15.53 1.32
-3 -17 12 15.88 2.03
-3 -17 12 15.5 1.53
-2 -17 12 13.99 1.46
-2 -17 12 14.17 1.24
-2 -17 12 15.68 1.91
-1 -17 12 4.47 0.88
0 -17 12 0.08 0.65
1 -17 12 7.1 1.14
2 -17 12 16.77 2.13
3 -17 12 14.36 1.58
3 -17 12 14.35 1.88
4 -17 12 1.26 0.7
4 -17 12 1.18 0.56
5 -17 12 2.25 0.73
5 -17 12 2.52 0.6
6 -17 12 0.08 0.53
-7 -16 12 0.63 0.54
-7 -16 12 0.08 0.44
-6 -16 12 0.34 0.57
-6 -16 12 1.08 0.48
-5 -16 12 0.47 0.6
-5 -16 12 0.05 0.69
-5 -16 12 0.63 0.47
-4 -16 12 2.97 0.87
-4 -16 12 3.27 0.69
-4 -16 12 4.76 0.6
-3 -16 12 1.58 0.58
-3 -16 12 1.67 0.8
-3 -16 12 1.84 0.49
-2 -16 12 13.28 1.15
-2 -16 12 12.92 1.34
-2 -16 12 11.81 1.5
-2 -16 12 13.13 1.76
-1 -16 12 53.07 4.52
-1 -16 12 49.73 5.13
-1 -16 12 53.1 5.96
-1 -16 12 55.85 3.93
-1 -16 12 55.5 4.45
0 -16 12 8.9 1.16
0 -16 12 8.78 1.05
0 -16 12 5.85 0.9
1 -16 12 36.02 3.41
1 -16 12 43.35 4.56
2 -16 12 12.49 1.35
2 -16 12 10.8 1.29
2 -16 12 10.86 1.45
2 -16 12 12.64 1.67
3 -16 12 1.59 0.57
3 -16 12 2.12 0.73
3 -16 12 1.45 0.79
4 -16 12 2.63 0.63
4 -16 12 1.89 0.77
4 -16 12 2.41 0.75
5 -16 12 0.83 0.78
5 -16 12 0.98 0.69
5 -16 12 2.02 0.59
6 -16 12 2.47 0.62
7 -16 12 -0.25 0.55
-8 -15 12 0.1 0.54
-8 -15 12 -0.04 0.42
-7 -15 12 1.1 0.6
-7 -15 12 1.11 0.48
-6 -15 12 2.57 0.52
-6 -15 12 2.41 0.66
-5 -15 12 1.83 0.79
-5 -15 12 3.97 0.57
-5 -15 12 1.73 0.65
-4 -15 12 7.97 0.97
-4 -15 12 8.73 1.21
-4 -15 12 7.15 1.13
-4 -15 12 7.09 0.79
-3 -15 12 0.03 0.45
-3 -15 12 -0.5 0.59
-3 -15 12 0.6 0.73
-3 -15 12 1.12 0.76
-3 -15 12 -0.19 0.57
-2 -15 12 17.48 2.15
-2 -15 12 15.89 1.74
-2 -15 12 16.89 1.64
-1 -15 12 -0.79 0.4
-1 -15 12 0.21 0.49
-1 -15 12 0.41 0.69
-1 -15 12 -0.36 0.65
0 -15 12 -0.03 0.64
0 -15 12 0.24 0.77
0 -15 12 0.1 0.55
0 -15 12 -0.33 0.65
1 -15 12 0.23 0.64
1 -15 12 0.38 0.66
1 -15 12 1.11 0.54
1 -15 12 -0.17 0.74
2 -15 12 25.2 2.48
2 -15 12 24.94 2.75
2 -15 12 23.5 2.1
2 -15 12 20.21 2.35
3 -15 12 -0.13 0.71
3 -15 12 0.1 0.51
3 -15 12 0.51 0.65
4 -15 12 6.85 1.08
4 -15 12 4.35 0.93
4 -15 12 7.61 1.07
4 -15 12 8.37 1
5 -15 12 3.24 0.81
5 -15 12 2.98 0.81
5 -15 12 3.39 0.68
6 -15 12 8.01 1.07
7 -15 12 1.16 0.57
8 -15 12 1.25 0.57
-9 -14 12 -0.21 0.56
-9 -14 12 0.03 0.42
-8 -14 12 -0.15 0.59
-8 -14 12 0.54 0.45
-7 -14 12 2.29 0.53
-7 -14 12 0.6 0.64
-6 -14 12 2.6 0.69
-6 -14 12 2.32 0.55
-5 -14 12 0.78 0.72
-5 -14 12 0.45 0.6
-5 -14 12 1.35 0.49
-4 -14 12 1.96 0.63
-4 -14 12 1.39 0.76
-4 -14 12 1.53 0.47
-4 -14 12 0.54 0.65
-4 -14 12 0.91 0.75
-3 -14 12 19.83 1.92
-3 -14 12 20.4 1.62
-3 -14 12 19.05 2.47
-3 -14 12 21.5 1.95
-2 -14 12 1.97 0.45
-2 -14 12 2.48 0.76
-2 -14 12 1.86 0.69
-2 -14 12 2.73 0.63
-1 -14 12 7.25 0.86
-1 -14 12 7.6 1.16
-1 -14 12 6.96 0.71
-1 -14 12 6.98 1.1
-1 -14 12 7.19 0.99
-1 -14 12 6.59 0.92
0 -14 12 2.83 0.85
0 -14 12 2.87 0.56
0 -14 12 2.95 0.72
0 -14 12 2.95 0.65
0 -14 12 2.69 0.73
1 -14 12 5.72 0.96
1 -14 12 5.69 0.87
1 -14 12 6.75 1.05
2 -14 12 4.55 0.99
2 -14 12 3.5 0.82
2 -14 12 5.38 0.8
2 -14 12 5.05 0.74
3 -14 12 18.29 2.23
3 -14 12 19.51 1.73
3 -14 12 19.67 1.93
3 -14 12 15.3 2.07
3 -14 12 19.39 2.04
4 -14 12 0.57 0.56
4 -14 12 2.04 0.78
4 -14 12 0.58 0.69
4 -14 12 1.25 0.52
5 -14 12 2.03 0.86
5 -14 12 2.13 0.78
5 -14 12 2.8 0.62
6 -14 12 7.32 0.96
6 -14 12 7.33 1.14
7 -14 12 1.14 0.57
8 -14 12 0.91 0.56
9 -14 12 0.68 0.52
-9 -13 12 0.22 0.61
-9 -13 12 -0.01 0.42
-8 -13 12 0.35 0.46
-8 -13 12 -0.23 0.64
-7 -13 12 1.5 0.68
-7 -13 12 -0.31 0.49
-6 -13 12 10.14 1.41
-6 -13 12 10.36 1.07
-6 -13 12 10.9 1.18
-5 -13 12 8.79 1.17
-5 -13 12 8.95 1.08
-5 -13 12 9.86 0.98
-5 -13 12 9.45 1.28
-4 -13 12 1.69 0.62
-4 -13 12 1.63 0.49
-4 -13 12 2.62 0.76
-4 -13 12 1.88 0.74
-3 -13 12 24.57 2.91
-3 -13 12 24.04 2.23
-3 -13 12 26 2.28
-2 -13 12 3.42 0.66
-2 -13 12 3.14 0.78
-2 -13 12 2.64 0.48
-2 -13 12 2.88 0.76
-1 -13 12 0.54 0.41
-1 -13 12 1.31 0.57
-1 -13 12 1.46 0.66
-1 -13 12 1.54 0.53
-1 -13 12 1.89 0.74
-1 -13 12 0.86 0.66
0 -13 12 3.79 0.51
0 -13 12 3.67 0.76
0 -13 12 4.14 0.89
0 -13 12 4.39 0.6
0 -13 12 4.11 0.78
0 -13 12 3.56 0.67
1 -13 12 2.56 0.78
1 -13 12 1.88 0.58
1 -13 12 4.03 0.71
1 -13 12 2.09 0.66
2 -13 12 2.4 0.67
2 -13 12 2.69 0.68
2 -13 12 3.49 0.63
2 -13 12 2.8 0.81
3 -13 12 32.68 3.13
3 -13 12 29.54 3.09
3 -13 12 29.34 3.3
3 -13 12 31.71 3.54
3 -13 12 33.01 2.68
4 -13 12 0.8 0.81
4 -13 12 1.5 0.71
4 -13 12 2.84 0.57
5 -13 12 5.82 0.74
5 -13 12 3.46 0.87
5 -13 12 3.19 0.94
6 -13 12 6.86 0.9
6 -13 12 6.04 1.11
7 -13 12 1.53 0.58
7 -13 12 2.8 0.82
8 -13 12 2.39 0.63
9 -13 12 0.36 0.5
-10 -12 12 0.91 0.39
-10 -12 12 0.66 0.59
-9 -12 12 0.9 0.43
-9 -12 12 0.63 0.64
-8 -12 12 5.03 0.83
-8 -12 12 5.26 0.66
-7 -12 12 5.29 0.66
-7 -12 12 3.2 0.82
-7 -12 12 5.85 1.04
-6 -12 12 1.98 0.52
-6 -12 12 1.19 0.72
-6 -12 12 2.88 0.72
-5 -12 12 4.36 0.8
-5 -12 12 5.11 0.62
-5 -12 12 4.81 0.82
-4 -12 12 25.07 1.82
-4 -12 12 21.86 2.14
-4 -12 12 21.23 2.73
-4 -12 12 25.26 2.16
-3 -12 12 1.28 0.44
-3 -12 12 1.21 0.67
-3 -12 12 1.4 0.65
-3 -12 12 2.14 0.59
-2 -12 12 6.18 0.75
-2 -12 12 5.13 0.83
-2 -12 12 4.95 0.96
-2 -12 12 6.22 0.9
-2 -12 12 4.34 0.58
-1 -12 12 8.49 1.05
-1 -12 12 6.75 0.9
-1 -12 12 8.4 0.76
-1 -12 12 8.79 1.23
-1 -12 12 8.29 1.14
0 -12 12 -0.61 0.5
0 -12 12 0.01 0.54
0 -12 12 0.08 0.45
0 -12 12 0.03 0.61
0 -12 12 -0.39 0.34
0 -12 12 -0.31 0.69
1 -12 12 4.5 0.66
1 -12 12 3.58 0.82
1 -12 12 3.4 0.68
1 -12 12 3.44 0.72
2 -12 12 8.84 1.18
2 -12 12 11.02 1.11
2 -12 12 10.22 1.27
2 -12 12 8.81 1.31
3 -12 12 1.15 0.56
3 -12 12 0.83 0.71
3 -12 12 1.98 0.64
3 -12 12 1.42 0.56
4 -12 12 14.44 1.91
4 -12 12 16.93 2.12
4 -12 12 18.92 1.83
5 -12 12 4.53 0.9
5 -12 12 4.53 0.72
5 -12 12 4.65 0.93
6 -12 12 8.34 1.16
6 -12 12 5.7 0.86
7 -12 12 0.98 0.75
7 -12 12 1.07 0.54
8 -12 12 9.01 1.17
9 -12 12 5.01 0.77
10 -12 12 1.43 0.52
-10 -11 12 0.27 0.64
-10 -11 12 0.56 0.39
-9 -11 12 2.08 0.51
-9 -11 12 2.69 0.51
-9 -11 12 3.01 0.76
-8 -11 12 0.54 0.47
-8 -11 12 -0.86 0.68
-8 -11 12 -0.24 0.48
-7 -11 12 7.88 1
-7 -11 12 6.59 1.16
-7 -11 12 7.49 0.79
-6 -11 12 3.03 0.89
-6 -11 12 6.31 0.83
-6 -11 12 6.22 0.87
-5 -11 12 7.64 0.78
-5 -11 12 8.71 1
-5 -11 12 7.62 1.03
-4 -11 12 -0.25 0.61
-4 -11 12 0.42 0.41
-4 -11 12 0.82 0.62
-4 -11 12 0.26 0.58
-3 -11 12 4.52 0.84
-3 -11 12 3.86 0.56
-3 -11 12 5.49 0.72
-3 -11 12 4.09 0.79
-2 -11 12 1.1 0.4
-2 -11 12 0.77 0.65
-2 -11 12 1.55 0.61
-2 -11 12 1.88 0.56
-2 -11 12 1.04 0.71
-1 -11 12 1.21 0.37
-1 -11 12 1.58 0.6
-1 -11 12 1.91 0.54
-1 -11 12 0.93 0.69
-1 -11 12 1.43 0.61
0 11 -12 1.32 0.63
0 -11 12 0.91 0.49
0 -11 12 0.79 0.55
0 -11 12 0.67 0.35
0 -11 12 0.53 0.59
0 -11 12 0.04 0.69
-1 11 -12 2.53 0.62
1 -11 12 2.21 0.73
1 -11 12 2.57 0.62
1 -11 12 2.2 0.55
1 -11 12 2.18 0.51
1 -11 12 2.39 0.59
2 -11 12 0.41 0.53
2 -11 12 0.69 0.56
2 -11 12 0.27 0.68
2 -11 12 0.22 0.5
3 -11 12 5.89 1.01
3 -11 12 6.2 0.81
3 -11 12 5.46 0.87
3 -11 12 5.14 0.8
4 -11 12 0.44 0.7
4 -11 12 1.26 0.49
4 -11 12 0.34 0.64
4 -11 12 -0.13 0.51
5 -11 12 3.22 0.83
5 -11 12 4.63 0.65
5 -11 12 4.05 0.88
6 -11 12 15.89 1.74
6 -11 12 16.53 1.9
7 -11 12 8.2 1.11
7 -11 12 8.04 1.24
8 -11 12 0.98 0.77
8 -11 12 0.2 0.53
9 -11 12 0.95 0.55
10 -11 12 1.28 0.54
-11 -10 12 -0.49 0.58
-11 -10 12 0.07 0.4
-10 -10 12 0.27 0.44
-10 -10 12 1.67 0.65
-10 -10 12 0.76 0.4
-9 -10 12 4.8 0.65
-9 -10 12 6.1 0.88
-9 -10 12 5.6 0.65
-8 -10 12 0.96 0.48
-8 -10 12 0.64 0.48
-8 -10 12 0.88 0.69
-7 -10 12 8.8 0.86
-7 -10 12 8.9 1.29
-6 -10 12 3.84 0.56
-6 -10 12 2.77 0.53
-6 -10 12 4.35 0.76
-6 -10 12 3.16 0.74
-5 -10 12 9.12 1.04
-5 -10 12 7.51 0.8
-5 -10 12 9.06 0.9
-5 -10 12 9.12 1.08
-4 -10 12 1.22 0.6
-4 -10 12 1.03 0.43
-4 -10 12 2.37 0.67
-4 -10 12 0.79 0.4
-3 -10 12 6.1 0.68
-3 -10 12 7.66 1.11
-3 -10 12 6.48 0.92
-3 -10 12 8.37 1.06
-3 -10 12 6.45 0.85
-2 -10 12 1.33 0.76
-2 -10 12 0.91 0.59
-2 -10 12 0.69 0.37
-2 -10 12 0.59 0.58
1 10 -12 1.19 0.66
-1 -10 12 1.47 0.73
-1 -10 12 0.62 0.63
-1 -10 12 0.76 0.36
-1 -10 12 0.22 0.56
0 10 -12 6.97 0.91
0 -10 12 6.61 1
0 -10 12 7.28 0.91
0 -10 12 6.35 0.95
-1 10 -12 -0.34 0.54
1 -10 12 1.3 0.58
1 -10 12 -0.16 0.63
1 -10 12 0.98 0.52
-2 10 -12 1.26 0.58
2 -10 12 2.21 0.58
2 -10 12 0.44 0.67
2 -10 12 0.75 0.55
3 -10 12 11.33 1.14
3 -10 12 9.2 1.4
3 -10 12 11.16 1.33
3 -10 12 10.08 1.23
4 -10 12 0.28 0.64
4 -10 12 0.84 0.53
4 -10 12 0.73 0.64
4 -10 12 1.07 0.49
5 -10 12 4.27 0.59
5 -10 12 2.75 0.77
5 -10 12 1.59 0.74
6 -10 12 7.39 1.17
6 -10 12 7.14 0.92
7 -10 12 28.14 2.82
7 -10 12 27.3 2.9
8 -10 12 5.22 1.04
8 -10 12 4.1 0.75
9 -10 12 3.18 0.66
10 -10 12 6.5 0.88
-11 -9 12 9.7 1.02
-11 -9 12 7.8 0.82
-10 -9 12 0.51 0.46
-10 -9 12 0.59 0.64
-9 -9 12 1.01 0.66
-9 -9 12 0.62 0.49
-9 -9 12 0.11 0.44
-8 -9 12 -0.07 0.67
-8 -9 12 1.3 0.47
-8 -9 12 1.48 0.5
-7 -9 12 22.83 2.69
-7 -9 12 26.1 2.34
-7 -9 12 27.2 1.99
-7 -9 12 24.88 2
-6 -9 12 12.65 1.39
-6 -9 12 13.18 1.2
-6 -9 12 13.42 1.17
-6 -9 12 13.86 1.45
-5 -9 12 6.28 0.72
-5 -9 12 8.12 0.97
-5 -9 12 7.36 0.73
-5 -9 12 7.66 0.93
-4 -9 12 13.17 1.26
-4 -9 12 9.07 0.96
-4 -9 12 12.47 1.01
-4 -9 12 12.14 1.29
-3 -9 12 7.38 0.69
-3 -9 12 6.93 0.94
-3 -9 12 7.08 1.09
2 9 -12 3.58 0.78
-2 -9 12 1.04 0.74
-2 -9 12 2.55 0.44
-2 -9 12 1.51 0.64
1 9 -12 5.62 0.87
-1 -9 12 3.75 0.89
-1 -9 12 4.15 0.75
0 9 -12 -0.13 0.62
0 -9 12 -0.22 0.54
0 -9 12 0.04 0.69
-1 9 -12 1.6 0.63
1 -9 12 1.66 0.62
1 -9 12 1.55 0.71
1 -9 12 1.38 0.54
-2 9 -12 0.4 0.56
2 -9 12 1.27 0.57
2 -9 12 0.46 0.64
2 -9 12 -0.3 0.5
3 -9 12 1.18 0.63
3 -9 12 1.32 0.53
3 -9 12 2.79 0.63
4 -9 12 14.15 1.39
4 -9 12 12.26 1.25
4 -9 12 9.82 1.63
4 -9 12 12.22 1.5
5 -9 12 3.3 0.56
5 -9 12 2.13 0.75
5 -9 12 2.09 0.74
6 -9 12 4.59 0.85
8 -9 12 -0.65 0.51
8 -9 12 0.23 0.75
9 -9 12 4.92 0.83
9 -9 12 5.87 1.04
10 -9 12 0.26 0.51
11 -9 12 0.37 0.47
-11 -8 12 0.94 0.47
-11 -8 12 -0.1 0.58
-10 -8 12 1.92 0.68
-10 -8 12 2.36 0.54
-9 -8 12 6.3 0.89
-9 -8 12 6.03 0.66
-9 -8 12 5.62 0.72
-8 -8 12 7.18 0.92
-8 -8 12 5.84 0.73
-8 -8 12 7.21 0.71
-7 -8 12 3.54 0.53
-7 -8 12 3.98 0.73
-7 -8 12 3.2 0.56
-6 -8 12 2.07 0.43
-6 -8 12 1.56 0.47
-6 -8 12 1.76 0.64
-6 -8 12 0.9 0.56
-5 -8 12 0.75 0.4
-5 -8 12 0.06 0.4
-5 -8 12 -0.59 0.53
-5 -8 12 -0.43 0.6
-4 -8 12 2.27 0.45
-4 -8 12 2.33 0.43
-4 -8 12 2.16 0.62
-3 -8 12 1.16 0.64
-3 -8 12 2.04 0.72
-3 -8 12 2.06 0.41
2 8 -12 28.43 2.47
-2 -8 12 27.6 2.4
-2 -8 12 27.11 2.77
1 8 -12 0.36 0.65
-1 -8 12 0.68 0.68
-1 -8 12 0.32 0.52
0 8 -12 38.62 3.24
0 -8 12 38.52 3.18
0 -8 12 37.23 3.69
-1 8 -12 0.39 0.61
1 -8 12 -0.06 0.64
1 -8 12 0.12 0.53
2 -8 12 30.34 3
2 -8 12 30.26 2.57
3 -8 12 0.69 0.61
3 -8 12 0.65 0.5
3 -8 12 0.56 0.62
4 -8 12 1.54 0.53
4 -8 12 1.37 0.68
4 -8 12 2.15 0.69
5 -8 12 0.68 0.47
5 -8 12 1.3 0.51
5 -8 12 0.6 0.64
5 -8 12 0.69 0.65
6 -8 12 0.59 0.46
6 -8 12 0.16 0.71
7 -8 12 5.27 0.96
7 -8 12 4.64 0.74
8 -8 12 1.25 0.81
8 -8 12 3.21 0.64
9 -8 12 9.96 1.28
9 -8 12 9.72 1.42
10 -8 12 0.54 0.53
11 -8 12 0.54 0.47
-11 -7 12 0.46 0.47
-11 -7 12 -0.17 0.56
-10 -7 12 0.58 0.5
-10 -7 12 0.27 0.64
-9 -7 12 2.18 0.68
-9 -7 12 2.43 0.56
-8 -7 12 2.49 0.52
-8 -7 12 4.26 0.59
-8 -7 12 3.09 0.68
-7 -7 12 5.23 0.59
-7 -7 12 4.4 0.74
-7 -7 12 4.36 0.61
-6 -7 12 0.32 0.43
-6 -7 12 0.5 0.57
-6 -7 12 0.54 0.38
-5 -7 12 -0.21 0.55
-5 -7 12 0.54 0.42
-5 -7 12 0.81 0.39
-5 -7 12 1.09 0.53
-4 -7 12 1.4 0.41
-4 -7 12 0.28 0.57
-4 -7 12 0.56 0.4
3 7 -12 16.16 1.58
-3 -7 12 13.33 1.66
-3 -7 12 15.15 1.47
2 7 -12 1.88 0.67
-2 -7 12 2.14 0.7
-2 -7 12 0.86 0.6
1 7 -12 3.25 0.8
-1 -7 12 3.47 0.84
-1 -7 12 3.52 0.72
0 7 -12 1.78 0.71
0 -7 12 1.5 0.56
0 -7 12 1.28 0.7
1 -7 12 0.72 0.68
1 -7 12 1.49 0.55
2 -7 12 1.64 0.7
2 -7 12 1.57 0.55
3 -7 12 4.86 0.68
3 -7 12 4.45 0.81
4 -7 12 0.19 0.62
4 -7 12 0.6 0.67
4 -7 12 0.21 0.46
5 -7 12 0.3 0.59
5 -7 12 0.11 0.64
5 -7 12 0.17 0.44
5 -7 12 0.18 0.46
6 -7 12 0.57 0.46
6 -7 12 -0.32 0.68
7 -7 12 7.94 1.09
7 -7 12 8.7 1.18
8 -7 12 2.95 0.63
8 -7 12 2.14 0.79
9 -7 12 4.72 0.78
9 -7 12 3.75 0.94
10 -7 12 -0.18 0.49
10 -7 12 0.67 0.77
11 -7 12 0.77 0.5
-11 -6 12 -0.09 0.54
-11 -6 12 -0.69 0.47
-10 -6 12 0.09 0.61
-10 -6 12 1.01 0.52
-9 -6 12 0.06 0.61
-9 -6 12 -0.17 0.51
-8 -6 12 4.77 0.76
-8 -6 12 4.57 0.58
-8 -6 12 4.64 0.64
-7 -6 12 1.51 0.49
-7 -6 12 2.14 0.6
-7 -6 12 2.06 0.43
-6 -6 12 1.65 0.42
-6 -6 12 2.64 0.58
-6 -6 12 1.64 0.47
-5 -6 12 0.09 0.49
-5 -6 12 -0.41 0.37
-5 -6 12 -0.09 0.4
-4 -6 12 9.78 0.92
-4 -6 12 10.52 1.1
3 6 -12 30.42 2.4
-3 -6 12 26.8 2.3
-3 -6 12 23.41 2.62
2 6 -12 1.6 0.7
-2 -6 12 3.02 0.72
-2 -6 12 2.1 0.63
1 6 -12 7.24 0.94
-1 -6 12 6.09 0.81
-1 -6 12 6.51 0.93
-1 -6 12 5.12 1.15
0 6 -12 6.33 0.91
0 -6 12 5.21 0.76
0 -6 12 4.05 1.06
0 -6 12 5.24 0.9
1 -6 12 10.18 1.17
1 -6 12 9.81 1.01
1 -6 12 7.53 1.41
2 -6 12 5.12 0.88
2 -6 12 5.21 0.75
2 -6 12 4.77 1.02
3 -6 12 18.35 1.74
3 -6 12 20.61 2.05
4 -6 12 1.97 0.53
4 -6 12 3.03 0.72
5 -6 12 0.64 0.47
5 -6 12 0.47 0.27
5 -6 12 1.33 0.69
6 -6 12 6.02 0.51
6 -6 12 5.28 0.78
6 -6 12 7.51 1.06
7 -6 12 0.26 0.46
7 -6 12 1.26 0.77
8 -6 12 1.55 0.58
8 -6 12 0.89 0.81
9 -6 12 0.64 0.82
9 -6 12 -0.16 0.54
10 -6 12 1.14 0.53
10 -6 12 1.18 0.81
11 -6 12 0.69 0.49
-12 -5 12 1.54 0.48
-12 -5 12 0.89 0.49
-11 -5 12 2.09 0.53
-11 -5 12 0.67 0.54
-10 -5 12 2.82 0.69
-10 -5 12 3.57 0.61
-9 -5 12 -0.09 0.53
-9 -5 12 1.33 0.62
-8 -5 12 1.99 0.6
-8 -5 12 1.58 0.52
-7 -5 12 3.3 0.53
-7 -5 12 2.41 0.62
-7 -5 12 2.68 0.46
-6 -5 12 0.25 0.41
-6 -5 12 -0.1 0.35
-6 -5 12 -0.17 0.49
-5 -5 12 2.73 0.44
-5 -5 12 2.32 0.46
-5 -5 12 2.4 0.57
-4 -5 12 19.23 1.75
3 5 -12 3.33 0.74
-3 -5 12 3.58 0.69
-3 -5 12 3.3 0.72
-3 -5 12 2.88 0.89
2 5 -12 57.63 4.64
-2 -5 12 51.93 5.23
-2 -5 12 57.09 6.94
-2 -5 12 57.08 4.55
1 5 -12 51.92 4.05
-1 -5 12 46.34 4.56
-1 -5 12 48.37 6.03
-1 -5 12 46.57 3.95
0 -5 12 2.21 0.69
0 -5 12 1.27 0.79
0 -5 12 2.96 0.63
1 -5 12 39.26 3.6
1 -5 12 38.25 4.74
1 -5 12 34.34 3.1
2 -5 12 54.08 4.72
2 -5 12 60.37 7.18
2 -5 12 59.85 5.48
3 -5 12 1.37 0.55
3 -5 12 1.46 0.68
3 -5 12 1.25 0.61
4 -5 12 4.08 0.75
4 -5 12 3.65 0.57
4 -5 12 1.94 0.36
5 -5 12 2.09 0.33
5 -5 12 3.05 0.77
5 -5 12 1.31 0.53
6 -5 12 2.28 0.81
6 -5 12 1.45 0.47
6 -5 12 1.26 0.52
6 -5 12 1.73 0.28
7 -5 12 1.32 0.54
7 -5 12 0.75 0.79
7 -5 12 0.47 0.25
8 -5 12 1.47 0.56
8 -5 12 1.07 0.27
8 -5 12 1.15 0.8
9 -5 12 1.11 0.79
9 -5 12 0.72 0.55
10 -5 12 1.01 0.78
10 -5 12 -0.17 0.49
-12 -4 12 6.51 0.73
-11 -4 12 2.3 0.57
-10 -4 12 1.77 0.63
-10 -4 12 2.96 0.6
-9 -4 12 0.42 0.6
-9 -4 12 0.34 0.52
-8 -4 12 5.59 0.84
-8 -4 12 8.5 0.79
-7 -4 12 -0.15 0.52
-7 -4 12 -0.01 0.45
6 4 -12 0.23 0.68
-6 -4 12 0.15 0.37
-6 -4 12 1.08 0.4
5 4 -12 7.56 1.12
-5 -4 12 8.79 0.77
-5 -4 12 7.68 0.73
4 4 -12 0.16 0.67
4 4 -12 -0.31 0.58
-4 -4 12 0.76 0.55
-4 -4 12 0.09 0.68
3 4 -12 0.49 0.65
-3 -4 12 0.27 0.73
-3 -4 12 0.44 0.57
2 4 -12 7.58 0.92
-2 -4 12 3.91 0.99
-2 -4 12 4.73 0.77
-2 -4 12 4.92 0.76
1 4 -12 3.55 0.83
-1 -4 12 3.06 0.84
-1 -4 12 3.25 0.68
-1 -4 12 3.77 0.73
0 -4 12 13.65 1.51
0 -4 12 12.48 2.04
0 -4 12 13.21 1.34
1 -4 12 0.85 0.62
1 -4 12 0.76 0.66
1 -4 12 0.32 0.55
2 -4 12 1.8 0.57
2 -4 12 1.93 0.66
2 -4 12 0.58 0.63
3 -4 12 4.1 0.7
3 -4 12 3.18 0.81
3 -4 12 5.05 0.84
4 -4 12 4.02 0.83
4 -4 12 2.99 0.63
4 -4 12 3.15 0.77
5 -4 12 0 0.63
5 -4 12 0.05 0.26
5 -4 12 0.72 0.5
6 -4 12 0.94 0.44
6 -4 12 0.99 0.27
6 -4 12 2.26 0.8
6 -4 12 0.63 0.52
7 -4 12 1 0.77
7 -4 12 1.21 0.28
7 -4 12 0.98 0.56
8 -4 12 0.19 0.77
8 -4 12 0.06 0.25
9 -4 12 5.38 1.1
10 -4 12 0.51 0.82
-12 -3 12 1.19 0.5
-11 -3 12 2.39 0.56
-10 -3 12 0.31 0.54
-9 -3 12 8.97 0.92
8 3 -12 3.78 1.03
-8 -3 12 3.71 0.62
7 3 -12 7.95 1.26
-7 -3 12 7.63 0.78
6 3 -12 2.16 0.81
-6 -3 12 1.62 0.39
-6 -3 12 0.6 0.43
5 3 -12 -0.08 0.68
-5 -3 12 0.13 0.6
-5 -3 12 -0.4 0.38
4 3 -12 2.66 0.71
4 3 -12 1.53 0.66
-4 -3 12 1.12 0.73
-4 -3 12 2.1 0.57
3 3 -12 17.59 2.02
3 3 -12 19.67 1.8
-3 -3 12 19.14 2.66
-3 -3 12 18.72 1.71
2 3 -12 -0.4 0.68
2 3 -12 -0.49 0.53
-2 -3 12 0.86 0.7
-2 -3 12 -0.27 0.54
-1 -3 12 7.2 0.92
-1 -3 12 7.02 0.89
-1 -3 12 6.01 1.15
0 -3 12 6.66 1.23
0 -3 12 7.95 0.91
0 -3 12 8.71 1
1 -3 12 3.67 0.7
1 -3 12 2.69 0.61
1 -3 12 0.88 0.71
2 -3 12 1.13 0.68
2 -3 12 1.05 0.64
2 -3 12 1.82 0.58
3 -3 12 5.17 0.84
3 -3 12 5.13 0.73
4 -3 12 5.62 1.1
4 -3 12 8.12 1.06
4 -3 12 6.5 0.63
4 -3 12 8.74 0.91
5 -3 12 0.68 0.69
5 -3 12 0.73 0.55
5 -3 12 0.65 0.26
6 -3 12 21.83 2.22
6 -3 12 20.82 1.87
6 -3 12 19.67 1.46
7 -3 12 0.83 0.28
7 -3 12 0.92 0.74
8 -3 12 3.11 0.94
9 -3 12 0.43 0.8
10 -3 12 0.19 0.79
-12 -2 12 1.93 0.52
-11 -2 12 3.59 0.62
-10 -2 12 -0.03 0.54
9 2 -12 -0.77 0.91
-9 -2 12 -0.12 0.53
8 2 -12 4.77 1.12
-8 -2 12 3.85 0.63
7 2 -12 0.57 0.87
-7 -2 12 0.99 0.47
6 2 -12 9.16 1.33
-6 -2 12 9.82 0.97
5 2 -12 5.61 1
-5 -2 12 5.95 1.07
-5 -2 12 6.29 0.65
4 2 -12 2.84 0.7
4 2 -12 1.42 0.74
-4 -2 12 2.26 0.62
-4 -2 12 2.41 0.75
3 2 -12 4.61 0.87
3 2 -12 7.17 0.87
-3 -2 12 7.13 0.78
-3 -2 12 4.98 1.05
2 2 -12 4.06 0.78
2 2 -12 3.03 0.71
-2 -2 12 4.1 0.69
-2 -2 12 3.82 0.86
1 2 -12 0.3 0.56
-1 -2 12 2.08 0.58
-1 -2 12 1.63 0.71
0 2 -12 145.9 16.02
0 -2 12 176.36 15.72
0 -2 12 177.15 13.54
0 -2 12 183.19 20.6
1 -2 12 5.79 0.75
1 -2 12 5.52 0.82
1 -2 12 4.01 0.96
2 -2 12 8.84 1.1
2 -2 12 7.71 1.3
3 -2 12 11.24 1.46
3 -2 12 13.01 1.91
4 -2 12 2.97 0.71
4 -2 12 2.73 0.75
4 -2 12 2.23 0.33
5 -2 12 1.36 0.75
5 -2 12 -0.37 0.25
6 -2 12 1.14 0.76
6 -2 12 0.84 0.29
7 -2 12 2.58 0.37
7 -2 12 3.45 0.91
7 -2 12 3.49 0.7
8 -2 12 1.33 0.95
9 -2 12 0.28 0.89
10 -2 12 1.32 0.83
-11 -1 12 -0.1 0.53
-10 -1 12 1.97 0.58
9 1 -12 0.57 1.02
-9 -1 12 -0.42 0.53
8 1 -12 0.23 0.94
-8 -1 12 0.23 0.49
7 1 -12 2.47 0.94
-7 -1 12 1.4 0.49
6 1 -12 0.51 0.83
-6 -1 12 0.45 0.42
5 1 -12 1.81 0.8
-5 -1 12 2 0.73
-5 -1 12 2.3 0.45
4 1 -12 0.32 0.69
4 1 -12 0.3 0.6
-4 -1 12 0.25 0.62
3 1 -12 3.22 0.71
3 1 -12 2.12 0.71
-3 -1 12 2.92 0.77
-3 -1 12 3.13 0.57
2 1 -12 4.57 0.78
2 1 -12 3.52 0.78
-2 -1 12 4.96 0.7
-2 -1 12 3.54 0.88
1 1 -12 68.39 7.12
-1 -1 12 78.81 6.02
-1 -1 12 77.88 9.17
0 1 -12 0.88 0.62
0 -1 12 2.56 0.61
0 -1 12 1.62 0.71
1 -1 12 49.13 4.69
1 -1 12 50.68 6.19
2 -1 12 2.01 0.73
2 -1 12 2.27 0.69
3 -1 12 10.57 1.39
3 -1 12 11.9 1.85
4 -1 12 0.47 0.6
4 -1 12 0.78 0.28
4 -1 12 2.13 0.71
5 -1 12 10.43 0.88
5 -1 12 12.02 1.43
6 -1 12 4.85 0.48
6 -1 12 4.63 0.91
7 -1 12 0.28 0.29
7 -1 12 0.34 0.81
8 -1 12 -0.31 0.93
9 -1 12 0.3 0.89
10 -1 12 2.49 0.93
-11 0 12 -0.09 0.52
-10 0 12 0.37 0.54
9 0 -12 0.12 1
-9 0 12 0.79 0.55
8 0 -12 2.87 1.06
-8 0 12 3.44 0.6
7 0 -12 0.62 0.92
-7 0 12 1.18 0.47
6 0 -12 2.85 0.89
-6 0 12 2.49 0.5
5 0 -12 2.4 0.84
-5 0 12 1.95 0.71
-5 0 12 3.11 0.48
4 0 -12 1.1 0.6
4 0 -12 0.83 0.73
-4 0 12 1.05 0.43
-4 0 12 1.32 0.66
3 0 -12 1.67 0.69
3 0 -12 0.84 0.6
-3 0 12 1.1 0.52
-3 0 12 1.21 0.66
-2 0 12 24.05 2.12
-2 0 12 25.64 3.28
1 0 -12 1.14 0.64
-1 0 12 1.57 0.71
0 0 -12 16.57 1.97
0 0 12 20.53 2.61
-1 0 -12 6.73 0.95
1 0 12 5.84 0.89
1 0 12 6.28 1.13
2 0 12 44.41 4.48
2 0 12 50.73 5.91
3 0 12 7.6 1.02
3 0 12 6.18 1.13
4 0 12 0.49 0.73
4 0 12 0.34 0.61
4 0 12 -0.14 0.25
5 0 12 5.04 0.9
5 0 12 4.06 0.45
6 0 12 1.38 0.32
6 0 12 1.72 0.77
7 0 12 10.75 1.33
7 0 12 8.11 0.79
8 0 12 0.88 0.82
9 0 12 1.84 0.98
10 0 12 -0.01 0.93
-11 1 12 0.58 0.52
-10 1 12 -0.05 0.54
-9 1 12 0.3 0.54
8 -1 -12 0.27 0.92
-8 1 12 0.78 0.53
7 -1 -12 6.5 1.32
-7 1 12 10.67 0.89
6 -1 -12 1.21 0.91
-6 1 12 1.28 0.46
5 -1 -12 6.08 1.04
-5 1 12 5.66 0.62
-5 1 12 4.47 0.97
4 -1 -12 1.74 0.74
-4 1 12 0.66 0.39
-4 1 12 1.04 0.6
3 -1 -12 -0.13 0.68
3 -1 -12 0.01 0.56
-3 1 12 0.28 0.49
-3 1 12 0.61 0.62
2 -1 -12 13.76 1.64
2 -1 -12 13.28 1.34
-2 1 12 13.49 1.28
-2 1 12 12.92 2.05
1 -1 -12 17.19 1.99
-1 1 12 19.15 2.58
0 -1 -12 4.38 0.89
0 1 12 5.45 1.03
-1 -1 -12 10.13 1.39
1 1 12 12.16 1.35
1 1 12 12.76 1.96
-2 -1 -12 1.14 0.68
2 1 12 1.46 0.69
2 1 12 1.55 0.63
3 1 12 2.31 0.34
3 1 12 2.18 0.75
3 1 12 2.64 0.76
4 1 12 16.99 1.2
4 1 12 16.42 1.88
4 1 12 14.74 2.34
5 1 12 0.74 0.83
5 1 12 -0.29 0.28
5 1 12 -0.32 0.6
6 1 12 7.41 1.09
6 1 12 4.32 0.5
7 1 12 0.46 0.82
8 1 12 1.04 0.97
9 1 12 0.06 0.93
-11 2 12 0.22 0.5
-10 2 12 0.35 0.55
-9 2 12 -0.17 0.55
8 -2 -12 3.57 1.1
-8 2 12 5.26 0.69
7 -2 -12 1.61 0.97
-7 2 12 2.73 0.54
6 -2 -12 3.35 0.96
-6 2 12 3.68 0.55
5 -2 -12 0.3 0.78
-5 2 12 0.07 0.4
-5 2 12 -0.08 0.6
4 -2 -12 1.29 0.79
-4 2 12 0.9 0.38
-4 2 12 0.82 0.62
3 -2 -12 -1.22 0.72
-3 2 12 0.46 0.6
2 -2 -12 1.92 0.79
2 -2 -12 1.99 0.6
-2 2 12 2.08 0.74
1 -2 -12 0.87 0.74
-1 2 12 1.17 0.71
0 -2 -12 30.84 3.14
0 2 12 30.75 4.02
-1 -2 -12 -0.14 0.69
1 2 12 -0.18 0.75
-2 -2 -12 0.74 0.69
2 2 12 1.54 0.67
2 2 12 0.76 0.75
3 2 12 0.85 0.72
3 2 12 0.77 0.72
3 2 12 0.84 0.29
4 2 12 1.27 0.31
4 2 12 -0.05 0.66
4 2 12 1.28 0.83
5 2 12 -1.03 0.64
5 2 12 0.6 0.82
5 2 12 0.29 0.3
6 2 12 13.88 1.75
7 2 12 0.73 0.91
8 2 12 0.52 0.9
9 2 12 0.23 0.87
-11 -2 -12 0.48 0.53
11 -3 -12 1.23 0.68
8 -3 -12 -0.17 0.91
7 -3 -12 -0.79 0.91
6 -3 -12 10.58 1.47
5 -3 -12 0.93 0.81
-5 3 12 -0.17 0.61
4 -3 -12 0.91 0.77
-4 3 12 -0.45 0.58
3 -3 -12 -0.37 0.73
-3 3 12 0.38 0.62
2 -3 -12 0.62 0.75
-2 3 12 0.67 0.67
1 -3 -12 1.96 0.82
-1 3 12 2.36 0.82
0 -3 -12 1.76 0.79
0 3 12 1.1 0.81
-1 -3 -12 11.78 1.48
1 3 12 11.7 1.8
-2 -3 -12 -0.06 0.71
2 3 12 0.3 0.27
2 3 12 -0.24 0.63
2 3 12 0.22 0.8
3 3 12 0.45 0.77
3 3 12 0.54 0.28
3 3 12 0.87 0.75
4 3 12 -1.36 0.68
4 3 12 0.22 0.29
4 3 12 0.06 0.8
5 3 12 1.12 0.34
5 3 12 2 0.91
5 3 12 -0.5 0.72
6 3 12 -0.08 0.94
7 3 12 2.96 1.04
8 3 12 3.82 1.11
9 3 12 1.52 0.93
-10 -3 -12 0.15 0.51
10 -4 -12 2.14 0.79
7 -4 -12 3.59 1.04
6 -4 -12 7.89 1.27
5 -4 -12 -0.76 0.79
4 -4 -12 3.43 0.86
-4 4 12 1.3 0.69
3 -4 -12 -0.05 0.76
-3 4 12 0.01 0.67
2 -4 -12 9.64 1.25
-2 4 12 7.81 1.38
1 -4 -12 12.87 1.74
-1 4 12 13.89 2.24
0 -4 -12 16.38 2.01
0 4 12 17.85 2.69
-1 -4 -12 6.91 1.11
1 4 12 6.33 1.29
-2 -4 -12 -0.48 0.78
2 4 12 0.77 0.88
2 4 12 0.27 0.27
-3 -4 -12 -0.22 0.81
3 4 12 0.07 0.28
3 4 12 -1.4 0.8
3 4 12 0.08 0.75
4 4 12 0.29 0.83
4 4 12 0.3 0.29
4 4 12 -0.9 0.79
5 4 12 -0.28 0.78
5 4 12 3.94 0.99
6 4 12 -0.37 0.85
7 4 12 3.72 1.05
8 4 12 5.39 1.17
9 4 12 1.82 1.13
10 -5 -12 -0.36 0.67
9 -5 -12 -0.77 0.73
8 -5 -12 0.3 0.79
7 -5 -12 2.41 0.95
7 -5 -12 1.68 0.86
6 -5 -12 17.26 2.11
5 -5 -12 2.05 0.89
4 -5 -12 2.36 0.68
4 -5 -12 2.27 0.88
-4 5 12 0.75 0.7
3 -5 -12 9.83 1.27
3 -5 -12 10.46 1.21
-3 5 12 6.03 1.34
2 -5 -12 5.34 0.99
-2 5 12 4.23 1.02
1 -5 -12 0.6 0.82
-1 5 12 0.24 0.84
0 -5 -12 1.44 0.83
0 5 12 0.38 0.93
-1 -5 -12 0.19 0.81
1 5 12 0.14 0.96
-2 -5 -12 3.7 0.98
2 5 12 2.43 0.35
2 5 12 2.11 1.06
-3 -5 -12 4.98 1.06
3 5 12 2.58 1.04
4 5 12 2.24 1
5 5 12 -1.52 0.83
6 5 12 2.22 1.02
7 5 12 14.4 1.83
8 5 12 4.1 1.08
9 -6 -12 2.42 0.8
8 -6 -12 6.51 1.13
7 -6 -12 12.61 1.73
6 -6 -12 4.37 0.98
6 -6 -12 2.82 0.89
5 -6 -12 9.37 1.35
5 -6 -12 10.22 1.37
4 -6 -12 4.71 1
4 -6 -12 5.02 0.84
-4 6 12 2.39 0.88
3 -6 -12 7.54 1.25
3 -6 -12 8.46 1.18
2 -6 -12 9.21 1.24
-2 6 12 7.62 1.41
1 -6 -12 1.25 0.84
-1 6 12 -0.12 0.88
0 -6 -12 5.27 0.99
0 6 12 3.2 1.14
-1 -6 -12 0.53 0.86
1 6 12 0.31 1.03
-2 -6 -12 2.06 0.95
2 6 12 1.12 1.09
-3 -6 -12 1.94 0.96
3 6 12 -1.1 0.93
-4 -6 -12 2.56 0.79
4 6 12 1.22 1.01
-5 -6 -12 7.87 1.16
-6 -6 -12 3.02 0.81
6 6 12 1.19 0.91
7 6 12 1.01 0.87
9 -7 -12 0.83 0.69
8 -7 -12 0.31 0.69
7 -7 -12 4.92 0.98
6 -7 -12 5.84 1.04
5 -7 -12 0.22 0.67
5 -7 -12 1.22 0.79
4 -7 -12 0.43 0.83
4 -7 -12 1.09 0.63
-4 7 12 -1.41 0.65
3 -7 -12 6.56 1.08
3 -7 -12 6.16 0.87
-3 7 12 3.03 1.05
2 -7 -12 0.33 0.8
-2 7 12 -0.77 0.77
1 -7 -12 1.92 0.86
-1 7 12 -0.3 0.91
0 -7 -12 -0.29 0.79
0 7 12 0.44 0.97
-1 -7 -12 2.92 0.95
1 7 12 0.59 1.12
-2 -7 -12 -0.09 0.95
2 7 12 -1.16 1.03
-3 -7 -12 8.56 1.15
-3 -7 -12 8.3 1.38
3 7 12 5.92 1.51
-4 -7 -12 1.62 0.72
4 7 12 -2.44 0.91
-5 -7 -12 12.79 1.61
5 7 12 10.84 1.88
-6 -7 -12 1.76 0.7
6 7 12 -0.67 0.85
-7 -7 -12 0.26 0.68
7 7 12 -0.44 0.85
-8 -7 -12 0.78 0.69
8 -8 -12 1.31 0.71
7 -8 -12 0.55 0.69
6 -8 -12 9.33 1.3
5 -8 -12 3.92 0.85
4 -8 -12 3.46 0.88
4 -8 -12 1.78 0.7
3 -8 -12 5.01 0.87
3 -8 -12 5.73 1.08
2 -8 -12 9.71 1.29
-2 8 12 7.02 1.44
1 -8 -12 -0.18 0.84
-1 8 12 -1.7 0.92
0 -8 -12 2.36 0.91
0 8 12 1.39 1.01
-1 -8 -12 -0.72 0.87
1 8 12 -1.16 1.04
-2 -8 -12 2.22 0.76
-2 -8 -12 3 0.65
-2 -8 -12 -0.11 0.96
2 8 12 -1.58 1.02
-3 -8 -12 2.23 1.06
-3 -8 -12 3.05 0.75
-3 -8 -12 2.33 0.75
3 8 12 -0.05 1.09
4 8 12 7.96 1.55
-5 -8 -12 2.83 0.75
5 8 12 -2.4 0.89
-6 -8 -12 3.62 0.8
6 8 12 2.75 0.91
-7 -8 -12 -0.52 0.65
-8 -8 -12 0.92 0.64
7 -9 -12 0.72 0.66
6 -9 -12 1.99 0.72
5 -9 -12 5.01 0.91
4 -9 -12 1.99 0.67
3 -9 -12 7.22 0.96
3 -9 -12 6.01 0.95
2 -9 -12 0.35 0.82
-2 9 12 -1.89 0.8
1 -9 -12 6.75 0.9
1 -9 -12 3.88 1.04
-1 9 12 3.03 1.19
0 -9 -12 2.25 0.94
0 -9 -12 3.19 0.77
0 9 12 1 1.02
-1 -9 -12 4.66 0.86
-1 -9 -12 3.28 1.01
1 9 12 0.88 1.22
-2 -9 -12 3.36 0.72
-2 -9 -12 1.83 0.81
-2 -9 -12 1.28 1
2 9 12 0.85 1.16
-3 -9 -12 5.8 1.01
-3 -9 -12 5.6 0.87
-4 -9 -12 0.58 0.72
-5 -9 -12 0.49 0.68
-6 -9 -12 1.86 0.7
-7 -9 -12 -0.35 0.58
6 -10 -12 0.14 0.53
5 -10 -12 7.98 1.13
4 -10 -12 3.62 0.68
2 -10 -12 1.36 0.42
-2 10 12 -1.88 0.78
1 -10 -12 1.43 0.56
-1 10 12 -1.03 0.84
0 -10 -12 4.79 0.76
0 10 12 1.07 1.08
-1 -10 -12 7.75 0.9
-1 -10 -12 6.03 0.94
1 10 12 3.09 1.32
-2 -10 -12 6.69 0.92
-2 -10 -12 5.68 0.99
-3 -10 -12 2.81 0.79
-3 -10 -12 2.78 0.74
-4 -10 -12 0.69 0.64
-5 -10 -12 2.69 0.75
-6 -10 -12 0.37 0.63
5 -11 -12 0.91 0.45
4 -11 -12 1.19 0.46
0 -11 -12 6.22 0.83
-1 -11 -12 0.94 0.66
-1 -11 -12 0.48 0.51
-2 -11 -12 1.09 0.57
-2 -11 -12 1.48 0.64
-3 -11 -12 1.85 0.66
-3 -11 -12 0.19 0.57
-4 -11 -12 3.53 0.76
-5 -11 -12 0.62 0.6
0 -12 -12 0.84 0.6
-1 -12 -12 2.79 0.7
-2 -12 -12 0.49 0.44
-2 -12 -12 0.81 0.59
-3 -12 -12 0.03 0.51
-3 -12 -12 0.07 0.46
-3 -19 13 5.19 0.96
-3 -19 13 6.63 0.63
-2 -19 13 1.15 0.69
-1 -19 13 22.32 2.66
0 -19 13 2.9 0.79
1 -19 13 28.35 3.32
2 -19 13 2.06 0.78
3 -19 13 4.83 0.94
-5 -18 13 0.35 0.45
-5 -18 13 -1.27 0.63
-5 -18 13 0.12 0.4
-4 -18 13 1.8 0.72
-4 -18 13 2.56 0.54
-4 -18 13 1.41 0.45
-3 -18 13 0.05 0.41
-3 -18 13 1.31 0.69
-3 -18 13 0.31 0.5
-2 -18 13 7.48 0.77
-2 -18 13 8.72 1.2
-1 -18 13 2.72 0.78
0 -18 13 0.5 0.71
1 -18 13 1.25 0.74
2 -18 13 9.4 1.36
3 -18 13 0.04 0.71
4 -18 13 2.69 0.77
4 -18 13 1.66 0.56
5 -18 13 -0.07 0.5
5 -18 13 -1.27 0.67
-6 -17 13 0.66 0.43
-6 -17 13 0.43 0.51
-5 -17 13 1.15 0.72
-5 -17 13 1.42 0.47
-5 -17 13 2.12 0.57
-4 -17 13 3.91 0.7
-4 -17 13 5.55 0.97
-4 -17 13 5.95 0.63
-3 -17 13 1.53 0.75
-3 -17 13 0.87 0.55
-3 -17 13 1.87 0.48
-2 -17 13 3.71 0.84
-2 -17 13 2.56 0.51
-2 -17 13 3.97 0.65
-1 -17 13 4.17 0.89
0 -17 13 1.73 0.75
1 -17 13 5.77 1.05
2 -17 13 4.3 0.76
2 -17 13 6.3 1.02
3 -17 13 0.33 0.73
3 -17 13 0.81 0.55
3 -17 13 -0.63 0.73
4 -17 13 4.46 0.71
4 -17 13 2.78 0.84
5 -17 13 2.95 0.8
5 -17 13 3 0.63
6 -17 13 0.46 0.55
-7 -16 13 -0.19 0.53
-7 -16 13 0.33 0.44
-6 -16 13 0.62 0.58
-6 -16 13 0.24 0.45
-5 -16 13 3.29 0.83
-5 -16 13 3.23 0.68
-4 -16 13 -0.83 0.71
-4 -16 13 0.73 0.62
-4 -16 13 0.19 0.46
-3 -16 13 3.15 0.64
-3 -16 13 2.71 0.52
-3 -16 13 3.34 0.86
-2 -16 13 2.49 0.5
-2 -16 13 2.42 0.82
-2 -16 13 2.91 0.61
-2 -16 13 1.12 0.79
-1 -16 13 3.62 0.64
-1 -16 13 3.5 0.87
-1 -16 13 3.22 0.53
-1 -16 13 4.1 0.86
-1 -16 13 3.61 0.68
0 -16 13 96.62 8.03
0 -16 13 102.09 10.97
1 -16 13 2.64 0.89
1 -16 13 3.5 0.78
1 -16 13 3.77 0.86
1 -16 13 3.38 0.67
2 -16 13 2.34 0.8
2 -16 13 3.11 0.71
2 -16 13 2 0.8
2 -16 13 1.9 0.59
3 -16 13 4.48 0.96
3 -16 13 4.19 0.92
3 -16 13 4.38 0.73
4 -16 13 1.33 0.57
4 -16 13 0.28 0.76
4 -16 13 -0.78 0.7
5 -16 13 9.71 1.29
5 -16 13 11.31 1.45
6 -16 13 0.25 0.55
7 -16 13 0.1 0.54
-8 -15 13 0.41 0.42
-8 -15 13 0.33 0.56
-7 -15 13 -0.09 0.46
-7 -15 13 0.03 0.59
-6 -15 13 9.97 1.16
-6 -15 13 11.8 1.07
-5 -15 13 -0.68 0.6
-5 -15 13 0.51 0.49
-4 -15 13 1.36 0.53
-4 -15 13 1.87 0.81
-4 -15 13 2.29 0.7
-3 -15 13 1.84 0.64
-3 -15 13 2.44 0.81
-3 -15 13 1.01 0.65
-3 -15 13 1.42 0.81
-3 -15 13 1.53 0.49
-2 -15 13 26.83 3.14
-2 -15 13 27.6 2.43
-2 -15 13 24.59 2.05
-2 -15 13 27.72 2.39
-1 -15 13 0.33 0.58
-1 -15 13 1.18 0.54
-1 -15 13 -0.08 0.42
-1 -15 13 0.28 0.72
-1 -15 13 -0.1 0.66
0 -15 13 -0.03 0.66
0 -15 13 0.2 0.79
0 -15 13 0.56 0.59
0 -15 13 1.03 0.74
1 -15 13 0.73 0.57
1 -15 13 1.84 0.71
1 -15 13 0.99 0.82
1 -15 13 0.64 0.73
2 -15 13 24.92 2.71
2 -15 13 27.54 3.05
2 -15 13 24.9 2.32
2 -15 13 25.57 2.63
3 -15 13 0.62 0.53
3 -15 13 0.95 0.82
3 -15 13 0.57 0.72
4 -15 13 0.42 0.53
4 -15 13 0.71 0.72
4 -15 13 0.71 0.73
5 -15 13 0.67 0.72
5 -15 13 1.43 0.6
5 -15 13 0.74 0.71
6 -15 13 9.54 1.21
7 -15 13 0.24 0.53
8 -15 13 0.83 0.54
-8 -14 13 1.06 0.59
-8 -14 13 0.58 0.46
-7 -14 13 0.21 0.47
-6 -14 13 4.45 0.76
-6 -14 13 3.39 0.59
-5 -14 13 2.2 0.8
-5 -14 13 2.37 0.72
-5 -14 13 2.84 0.57
-4 -14 13 -0.05 0.64
-4 -14 13 0.55 0.47
-4 -14 13 0.92 0.75
-4 -14 13 0.34 0.72
-3 -14 13 48.63 3.86
-3 -14 13 48.07 3.39
-3 -14 13 43.09 3.92
-3 -14 13 43.14 5.13
-2 -14 13 2.52 0.51
-2 -14 13 2.68 0.81
-2 -14 13 1.98 0.66
-2 -14 13 2.54 0.66
-2 -14 13 3.66 0.81
-1 -14 13 4.12 0.64
-1 -14 13 4.79 1.02
-1 -14 13 7.03 0.78
-1 -14 13 5.17 0.91
-1 -14 13 8.53 0.99
-1 -14 13 6.98 1.05
0 -14 13 3.59 0.79
0 -14 13 4.4 0.85
0 -14 13 4.8 0.94
0 -14 13 3.23 0.64
0 -14 13 3.48 0.7
1 -14 13 8.56 1.33
1 -14 13 10.34 1.47
1 -14 13 13.3 1.27
1 -14 13 9.23 1.18
2 -14 13 1.44 0.69
2 -14 13 1.31 0.75
2 -14 13 2.01 0.59
2 -14 13 1.98 0.69
3 -14 13 33.22 3.04
3 -14 13 33.14 3.55
3 -14 13 39.34 3.54
4 -14 13 0.64 0.82
4 -14 13 0.7 0.53
4 -14 13 2.01 0.76
5 -14 13 1.06 0.57
5 -14 13 0.45 0.79
5 -14 13 2.17 0.77
6 -14 13 9.34 1.34
6 -14 13 8.56 1.18
7 -14 13 0.84 0.55
8 -14 13 0.94 0.56
-9 -13 13 0.18 0.59
-9 -13 13 -0.31 0.43
-8 -13 13 1.95 0.66
-8 -13 13 1.88 0.5
-7 -13 13 1.51 0.7
-7 -13 13 2.56 0.55
-6 -13 13 -0.84 0.67
-6 -13 13 0.21 0.68
-6 -13 13 0.84 0.51
-5 -13 13 3.67 0.68
-5 -13 13 1.64 0.54
-5 -13 13 2.05 0.75
-5 -13 13 2.2 0.71
-4 -13 13 2.16 0.66
-4 -13 13 0.91 0.49
-4 -13 13 1.6 0.72
-4 -13 13 2.3 0.76
-3 -13 13 13.25 1.78
-3 -13 13 12.59 1.16
-3 -13 13 13.51 1.43
-3 -13 13 13.4 1.5
-2 -13 13 1.07 0.7
-2 -13 13 0.09 0.58
-2 -13 13 -0.66 0.65
-2 -13 13 -0.59 0.41
-1 -13 13 1 0.76
-1 -13 13 0.26 0.57
-1 -13 13 0.58 0.68
-1 -13 13 0.3 0.4
-1 -13 13 0.84 0.68
-1 -13 13 -0.14 0.53
0 -13 13 0.88 0.5
0 -13 13 0.5 0.64
0 -13 13 -0.03 0.53
0 -13 13 -0.15 0.37
0 -13 13 -0.21 0.72
0 -13 13 0.2 0.64
1 -13 13 0.45 0.56
1 -13 13 0.62 0.63
1 -13 13 0.83 0.71
1 -13 13 0.29 0.63
2 -13 13 1.29 0.68
2 -13 13 0.99 0.78
2 -13 13 0.84 0.56
2 -13 13 1.09 0.64
3 -13 13 15.19 1.65
3 -13 13 14.77 1.52
3 -13 13 14.97 1.93
3 -13 13 13.94 1.78
4 -13 13 8.66 1.07
4 -13 13 9.21 1.32
4 -13 13 8.63 1.29
5 -13 13 12.02 1.47
5 -13 13 13.59 1.67
5 -13 13 13.46 1.78
6 -13 13 -0.47 0.77
6 -13 13 0 0.55
7 -13 13 1.46 0.74
7 -13 13 0.98 0.54
8 -13 13 0.81 0.54
9 -13 13 0.75 0.51
-10 -12 13 -0.02 0.55
-10 -12 13 -0.03 0.35
-9 -12 13 0.87 0.62
-9 -12 13 0.86 0.43
-8 -12 13 9.88 0.91
-8 -12 13 8.86 1.12
-7 -12 13 0.3 0.48
-7 -12 13 -0.16 0.68
-6 -12 13 6.58 0.7
-6 -12 13 4.34 0.91
-6 -12 13 4.24 0.98
-6 -12 13 7.15 0.9
-5 -12 13 11.36 1.4
-5 -12 13 12.63 1.16
-5 -12 13 13.71 1.43
-4 -12 13 10.19 0.97
-4 -12 13 8.49 1.31
-4 -12 13 9.57 1.06
-4 -12 13 10.48 1.18
-3 -12 13 11.58 1.07
-3 -12 13 12.09 1.61
-3 -12 13 10.24 1.27
-3 -12 13 12.65 1.28
-2 -12 13 3.97 0.57
-2 -12 13 5.37 0.87
-2 -12 13 5.36 0.76
-2 -12 13 4.5 0.85
-2 -12 13 3.85 0.97
-1 -12 13 1.57 0.42
-1 -12 13 2.75 0.88
-1 -12 13 2.1 0.69
-1 -12 13 1.75 0.56
-1 -12 13 2.27 0.69
0 -12 13 1.01 0.49
0 -12 13 0.68 0.6
0 -12 13 0.22 0.54
0 -12 13 0.67 0.36
0 -12 13 0.83 0.73
0 -12 13 0.6 0.61
1 -12 13 2.33 0.68
1 -12 13 3.1 0.61
1 -12 13 3.4 0.72
1 -12 13 2.08 0.8
2 -12 13 8.46 1.12
2 -12 13 7.58 1
2 -12 13 7.44 1.2
2 -12 13 8.76 1.27
3 -12 13 13.99 1.85
3 -12 13 15.83 1.73
3 -12 13 16.22 2
3 -12 13 17.08 1.58
4 -12 13 6.57 0.85
4 -12 13 7.21 1.04
4 -12 13 5.87 1.02
4 -12 13 4.66 0.83
5 -12 13 7.05 1.21
5 -12 13 7.27 1.16
5 -12 13 10.21 1.1
6 -12 13 9.74 1.24
6 -12 13 9.54 1.39
7 -12 13 0.22 0.75
7 -12 13 0.26 0.54
8 -12 13 5.09 0.73
8 -12 13 3.08 0.89
9 -12 13 12.89 1.46
-10 -11 13 -0.08 0.38
-10 -11 13 0.05 0.38
-10 -11 13 -0.49 0.58
-9 -11 13 0.54 0.44
-9 -11 13 0.27 0.67
-9 -11 13 -0.61 0.41
-8 -11 13 0.83 0.46
-8 -11 13 0.68 0.71
-8 -11 13 1.04 0.48
-7 -11 13 0.5 0.5
-7 -11 13 0.44 0.74
-7 -11 13 -0.07 0.72
-7 -11 13 0.68 0.46
-6 -11 13 0.1 0.72
-6 -11 13 0.68 0.46
-6 -11 13 1.79 0.53
-6 -11 13 0.21 0.65
-5 -11 13 1.08 0.66
-5 -11 13 0.69 0.63
-5 -11 13 0.23 0.46
-4 -11 13 3.54 0.91
-4 -11 13 5.83 0.77
-4 -11 13 5.25 0.62
-4 -11 13 5.89 0.89
-3 -11 13 4.61 0.8
-3 -11 13 3.24 0.66
-3 -11 13 3.93 0.53
-3 -11 13 3.51 0.81
-2 -11 13 0.23 0.61
-2 -11 13 0.52 0.62
-2 -11 13 -0.7 0.53
-2 -11 13 1.21 0.79
-2 -11 13 0.14 0.37
-1 -11 13 1.69 0.66
-1 -11 13 1.37 0.53
-1 -11 13 0.15 0.74
-1 -11 13 0.55 0.39
-1 -11 13 1.55 0.63
0 11 -13 0.41 0.64
0 -11 13 0.08 0.47
0 -11 13 0.7 0.35
0 -11 13 0.47 0.6
0 -11 13 -0.43 0.62
0 -11 13 0.62 0.73
-1 11 -13 1.41 0.64
1 -11 13 0.92 0.73
1 -11 13 0.68 0.57
1 -11 13 0.88 0.38
1 -11 13 0.79 0.64
1 -11 13 0.2 0.52
-2 11 -13 0.69 0.64
2 -11 13 -0.32 0.59
2 -11 13 0.12 0.61
2 -11 13 0.57 0.68
2 -11 13 0.28 0.52
3 -11 13 3.06 0.65
3 -11 13 3.51 0.81
3 -11 13 3.2 0.7
3 -11 13 2.71 0.77
4 -11 13 0.77 0.72
4 -11 13 1.95 0.63
4 -11 13 2.57 0.73
4 -11 13 2.05 0.55
5 -11 13 1.31 0.52
5 -11 13 0.87 0.75
5 -11 13 0.2 0.73
6 -11 13 0.31 0.75
6 -11 13 -0.02 0.53
6 -11 13 0.3 0.72
7 -11 13 0.56 0.78
7 -11 13 0.38 0.55
8 -11 13 6.68 1.11
8 -11 13 5.73 0.85
9 -11 13 2.7 0.65
10 -11 13 1.46 0.53
-10 -10 13 0.36 0.39
-10 -10 13 0.64 0.64
-10 -10 13 0.71 0.43
-9 -10 13 -0.13 0.47
-9 -10 13 0.12 0.43
-9 -10 13 0.38 0.68
-8 -10 13 0.07 0.71
-8 -10 13 -0.1 0.47
-8 -10 13 0.3 0.49
-7 -10 13 23.4 2.66
-7 -10 13 27.66 1.96
-7 -10 13 21.72 1.96
-7 -10 13 25.7 2.34
-6 -10 13 3.65 0.81
-6 -10 13 4.66 0.6
-6 -10 13 4.75 0.79
-6 -10 13 2.98 0.58
-5 -10 13 2.89 0.72
-5 -10 13 2.65 0.53
-5 -10 13 2.94 0.73
-5 -10 13 2.35 0.49
-4 -10 13 -0.3 0.37
-4 -10 13 0.32 0.64
-4 -10 13 0.11 0.6
-4 -10 13 0.53 0.41
-3 -10 13 8.39 1.2
-3 -10 13 7.5 0.71
-3 -10 13 7.22 1.15
-3 -10 13 9.05 1.05
-3 -10 13 8.28 0.92
-3 -10 13 8.28 0.82
-2 -10 13 1.51 0.65
-2 -10 13 1.6 0.4
-2 -10 13 0.61 0.79
-2 -10 13 0.9 0.36
-2 -10 13 1.5 0.65
-2 -10 13 1.16 0.53
1 10 -13 2.37 0.71
-1 -10 13 0.6 0.61
-1 -10 13 0.8 0.72
-1 -10 13 1.71 0.68
-1 -10 13 1.08 0.38
-1 -10 13 0.51 0.51
0 10 -13 6.13 0.85
0 -10 13 5.03 0.67
0 -10 13 4.72 0.84
0 -10 13 5.14 0.82
0 -10 13 6 1
0 -10 13 4.08 0.53
-1 10 -13 -0.81 0.59
1 -10 13 0.48 0.47
1 -10 13 0.46 0.69
1 -10 13 -0.01 0.55
1 -10 13 0.05 0.45
1 -10 13 0.34 0.35
1 -10 13 0.63 0.61
-2 10 -13 0.84 0.6
2 -10 13 0.27 0.54
2 -10 13 1.21 0.34
2 -10 13 1.12 0.61
2 -10 13 0.41 0.71
2 -10 13 0.38 0.47
-3 10 -13 1.54 0.62
3 -10 13 2.87 0.7
3 -10 13 3.1 0.57
3 -10 13 2.27 0.59
3 -10 13 1.05 0.72
4 -10 13 0.83 0.71
4 -10 13 0.61 0.54
4 -10 13 0.15 0.49
4 -10 13 -0.53 0.65
5 -10 13 1.46 0.77
5 -10 13 2.55 0.57
5 -10 13 1.3 0.8
6 -10 13 4.23 0.68
6 -10 13 2.55 0.85
6 -10 13 2.85 0.85
7 -10 13 20.86 1.98
7 -10 13 14.33 2.1
8 -10 13 0.24 0.54
8 -10 13 -0.31 0.75
9 -10 13 2.21 0.88
9 -10 13 3.39 0.67
10 -10 13 1.21 0.52
-11 -9 13 0.54 0.44
-11 -9 13 0.54 0.58
-10 -9 13 1.05 0.65
-10 -9 13 0.67 0.46
-9 -9 13 7 0.7
-9 -9 13 5.41 0.72
-9 -9 13 7.24 0.95
-8 -9 13 6.55 0.91
-8 -9 13 5.61 0.66
-8 -9 13 4.85 0.69
-7 -9 13 1.03 0.49
-7 -9 13 0.88 0.7
-7 -9 13 0.81 0.46
-6 -9 13 8.84 0.8
-6 -9 13 6.53 0.98
-6 -9 13 7.46 0.8
-6 -9 13 8.54 1.02
-5 -9 13 0.03 0.43
-5 -9 13 -0.51 0.65
-5 -9 13 -0.11 0.42
-5 -9 13 -0.09 0.58
-4 -9 13 1.21 0.42
-4 -9 13 1.33 0.43
-4 -9 13 1.96 0.62
-4 -9 13 0.9 0.66
-3 -9 13 3.2 0.9
-3 -9 13 5.03 0.56
-3 -9 13 6.01 0.94
-3 -9 13 6.79 0.77
-3 -9 13 4.97 0.55
-3 -9 13 5.79 0.85
2 9 -13 1.01 0.7
-2 -9 13 1.39 0.64
-2 -9 13 1.07 0.4
-2 -9 13 1.36 0.75
-2 -9 13 1.12 0.65
1 9 -13 14.89 1.37
-1 -9 13 11.48 1.6
-1 -9 13 11.53 1.55
-1 -9 13 12.39 1.33
-1 -9 13 11.72 1.04
0 9 -13 0.24 0.66
0 -9 13 -0.02 0.71
0 -9 13 0.89 0.61
0 -9 13 -0.02 0.53
-1 9 -13 5.56 0.86
1 -9 13 5.82 0.81
1 -9 13 8.27 1.08
1 -9 13 5.32 0.95
-2 9 -13 6.32 0.9
2 -9 13 7.42 0.65
2 -9 13 5.9 0.99
2 -9 13 6.84 0.9
2 -9 13 6.15 0.99
3 -9 13 3.11 0.85
3 -9 13 3.85 0.81
3 -9 13 2.92 0.66
3 -9 13 5.09 0.69
4 -9 13 0.82 0.67
4 -9 13 0.78 0.55
4 -9 13 1.73 0.72
4 -9 13 1.59 0.54
5 -9 13 -0.44 0.71
5 -9 13 0.07 0.49
5 -9 13 0.03 0.53
5 -9 13 -0.54 0.67
6 -9 13 2.81 0.82
6 -9 13 3.69 0.64
7 -9 13 0.55 0.56
7 -9 13 -0.05 0.68
8 -9 13 11.31 1.55
8 -9 13 12.84 1.46
9 -9 13 1.78 0.82
9 -9 13 1.61 0.6
10 -9 13 0.55 0.49
-11 -8 13 0.83 0.46
-11 -8 13 0.51 0.58
-10 -8 13 0.17 0.49
-10 -8 13 0.12 0.65
-9 -8 13 2.53 0.68
-9 -8 13 0.27 0.51
-9 -8 13 0.37 0.43
-8 -8 13 3.25 0.73
-8 -8 13 3.01 0.54
-8 -8 13 2.91 0.59
-7 -8 13 0.17 0.45
-7 -8 13 0.33 0.48
-7 -8 13 0.3 0.66
-6 -8 13 0.94 0.48
-6 -8 13 1.48 0.66
-6 -8 13 1.24 0.45
-5 -8 13 0.38 0.44
-5 -8 13 0.37 0.55
-5 -8 13 1 0.63
-5 -8 13 0.42 0.41
-4 -8 13 2.33 0.43
-4 -8 13 3.16 0.63
-4 -8 13 0.72 0.6
-4 -8 13 0.58 0.41
-3 -8 13 11.78 1.32
-3 -8 13 11.61 1.02
-3 -8 13 11.31 1.04
-3 -8 13 12.2 1.4
2 8 -13 19.04 1.73
-2 -8 13 16.79 1.62
-2 -8 13 16.1 1.86
-2 -8 13 16.55 1.35
1 8 -13 5.67 0.86
-1 -8 13 3.85 0.73
-1 -8 13 6.01 0.91
0 8 -13 42.92 3.51
0 -8 13 40.82 3.99
0 -8 13 40.41 3.44
-1 8 -13 14.71 1.32
1 -8 13 11.61 1.25
1 -8 13 10.82 1.56
1 -8 13 11.53 1.48
2 -8 13 5.4 0.87
2 -8 13 4.66 0.71
3 -8 13 5.71 0.79
3 -8 13 6.19 0.98
3 -8 13 5.58 0.9
4 -8 13 5.89 1.05
4 -8 13 5.85 1.02
4 -8 13 7.87 0.91
4 -8 13 6.01 0.83
5 -8 13 2.72 0.61
5 -8 13 3.65 0.66
5 -8 13 3.31 0.82
5 -8 13 4.23 0.88
6 -8 13 5.29 0.76
6 -8 13 4.96 0.94
7 -8 13 -0.33 0.72
7 -8 13 -0.17 0.49
8 -8 13 0.12 0.74
8 -8 13 0.71 0.57
9 -8 13 14.02 1.69
9 -8 13 11.8 1.49
10 -8 13 3.75 0.68
11 -8 13 2.51 0.54
-11 -7 13 0.24 0.49
-11 -7 13 0.39 0.55
-10 -7 13 0.62 0.62
-10 -7 13 0.67 0.52
-9 -7 13 2.53 0.7
-9 -7 13 1.98 0.58
-8 -7 13 -0.08 0.63
-8 -7 13 0.39 0.5
-8 -7 13 0.16 0.42
-7 -7 13 -0.03 0.48
-7 -7 13 0.46 0.42
-7 -7 13 0.98 0.6
-6 -7 13 1.21 0.46
-6 -7 13 0.49 0.59
-6 -7 13 1.5 0.42
-5 -7 13 0.7 0.54
-5 -7 13 0.58 0.39
-5 -7 13 0.6 0.44
-5 -7 13 0.03 0.56
-4 -7 13 1.22 0.61
-4 -7 13 0.68 0.42
-4 -7 13 1.36 0.41
3 7 -13 28.75 2.55
-3 -7 13 28.7 2.79
-3 -7 13 27.22 2.45
2 7 -13 13.9 1.45
-2 -7 13 12.86 1.36
-2 -7 13 12.63 1.53
1 7 -13 0.43 0.66
-1 -7 13 0.47 0.67
-1 -7 13 0.21 0.56
0 7 -13 5.08 0.84
0 -7 13 4.84 0.73
0 -7 13 4.48 0.89
1 -7 13 2.18 0.61
1 -7 13 2.41 0.75
2 -7 13 14.41 1.36
2 -7 13 12.43 1.57
3 -7 13 39.62 3.76
3 -7 13 38.64 3.24
3 -7 13 39.69 2.84
3 -7 13 37.47 4.39
4 -7 13 1.59 0.71
4 -7 13 0.94 0.57
4 -7 13 1.59 0.56
4 -7 13 1.66 0.72
5 -7 13 2.06 0.69
5 -7 13 1.34 0.48
5 -7 13 0.8 0.29
5 -7 13 0.64 0.52
6 -7 13 0.37 0.25
6 -7 13 0.05 0.72
6 -7 13 0.35 0.47
7 -7 13 2 0.78
7 -7 13 1.85 0.57
8 -7 13 0.85 0.56
8 -7 13 0.21 0.73
9 -7 13 17.33 1.98
9 -7 13 15.96 1.81
10 -7 13 0.61 0.49
11 -7 13 0.81 0.47
-11 -6 13 1.49 0.52
-10 -6 13 0.32 0.59
-10 -6 13 0.72 0.53
-9 -6 13 1.36 0.55
-9 -6 13 1.88 0.66
-8 -6 13 0.52 0.53
-8 -6 13 0.66 0.6
-8 -6 13 -0.46 0.42
-7 -6 13 2.55 0.55
-7 -6 13 1.6 0.44
-7 -6 13 2.34 0.62
-6 -6 13 1.06 0.41
-6 -6 13 1.28 0.59
-6 -6 13 1.28 0.47
-5 -6 13 0.65 0.42
-5 -6 13 1.04 0.39
-5 -6 13 0.38 0.52
-4 -6 13 0.9 0.4
-4 -6 13 1.3 0.44
-4 -6 13 1.39 0.58
3 6 -13 0.9 0.77
-3 -6 13 4.79 0.7
-3 -6 13 1.9 0.64
2 6 -13 7.56 1.03
-2 -6 13 6.64 0.89
-2 -6 13 6.84 0.98
1 6 -13 2.18 0.72
-1 -6 13 1.68 0.85
-1 -6 13 2.21 0.67
-1 -6 13 2.07 0.6
0 6 -13 0.63 0.7
0 -6 13 0.14 0.68
0 -6 13 0.5 0.56
0 -6 13 -0.48 0.76
1 -6 13 5.66 0.79
1 -6 13 6.41 0.93
1 -6 13 4.14 1.05
2 -6 13 2.94 0.63
2 -6 13 1.88 0.78
2 -6 13 3.32 0.77
3 -6 13 11.57 0.98
3 -6 13 12.83 1.41
3 -6 13 10.25 1.16
4 -6 13 7.84 1.02
4 -6 13 6.31 0.59
4 -6 13 5.34 0.8
5 -6 13 1.26 0.55
5 -6 13 2.09 0.33
5 -6 13 2.58 0.79
5 -6 13 1.32 0.49
6 -6 13 0.39 0.51
6 -6 13 0.52 0.76
6 -6 13 0.44 0.25
6 -6 13 0.26 0.44
7 -6 13 0.56 0.27
7 -6 13 -0.31 0.72
7 -6 13 1.1 0.51
8 -6 13 7.11 0.98
8 -6 13 8.21 1.24
9 -6 13 8.1 1.02
9 -6 13 6.85 1.19
10 -6 13 0.22 0.48
10 -6 13 0.86 0.88
-11 -5 13 0.64 0.52
-11 -5 13 -0.07 0.5
-10 -5 13 0.36 0.55
-10 -5 13 0.09 0.59
-9 -5 13 1.14 0.64
-9 -5 13 1.02 0.58
-8 -5 13 7.39 0.83
-8 -5 13 7.86 0.94
-7 -5 13 0.35 0.55
-7 -5 13 0.19 0.39
-7 -5 13 0.06 0.47
-6 -5 13 0.15 0.54
-6 -5 13 0.71 0.39
-6 -5 13 0.12 0.44
-5 -5 13 3.56 0.49
-5 -5 13 3.29 0.53
4 5 -13 13.23 1.34
-4 -5 13 9.49 0.97
-4 -5 13 13.06 1.21
-4 -5 13 9.97 0.95
3 5 -13 40.16 3.48
-3 -5 13 43.6 5.21
-3 -5 13 39.04 3.39
2 5 -13 22.09 1.97
-2 -5 13 20.98 2.95
-2 -5 13 19.68 1.9
-2 -5 13 21.11 2.13
1 5 -13 4.29 0.82
-1 -5 13 4.51 0.72
-1 -5 13 4.2 0.78
-1 -5 13 2.73 0.9
0 -5 13 0.06 0.7
0 -5 13 0.38 0.55
0 -5 13 0.91 0.65
1 -5 13 1.04 0.68
1 -5 13 1.37 0.75
1 -5 13 1.45 0.59
2 -5 13 25.95 2.24
2 -5 13 25.97 2.57
2 -5 13 24.9 3.42
3 -5 13 39.26 3.37
3 -5 13 50.15 4.43
3 -5 13 48.54 5.8
3 -5 13 49.01 3.82
4 -5 13 14.85 1.28
4 -5 13 17.54 2.33
4 -5 13 17.17 1.81
4 -5 13 15.71 1.54
5 -5 13 3.81 0.41
5 -5 13 4.36 0.88
5 -5 13 2.66 0.64
6 -5 13 -0.32 0.42
6 -5 13 0.17 0.25
6 -5 13 -0.56 0.77
6 -5 13 0.71 0.53
7 -5 13 3.03 0.37
7 -5 13 2.31 0.63
7 -5 13 4.24 1.01
8 -5 13 1.43 0.58
8 -5 13 1.94 0.31
8 -5 13 1.92 0.84
9 -5 13 0.63 0.79
10 -5 13 2.53 0.87
-11 -4 13 3.23 0.61
-10 -4 13 1.69 0.59
-9 -4 13 1.75 0.59
-8 -4 13 0.05 0.51
-7 -4 13 0.3 0.48
-6 -4 13 2.48 0.5
-6 -4 13 1.99 0.43
-5 -4 13 1 0.4
-5 -4 13 1.05 0.43
4 4 -13 1.61 0.71
-4 -4 13 0.78 0.38
-4 -4 13 0.72 0.7
-4 -4 13 -0.31 0.4
-4 -4 13 1.65 0.55
3 4 -13 8.93 1.03
-3 -4 13 6.39 1.3
-3 -4 13 9.03 0.97
2 4 -13 13.16 1.4
-2 -4 13 11.64 1.33
-2 -4 13 13.5 2.07
1 4 -13 2.73 0.76
-1 -4 13 3.21 0.66
-1 -4 13 2.75 0.61
-1 -4 13 1.68 0.74
0 -4 13 0.55 0.62
0 -4 13 0.22 0.6
0 -4 13 0.11 0.67
1 -4 13 9.6 1.15
1 -4 13 10.65 1.03
1 -4 13 7.07 1.36
2 -4 13 3.1 0.69
2 -4 13 1.89 0.71
2 -4 13 1.98 0.59
3 -4 13 1.88 0.69
3 -4 13 1.7 0.57
3 -4 13 1.35 0.65
4 -4 13 12 1.99
4 -4 13 13.23 1.08
4 -4 13 13.59 1.35
4 -4 13 13.89 1.6
5 -4 13 10.42 1.05
5 -4 13 11.04 1.28
5 -4 13 7.68 0.77
6 -4 13 -0.08 0.25
6 -4 13 -0.42 0.53
6 -4 13 -0.15 0.76
7 -4 13 2.02 0.34
7 -4 13 1.89 0.88
8 -4 13 0.05 0.26
8 -4 13 0.41 0.88
9 -4 13 5.71 1.12
10 -4 13 3.31 0.94
-11 -3 13 2.41 0.58
-10 -3 13 0.77 0.57
-9 -3 13 -0.46 0.56
-8 -3 13 1.92 0.58
7 3 -13 9.62 1.37
-7 -3 13 8.84 0.89
6 3 -13 16.27 1.82
-6 -3 13 13.04 1.19
-6 -3 13 13.79 1.26
5 3 -13 -0.74 0.67
-5 -3 13 -0.01 0.37
-5 -3 13 0.01 0.42
-5 -3 13 0.16 0.64
4 3 -13 2.39 0.75
4 3 -13 4.55 0.79
-4 -3 13 3.44 0.91
-4 -3 13 5.03 0.69
-4 -3 13 4.1 0.56
-4 -3 13 2.71 0.48
3 3 -13 11.15 1.56
3 3 -13 13.8 1.44
-3 -3 13 13.31 1.32
-3 -3 13 15.08 2.13
2 3 -13 3.8 0.73
-2 -3 13 2.69 0.62
-2 -3 13 2.25 0.81
-1 -3 13 0.83 0.56
-1 -3 13 0.74 0.7
-1 -3 13 1.43 0.6
0 -3 13 1.07 0.69
0 -3 13 -0.09 0.58
0 -3 13 0.41 0.57
1 -3 13 3.11 0.66
1 -3 13 3.43 0.76
1 -3 13 2.34 0.83
2 -3 13 12.75 1.96
2 -3 13 12.51 1.27
2 -3 13 10.92 1.46
3 -3 13 27.4 3.53
3 -3 13 25.17 2.69
3 -3 13 26.33 2.32
3 -3 13 28.01 2.04
4 -3 13 5.06 0.55
4 -3 13 8.06 1.03
4 -3 13 6.61 0.81
4 -3 13 5.02 1.02
4 -3 13 6.06 0.53
5 -3 13 2.78 0.78
5 -3 13 1.84 0.63
5 -3 13 2.5 0.35
6 -3 13 23.73 2.43
6 -3 13 21.46 1.61
6 -3 13 24.07 2.06
7 -3 13 1.01 0.62
7 -3 13 1.5 0.87
7 -3 13 1.1 0.31
8 -3 13 1.34 0.94
9 -3 13 1.84 0.87
10 -3 13 2.72 0.91
-11 -2 13 1.83 0.57
-10 -2 13 15.29 1.41
9 2 -13 0.17 0.93
-9 -2 13 0.21 0.57
8 2 -13 2.79 1.08
-8 -2 13 4.16 0.64
7 2 -13 -1.82 0.84
-7 -2 13 0.5 0.5
6 2 -13 0.22 0.81
-6 -2 13 -0.11 0.44
5 2 -13 0.82 0.74
-5 -2 13 0.75 0.65
-5 -2 13 0.27 0.43
-5 -2 13 0.18 0.4
4 2 -13 24.46 2.34
4 2 -13 24.22 2.74
-4 -2 13 26.67 3.53
-4 -2 13 26.57 2.05
-4 -2 13 30.04 2.05
3 2 -13 4.44 0.87
3 2 -13 6.89 0.88
-3 -2 13 4.96 1.06
-3 -2 13 6.38 0.77
2 2 -13 1.29 0.6
2 2 -13 1.65 0.69
-2 -2 13 1.86 0.58
-2 -2 13 1.68 0.73
1 2 -13 1.43 0.6
-1 -2 13 1.84 0.59
-1 -2 13 2.27 0.74
0 -2 13 16.76 1.59
0 -2 13 18.25 2.44
0 -2 13 15.86 1.76
1 -2 13 14.37 2.08
1 -2 13 12.21 1.51
1 -2 13 13.56 1.35
2 -2 13 6.53 0.97
2 -2 13 5.82 1.09
3 -2 13 8.11 1.3
3 -2 13 7.79 0.74
3 -2 13 10.15 1.14
4 -2 13 8.09 0.72
4 -2 13 9.23 1.16
5 -2 13 2.51 0.36
5 -2 13 5.26 0.88
6 -2 13 8.66 0.89
6 -2 13 12.22 1.21
6 -2 13 13.72 1.48
7 -2 13 6.1 1.05
7 -2 13 4.23 0.8
7 -2 13 3.99 0.46
8 -2 13 0.06 0.84
9 -2 13 7.72 1.24
10 -2 13 0.54 0.81
-11 -1 13 3.69 0.63
-10 -1 13 0.51 0.57
-9 -1 13 0.37 0.56
8 1 -13 -0.49 0.95
-8 -1 13 1.02 0.56
7 1 -13 0 0.86
-7 -1 13 1.5 0.51
6 1 -13 -0.9 0.81
-6 -1 13 -0.07 0.44
5 1 -13 3.24 0.9
-5 -1 13 3.85 0.54
-5 -1 13 2.94 0.86
4 1 -13 0.93 0.73
4 1 -13 -0.34 0.59
-4 -1 13 -0.17 0.63
-4 -1 13 0.01 0.39
-4 -1 13 0.27 0.35
3 1 -13 0.29 0.63
3 1 -13 0.97 0.63
-3 -1 13 0.43 0.51
-3 -1 13 0.43 0.65
2 1 -13 4.2 0.79
2 1 -13 4.33 0.8
-2 -1 13 4.71 0.97
-2 -1 13 5.06 0.72
1 1 -13 1.09 0.59
-1 -1 13 2.18 0.59
-1 -1 13 1.96 0.72
0 1 -13 1.52 0.61
0 -1 13 1.07 0.74
0 -1 13 1.56 0.57
1 -1 13 11.91 1.94
1 -1 13 11.73 1.36
2 -1 13 5.43 0.84
2 -1 13 4.31 0.98
3 -1 13 0.4 0.31
3 -1 13 0.53 0.67
3 -1 13 -0.05 0.28
3 -1 13 0.29 0.62
4 -1 13 1.43 0.29
4 -1 13 1.04 0.67
4 -1 13 2.48 0.77
5 -1 13 6.73 1.08
5 -1 13 5.21 0.52
6 -1 13 0.47 0.79
6 -1 13 -0.44 0.29
7 -1 13 -0.29 0.3
7 -1 13 0.68 0.84
8 -1 13 -0.05 0.91
9 -1 13 2.32 0.95
-11 0 13 -0.3 0.5
-10 0 13 1.09 0.58
-9 0 13 0.02 0.57
8 0 -13 0.24 0.99
-8 0 13 1.73 0.58
7 0 -13 7.09 1.36
-7 0 13 10.6 0.92
6 0 -13 -0.63 0.83
-6 0 13 -0.03 0.44
5 0 -13 5.75 1.02
-5 0 13 4.94 0.62
-5 0 13 4.71 1.02
4 0 -13 6.34 0.86
4 0 -13 5.26 0.97
-4 0 13 5.4 0.61
-4 0 13 4.69 1.01
3 0 -13 2.63 0.67
3 0 -13 1.66 0.72
-3 0 13 2.21 0.57
-3 0 13 0.78 0.68
-3 0 13 1.34 0.38
2 0 -13 19.79 1.95
2 0 -13 20.45 2.26
-2 0 13 23.16 2.92
-2 0 13 22.02 1.88
1 0 -13 2.59 0.71
-1 0 13 2.27 0.8
-1 0 13 3.32 0.6
0 0 -13 -0.1 0.59
0 0 13 -0.02 0.7
1 0 13 8.3 0.98
1 0 13 5.91 1.18
2 0 13 23.06 2.79
2 0 13 20.32 2.08
2 0 13 17.99 1.41
3 0 13 2.03 0.74
3 0 13 2.48 0.79
3 0 13 3.34 0.38
3 0 13 2.68 0.41
4 0 13 0.55 0.28
4 0 13 -0.37 0.61
4 0 13 0.92 0.72
5 0 13 3.56 0.9
5 0 13 3.26 0.41
6 0 13 1.06 0.86
6 0 13 0.82 0.32
7 0 13 0.73 0.81
8 0 13 0.59 0.9
9 0 13 0.24 0.87
-11 1 13 0.31 0.52
-10 1 13 -0.01 0.55
-9 1 13 -0.5 0.57
8 -1 -13 0.5 0.91
-8 1 13 -0.38 0.55
7 -1 -13 -0.7 0.87
-7 1 13 0.15 0.49
6 -1 -13 -0.66 0.88
-6 1 13 0.12 0.46
5 -1 -13 0.23 0.83
-5 1 13 1.1 0.43
-5 1 13 0.29 0.66
4 -1 -13 15.26 1.85
-4 1 13 14.93 1.27
-4 1 13 15.59 2.26
3 -1 -13 0.69 0.7
-3 1 13 0.27 0.34
-3 1 13 -0.18 0.65
2 -1 -13 1.1 0.7
2 -1 -13 2.09 0.6
-2 1 13 1.86 0.52
-2 1 13 1.21 0.72
1 -1 -13 2.15 0.72
-1 1 13 2.12 0.76
0 -1 -13 6.94 1.02
0 1 13 6.65 1.18
-1 -1 -13 15.79 1.84
1 1 13 16.55 2.41
2 1 13 7.82 0.7
2 1 13 9.08 1.09
2 1 13 7.32 1.3
3 1 13 -0.41 0.26
3 1 13 0.04 0.3
3 1 13 0 0.68
3 1 13 -0.54 0.63
4 1 13 3.17 0.9
4 1 13 4.51 0.45
4 1 13 5.15 0.96
5 1 13 4.9 0.49
5 1 13 5.51 1
5 1 13 3.7 0.96
6 1 13 0.38 0.32
6 1 13 1.36 0.84
7 1 13 1.79 0.96
8 1 13 0.47 0.9
9 1 13 1.28 0.92
-11 -1 -13 1.23 0.52
11 -2 -13 -0.06 0.62
-11 2 13 -0.23 0.48
-10 2 13 0.98 0.54
-9 2 13 0.15 0.55
8 -2 -13 0.57 0.91
-8 2 13 -0.36 0.55
7 -2 -13 0.83 0.93
-7 2 13 1.53 0.54
6 -2 -13 0.87 0.9
-6 2 13 2.42 0.51
5 -2 -13 0.26 0.79
-5 2 13 -0.09 0.64
-5 2 13 0.18 0.39
4 -2 -13 5.91 1.08
-4 2 13 6.89 1.15
-4 2 13 6.06 0.64
3 -2 -13 1.7 0.78
-3 2 13 1.96 0.75
2 -2 -13 0.1 0.71
-2 2 13 0.17 0.65
-2 2 13 0.16 0.48
1 -2 -13 3.47 0.81
-1 2 13 2.64 0.82
0 -2 -13 17.09 1.99
0 2 13 17.93 2.58
-1 -2 -13 15.71 1.92
1 2 13 17.38 2.49
1 2 13 16.53 1.19
2 2 13 0.67 0.32
2 2 13 -0.45 0.6
2 2 13 0.4 0.69
2 2 13 0.37 0.27
3 2 13 -0.31 0.71
3 2 13 -0.09 0.28
3 2 13 0.11 0.69
4 2 13 -0.08 0.29
4 2 13 0.02 0.79
4 2 13 -0.62 0.66
5 2 13 2.45 0.95
5 2 13 0.73 0.77
5 2 13 2.57 0.38
6 2 13 3.96 1.01
7 2 13 13.15 1.71
8 2 13 9.01 1.48
7 -3 -13 5.03 1.12
6 -3 -13 10.8 1.52
5 -3 -13 1.42 0.85
4 -3 -13 2.15 0.82
-4 3 13 0.65 0.67
3 -3 -13 -0.33 0.76
-3 3 13 0.47 0.66
2 -3 -13 1.63 0.79
-2 3 13 0.25 0.69
1 -3 -13 2.07 0.82
-1 3 13 1.21 0.77
0 -3 -13 -1.19 0.74
0 3 13 0.11 0.76
-1 -3 -13 3.9 0.9
1 3 13 2.99 0.95
1 3 13 3.6 0.39
-2 -3 -13 5.28 0.99
2 3 13 4.32 1.08
2 3 13 5.21 0.49
3 3 13 0.43 0.29
3 3 13 -0.27 0.74
3 3 13 0.83 0.76
4 3 13 -1.11 0.73
4 3 13 -0.14 0.3
4 3 13 -0.51 0.82
5 3 13 0.31 0.79
5 3 13 5.1 1.04
6 3 13 3.28 0.99
7 3 13 16.1 2.07
8 3 13 8.99 1.39
10 -4 -13 -0.24 0.68
9 -4 -13 0.77 0.76
7 -4 -13 4.73 1.11
6 -4 -13 0.18 0.88
5 -4 -13 3.55 0.95
4 -4 -13 1.87 0.84
-4 4 13 0.77 0.69
3 -4 -13 0.91 0.79
-3 4 13 0.02 0.66
2 -4 -13 4.02 0.91
-2 4 13 2.75 0.9
1 -4 -13 11.54 1.39
-1 4 13 9.19 1.57
0 -4 -13 9.14 1.3
0 4 13 8.68 1.49
-1 -4 -13 14.73 1.92
1 4 13 16.75 2.53
-2 -4 -13 9.13 1.25
2 4 13 7.34 0.68
2 4 13 6.6 1.34
3 4 13 0.57 0.29
3 4 13 -0.46 0.78
3 4 13 -0.08 0.79
4 4 13 -0.59 0.79
4 4 13 1.62 0.88
5 4 13 7.45 1.11
5 4 13 1.32 0.94
6 4 13 0.05 0.86
7 4 13 0.18 0.9
8 4 13 2.64 1.01
9 -5 -13 -0.2 0.72
8 -5 -13 0.58 0.79
7 -5 -13 1.99 0.85
6 -5 -13 11.58 1.65
6 -5 -13 13.37 1.65
5 -5 -13 14.3 1.85
5 -5 -13 13.8 1.78
4 -5 -13 4.7 0.88
4 -5 -13 4.87 1.01
3 -5 -13 1.78 0.62
3 -5 -13 1.12 0.8
-3 5 13 -0.32 0.7
2 -5 -13 3.28 0.86
-2 5 13 1.82 0.84
1 -5 -13 2.93 0.9
-1 5 13 2.13 0.91
0 -5 -13 -0.22 0.83
0 5 13 -1.16 0.84
-1 -5 -13 0.62 0.81
1 5 13 -0.41 0.92
-2 -5 -13 3.47 0.96
2 5 13 1.48 1.01
3 5 13 -1.52 0.83
4 5 13 -0.87 0.82
4 5 13 -1.28 0.85
5 5 13 -0.37 0.81
6 5 13 3.57 1.02
7 5 13 -0.15 0.88
9 -6 -13 -0.28 0.65
8 -6 -13 0.19 0.71
7 -6 -13 -0.12 0.73
6 -6 -13 14.25 1.84
5 -6 -13 17.97 2.16
5 -6 -13 18.84 2.16
4 -6 -13 -0.22 0.61
4 -6 -13 0.59 0.82
-4 6 13 -0.82 0.67
3 -6 -13 0.2 0.81
-3 6 13 -1.21 0.72
2 -6 -13 1.05 0.79
-2 6 13 -0.19 0.77
1 -6 -13 2.62 0.88
-1 6 13 1.16 0.93
0 -6 -13 -1.24 0.82
0 6 13 -0.75 0.85
-1 -6 -13 5.03 1.06
1 6 13 3.45 1.18
-2 -6 -13 0.09 0.89
2 6 13 -1.44 0.87
3 6 13 -1.65 0.88
-4 -6 -13 8.03 1.01
4 6 13 1.89 1.12
-5 -6 -13 1.62 0.78
5 6 13 0.32 0.82
-6 -6 -13 2.81 0.71
6 6 13 1.04 0.9
7 6 13 -0.35 0.88
8 -7 -13 -0.13 0.66
7 -7 -13 1.22 0.73
6 -7 -13 0.77 0.69
5 -7 -13 13.67 1.73
4 -7 -13 0.57 0.82
4 -7 -13 0.47 0.63
-4 7 13 -1.87 0.68
3 -7 -13 2.92 0.89
-3 7 13 -0.3 0.8
2 -7 -13 4.13 0.94
-2 7 13 2.58 0.97
1 -7 -13 2.52 0.9
-1 7 13 2.3 0.98
0 -7 -13 0.03 0.84
0 7 13 0.04 0.95
-1 -7 -13 7.86 1.23
1 7 13 5.61 1.32
-2 -7 -13 5.48 1.11
2 7 13 2.28 1.08
-3 -7 -13 0.82 0.69
3 7 13 -1.66 0.89
-4 -7 -13 0.97 0.73
4 7 13 -1.63 0.9
-6 -7 -13 0.34 0.64
6 7 13 -0.67 0.79
-7 -7 -13 1.56 0.7
-8 -7 -13 0.38 0.65
8 -8 -13 0.96 0.63
7 -8 -13 -0.05 0.64
6 -8 -13 6.19 1
5 -8 -13 -0.07 0.61
4 -8 -13 0.95 0.63
-3 8 13 -0.14 0.78
2 -8 -13 15.68 1.67
-2 8 13 9.46 1.75
1 -8 -13 5.97 1.08
-1 8 13 3.22 1.09
0 -8 -13 4.17 1
0 8 13 2.55 1.14
-1 -8 -13 9.69 1.31
1 8 13 4.58 1.33
-2 -8 -13 1.28 0.97
2 8 13 0.54 0.97
-3 -8 -13 0.93 0.79
-4 -8 -13 1.85 0.81
-5 -8 -13 0.2 0.73
-6 -8 -13 1.66 0.64
-7 -8 -13 3.21 0.71
7 -9 -13 0.45 0.58
6 -9 -13 0.9 0.6
5 -9 -13 2.62 0.68
4 -9 -13 0.34 0.5
3 -9 -13 -0.02 0.45
2 -9 -13 4.76 0.67
-2 9 13 -1.05 0.84
-1 9 13 3.48 1.07
0 -9 -13 0.66 0.7
0 9 13 -1.97 0.92
1 9 13 5.01 1.24
-2 -9 -13 5.77 1.02
-2 -9 -13 7.62 0.89
2 9 13 2.79 1.23
-3 -9 -13 0.64 0.74
-4 -9 -13 0.74 0.74
-5 -9 -13 0.86 0.64
-6 -9 -13 4.03 0.85
6 -10 -13 0.07 0.46
5 -10 -13 0.29 0.45
4 -10 -13 0.6 0.44
2 -10 -13 13.09 1.45
1 -10 -13 0.66 0.51
0 -10 -13 0.23 0.58
-1 -10 -13 1.4 0.66
-1 -10 -13 1.58 0.69
-2 -10 -13 14.84 1.79
-2 -10 -13 14.21 1.51
-3 -10 -13 0.98 0.64
-3 -10 -13 0.27 0.65
-4 -10 -13 0.96 0.62
-5 -10 -13 0.56 0.64
0 -11 -13 0.13 0.63
0 -11 -13 0.25 0.42
-1 -11 -13 1.88 0.65
-1 -11 -13 0.53 0.51
-2 -11 -13 1.41 0.61
-2 -11 -13 0.83 0.53
-3 -11 -13 0.8 0.56
-3 -11 -13 -0.08 0.56
-4 -11 -13 -0.45 0.52
1 -12 -13 1.57 0.6
0 -12 -13 1.23 0.6
-1 -12 -13 4.79 0.72
-2 -19 14 6.58 1.07
-1 -19 14 2.67 0.81
0 -19 14 1.64 0.8
1 -19 14 1.34 0.78
2 -19 14 10.11 1.57
-4 -18 14 4.51 0.55
-4 -18 14 3.12 0.6
-4 -18 14 3.97 0.87
-3 -18 14 -0.02 0.4
-3 -18 14 1.04 0.73
-3 -18 14 0.46 0.46
-2 -18 14 3.82 0.53
-2 -18 14 4.1 0.89
-1 -18 14 1.32 0.77
0 -18 14 30.23 3.52
1 -18 14 1.72 0.8
2 -18 14 5.34 1.04
3 -18 14 2.08 0.8
3 -18 14 0.92 0.56
4 -18 14 3.64 0.91
4 -18 14 4.76 0.71
-6 -17 14 0.69 0.43
-6 -17 14 1.41 0.51
-5 -17 14 2.43 0.49
-5 -17 14 2.2 0.57
-4 -17 14 2.49 0.6
-4 -17 14 3 0.82
-4 -17 14 2.31 0.51
-3 -17 14 1.37 0.76
-3 -17 14 1.68 0.59
-3 -17 14 0.81 0.46
-2 -17 14 0.27 0.43
-2 -17 14 0.14 0.51
-2 -17 14 1.03 0.75
-1 -17 14 3.1 0.84
-1 -17 14 1.48 0.82
0 -17 14 0.41 0.77
0 -17 14 -0.5 0.64
1 -17 14 2.35 0.78
1 -17 14 3.14 0.87
1 -17 14 2.61 0.61
2 -17 14 1.18 0.82
2 -17 14 -0.1 0.79
2 -17 14 0.42 0.52
3 -17 14 0.7 0.54
3 -17 14 0.82 0.77
4 -17 14 6.68 1.05
4 -17 14 5.31 0.85
5 -17 14 1.16 0.75
5 -17 14 2.77 0.61
6 -17 14 2.38 0.6
-7 -16 14 1.44 0.56
-7 -16 14 0.82 0.44
-6 -16 14 0.33 0.59
-6 -16 14 -0.33 0.43
-5 -16 14 11.62 1.28
-5 -16 14 10.36 1.05
-4 -16 14 9.23 1.05
-4 -16 14 8.65 1.34
-4 -16 14 9.57 0.9
-3 -16 14 2.82 0.85
-3 -16 14 1.22 0.5
-3 -16 14 1.91 0.83
-3 -16 14 1.61 0.63
-2 -16 14 0.18 0.44
-2 -16 14 -0.09 0.74
-2 -16 14 1.02 0.76
-2 -16 14 0.79 0.56
-1 -16 14 10.31 1.2
-1 -16 14 10.48 1.55
-1 -16 14 9 0.94
0 -16 14 0.08 0.57
0 -16 14 0.32 0.78
0 -16 14 -0.85 0.64
1 -16 14 10.73 1.49
1 -16 14 12.9 1.66
1 -16 14 10.51 1.23
1 -16 14 9.22 1.31
2 -16 14 2.16 0.86
2 -16 14 1.45 0.68
2 -16 14 1.4 0.58
2 -16 14 1.13 0.8
3 -16 14 1.05 0.77
3 -16 14 1.42 0.55
3 -16 14 -0.17 0.77
4 -16 14 6.42 0.88
4 -16 14 6.31 1.07
4 -16 14 6.04 1.06
5 -16 14 12.1 1.39
5 -16 14 11.15 1.65
6 -16 14 -0.38 0.54
7 -16 14 0.71 0.56
-8 -15 14 0.68 0.57
-8 -15 14 0.93 0.44
-7 -15 14 0.4 0.45
-7 -15 14 0.31 0.61
-6 -15 14 8.48 0.83
-6 -15 14 8.24 1.03
-5 -15 14 0.63 0.51
-5 -15 14 0.24 0.67
-4 -15 14 -0.22 0.8
-4 -15 14 0.12 0.65
-4 -15 14 -0.38 0.72
-4 -15 14 0.39 0.5
-3 -15 14 11.36 1.35
-3 -15 14 10.51 1.11
-3 -15 14 13.03 1.4
-3 -15 14 13.63 1.81
-2 -15 14 0.48 0.61
-2 -15 14 1.31 0.63
-2 -15 14 0.15 0.79
-2 -15 14 1.82 0.75
-2 -15 14 1.2 0.46
-1 -15 14 37.12 2.97
-1 -15 14 31.66 2.57
-1 -15 14 32.87 3.4
-1 -15 14 33.5 2.98
-1 -15 14 35.01 3.92
0 -15 14 -0.32 0.75
0 -15 14 0.13 0.69
0 -15 14 0.27 0.79
0 -15 14 1.48 0.61
1 -15 14 35.05 3.47
1 -15 14 35.52 4.01
1 -15 14 34.16 3.01
1 -15 14 33.76 3.5
2 -15 14 0.88 0.59
2 -15 14 -0.41 0.82
2 -15 14 1.3 0.8
2 -15 14 0.42 0.67
3 -15 14 12.98 1.71
3 -15 14 10.4 1.51
3 -15 14 11.05 1.36
4 -15 14 0.55 0.54
4 -15 14 0.29 0.69
4 -15 14 0.46 0.75
5 -15 14 0.71 0.72
5 -15 14 -0.09 0.71
5 -15 14 0.26 0.55
6 -15 14 4.45 0.75
7 -15 14 0.62 0.55
-8 -14 14 0.52 0.45
-8 -14 14 -0.2 0.59
-7 -14 14 1.19 0.64
-7 -14 14 0.9 0.49
-6 -14 14 0.48 0.5
-6 -14 14 1.52 0.69
-5 -14 14 1.39 0.52
-5 -14 14 -0.19 0.67
-5 -14 14 1.54 0.68
-4 -14 14 0.75 0.68
-4 -14 14 0.7 0.51
-4 -14 14 0.27 0.83
-4 -14 14 0.46 0.74
-3 -14 14 5.58 0.78
-3 -14 14 3 0.58
-3 -14 14 2.66 0.9
-3 -14 14 3.14 0.86
-2 -14 14 8.33 0.92
-2 -14 14 9.8 1.14
-2 -14 14 4.63 0.97
-2 -14 14 7.1 0.76
-2 -14 14 8.75 1.19
-1 -14 14 0.66 0.71
-1 -14 14 -0.31 0.42
-1 -14 14 -0.1 0.85
-1 -14 14 0.83 0.55
-1 -14 14 1.04 0.75
-1 -14 14 0.37 0.61
0 -14 14 20.34 2.45
0 -14 14 23.87 2.13
0 -14 14 23.63 2.71
0 -14 14 21.44 1.75
0 -14 14 22.88 2.34
1 -14 14 0.1 0.76
1 -14 14 0.74 0.74
1 -14 14 -0.46 0.68
1 -14 14 0.61 0.6
2 -14 14 6.01 0.85
2 -14 14 5.12 0.99
2 -14 14 5.89 1.05
2 -14 14 4.26 0.87
3 -14 14 1.15 0.69
3 -14 14 1.1 0.83
3 -14 14 2.22 0.6
3 -14 14 2.03 0.83
4 -14 14 1.01 0.81
4 -14 14 1.85 0.59
4 -14 14 1.68 0.78
5 -14 14 2.5 0.63
5 -14 14 1.98 0.79
5 -14 14 1.37 0.89
6 -14 14 1.19 0.6
6 -14 14 0.96 0.82
7 -14 14 1.51 0.57
8 -14 14 -0.14 0.51
-9 -13 14 3.86 0.54
-9 -13 14 3.15 0.68
-8 -13 14 0.55 0.65
-8 -13 14 0.05 0.45
-7 -13 14 0.75 0.68
-7 -13 14 1.07 0.51
-6 -13 14 -0.23 0.67
-6 -13 14 -0.11 0.51
-5 -13 14 24.7 2.36
-5 -13 14 26.06 2.42
-5 -13 14 26.85 2.05
-4 -13 14 11.8 1.17
-4 -13 14 12.17 1.85
-4 -13 14 13.64 1.48
-4 -13 14 12.79 1.43
-3 -13 14 0.83 0.65
-3 -13 14 0.54 0.49
-3 -13 14 1.89 0.74
-3 -13 14 1.12 0.77
-2 -13 14 -0.75 0.59
-2 -13 14 0.54 0.73
-2 -13 14 0.09 0.8
-2 -13 14 0.41 0.44
-2 -13 14 0.11 0.7
-1 -13 14 2.36 0.67
-1 -13 14 3.26 0.8
-1 -13 14 3.73 0.82
-1 -13 14 1.12 0.87
-1 -13 14 2.99 0.65
-1 -13 14 2.12 0.47
0 -13 14 2.2 0.82
0 -13 14 2.39 0.65
0 -13 14 2.69 0.76
0 -13 14 3.62 0.82
0 -13 14 1.8 0.58
0 -13 14 2.09 0.44
1 -13 14 2.09 0.62
1 -13 14 1.62 0.84
1 -13 14 1.61 0.76
1 -13 14 2.03 0.72
2 -13 14 -0.28 0.66
2 -13 14 0.63 0.73
2 -13 14 0.03 0.57
2 -13 14 0.51 0.77
3 -13 14 0.52 0.8
3 -13 14 1.28 0.6
3 -13 14 1.97 0.68
3 -13 14 1.78 0.78
4 -13 14 16.19 2.02
4 -13 14 13.86 1.84
4 -13 14 15.16 1.68
5 -13 14 24.64 3.01
5 -13 14 23.4 2.67
5 -13 14 27.11 2.59
6 -13 14 0.69 0.78
6 -13 14 0.07 0.74
6 -13 14 0.19 0.55
7 -13 14 0.99 0.8
7 -13 14 0.15 0.52
8 -13 14 0.66 0.53
9 -13 14 1.34 0.51
-9 -12 14 7.05 0.71
-9 -12 14 6.4 0.89
-8 -12 14 0 0.46
-8 -12 14 0.85 0.66
-7 -12 14 -0.15 0.68
-7 -12 14 0.74 0.51
-6 -12 14 12.33 1.69
-6 -12 14 13.75 1.5
-6 -12 14 12.82 1.45
-6 -12 14 14.22 1.25
-5 -12 14 13.38 1.18
-5 -12 14 12.88 1.38
-5 -12 14 11.14 1.3
-4 -12 14 12.02 1.1
-4 -12 14 14.05 1.4
-4 -12 14 11.42 1.34
-4 -12 14 10.55 1.58
-3 -12 14 12.57 1.14
-3 -12 14 14.8 1.45
-3 -12 14 13.39 1.32
-3 -12 14 10.99 1.75
-2 -12 14 -0.2 0.58
-2 -12 14 1.07 0.8
-2 -12 14 0.24 0.44
-2 -12 14 -0.24 0.69
-2 -12 14 0.59 0.7
-1 -12 14 8.87 1.21
-1 -12 14 8.06 0.88
-1 -12 14 8 1.06
-1 -12 14 7.17 1.14
-1 -12 14 6.55 0.72
0 -12 14 5.77 0.9
0 -12 14 7.24 1.09
0 -12 14 6.97 0.98
0 -12 14 6.75 0.79
0 -12 14 5.83 0.65
0 -12 14 6.81 1.06
1 -12 14 3.81 0.84
1 -12 14 3.86 0.87
1 -12 14 4.02 0.71
1 -12 14 2.77 0.74
2 -12 14 -0.36 0.74
2 -12 14 -0.31 0.63
2 -12 14 0.21 0.56
2 -12 14 0.36 0.69
3 -12 14 10.57 1.15
3 -12 14 6.22 0.98
3 -12 14 6.79 1.17
4 -12 14 6.86 1.02
4 -12 14 5.95 1.18
4 -12 14 10.81 1.49
4 -12 14 10.56 1.14
5 -12 14 6.2 1.14
5 -12 14 8.97 1.04
5 -12 14 5.49 1.08
6 -12 14 3.53 0.86
6 -12 14 2.97 0.89
7 -12 14 2.16 0.62
7 -12 14 1.87 0.84
8 -12 14 1.33 0.56
9 -12 14 2.78 0.59
-10 -11 14 0.54 0.38
-10 -11 14 1.5 0.59
-10 -11 14 0.06 0.37
-9 -11 14 4.68 0.76
-9 -11 14 2.91 0.52
-9 -11 14 3.94 0.54
-8 -11 14 3.16 0.75
-8 -11 14 3.18 0.56
-8 -11 14 2.27 0.51
-7 -11 14 4.2 0.61
-7 -11 14 3.19 0.58
-7 -11 14 4.06 0.8
-7 -11 14 3.74 0.88
-6 -11 14 1.57 0.48
-6 -11 14 1.85 0.7
-6 -11 14 1.68 0.73
-6 -11 14 3.85 0.57
-5 -11 14 1.8 0.49
-5 -11 14 0.93 0.43
-5 -11 14 1.31 0.68
-5 -11 14 1.49 0.69
-4 -11 14 0.57 0.45
-4 -11 14 -1.06 0.74
-4 -11 14 0.13 0.37
-4 -11 14 1.27 0.63
-4 -11 14 -0.07 0.68
-3 -11 14 0.52 0.59
-3 -11 14 0.66 0.43
-3 -11 14 0.08 0.72
-3 -11 14 0.25 0.69
-2 -11 14 2.55 0.62
-2 -11 14 1.36 0.84
-2 -11 14 0.31 0.69
-2 -11 14 1.42 0.74
-2 -11 14 1.87 0.45
1 11 -14 0.91 0.72
-1 -11 14 0.37 0.68
-1 -11 14 1.29 0.68
-1 -11 14 0.33 0.51
-1 -11 14 0.59 0.76
-1 -11 14 -0.07 0.36
0 11 -14 5.23 0.85
0 -11 14 3.97 0.53
0 -11 14 4.23 0.95
0 -11 14 4.68 0.67
0 -11 14 3.4 0.8
0 -11 14 4.56 0.87
-1 11 -14 -0.12 0.65
1 -11 14 0.7 0.67
1 -11 14 -0.35 0.62
1 -11 14 -0.35 0.52
1 -11 14 -0.83 0.73
1 -11 14 0.81 0.39
-2 11 -14 0.17 0.63
2 -11 14 1.42 0.7
2 -11 14 0.61 0.71
2 -11 14 0.55 0.55
2 -11 14 0.39 0.62
3 -11 14 1.02 0.64
3 -11 14 1.5 0.79
3 -11 14 1.85 0.74
3 -11 14 1.71 0.61
4 -11 14 1.25 0.84
4 -11 14 1.5 0.59
4 -11 14 0.58 0.63
4 -11 14 1.58 0.8
5 -11 14 6.69 1.2
5 -11 14 7.71 0.96
5 -11 14 7.61 1.19
6 -11 14 2.37 0.86
6 -11 14 2.96 0.65
6 -11 14 3.61 0.93
7 -11 14 1.4 0.61
7 -11 14 1.07 0.8
8 -11 14 3.09 0.92
8 -11 14 3.73 0.68
9 -11 14 1.83 0.57
10 -11 14 5.45 0.77
-10 -10 14 0.08 0.6
-10 -10 14 0.44 0.39
-10 -10 14 0.04 0.4
-9 -10 14 -0.07 0.45
-9 -10 14 0 0.65
-9 -10 14 0.1 0.41
-8 -10 14 1.94 0.55
-8 -10 14 3.35 0.54
-8 -10 14 3.17 0.79
-7 -10 14 0.63 0.49
-7 -10 14 0.41 0.47
-7 -10 14 1.22 0.72
-7 -10 14 0.55 0.71
-6 -10 14 0.08 0.47
-6 -10 14 1.59 0.73
-6 -10 14 2.19 0.68
-6 -10 14 1.51 0.5
-5 -10 14 5.47 0.68
-5 -10 14 7 0.71
-5 -10 14 5.24 0.92
-5 -10 14 6.35 0.9
-4 -10 14 0.5 0.66
-4 -10 14 -0.18 0.44
-4 -10 14 -0.18 0.37
-4 -10 14 -0.26 0.6
-3 -10 14 0.46 0.34
-3 -10 14 1 0.59
-3 -10 14 1.11 0.42
-3 -10 14 0.48 0.71
-3 -10 14 0.7 0.64
-3 -10 14 0.12 0.75
-2 -10 14 0.22 0.34
-2 -10 14 1.49 0.69
-2 -10 14 0.38 0.66
-2 -10 14 1.05 0.57
-2 -10 14 0.63 0.79
-2 -10 14 0.03 0.38
1 10 -14 13.18 1.31
-1 -10 14 11.46 0.99
-1 -10 14 10.28 0.98
-1 -10 14 11.78 1.51
-1 -10 14 11.74 1.21
-1 -10 14 11.69 1.27
-1 -10 14 10.21 1.56
0 10 -14 1.12 0.72
0 -10 14 1.72 0.4
0 -10 14 1.79 0.36
0 -10 14 1.82 0.7
0 -10 14 1.89 0.68
0 -10 14 1.87 0.79
0 -10 14 1.48 0.5
-1 10 -14 9.02 1.07
1 -10 14 8.09 1.04
1 -10 14 8.27 1.17
1 -10 14 7.66 0.83
1 -10 14 9.67 1.32
1 -10 14 9.14 1.12
-2 10 -14 2.5 0.72
2 -10 14 2.54 0.61
2 -10 14 2.75 0.71
2 -10 14 2.89 0.41
2 -10 14 2.61 0.79
2 -10 14 3.1 0.76
-3 10 -14 0.3 0.62
3 -10 14 0.6 0.6
3 -10 14 1.06 0.73
3 -10 14 0.6 0.69
3 -10 14 0.9 0.3
3 -10 14 -0.03 0.53
4 -10 14 0.98 0.76
4 -10 14 0.59 0.55
4 -10 14 0.47 0.58
4 -10 14 0.84 0.75
5 -10 14 2.21 0.57
5 -10 14 1.31 0.78
5 -10 14 0.4 0.8
6 -10 14 2.24 0.58
6 -10 14 1.06 0.8
7 -10 14 10.86 1.44
7 -10 14 10.33 1.32
8 -10 14 1.63 0.6
8 -10 14 1.42 0.86
9 -10 14 3.75 0.73
10 -10 14 -0.43 0.46
-10 -9 14 1.31 0.64
-10 -9 14 -0.04 0.46
-9 -9 14 3.27 0.52
-9 -9 14 2.55 0.75
-9 -9 14 2.35 0.58
-8 -9 14 15.41 1.61
-8 -9 14 13.09 1.36
-8 -9 14 16.06 1.3
-7 -9 14 3.05 0.55
-7 -9 14 2.8 0.57
-7 -9 14 2.36 0.78
-6 -9 14 2.86 0.54
-6 -9 14 2.41 0.72
-6 -9 14 1.81 0.51
-6 -9 14 2.94 0.73
-5 -9 14 -0.09 0.61
-5 -9 14 0.09 0.42
-5 -9 14 0.61 0.63
-5 -9 14 0.4 0.45
-4 -9 14 1.25 0.45
-4 -9 14 3.54 0.75
-4 -9 14 3.39 0.48
-3 -9 14 1.13 0.59
-3 -9 14 0.61 0.7
-3 -9 14 0.45 0.67
-3 -9 14 1.49 0.36
-3 -9 14 1.23 0.42
-3 -9 14 -1.12 0.72
2 9 -14 3.12 0.79
-2 -9 14 1.01 0.72
-2 -9 14 0.52 0.38
-2 -9 14 0.89 0.67
-2 -9 14 0.83 0.36
-2 -9 14 0.99 0.55
-2 -9 14 -0.11 0.69
1 9 -14 7.2 0.96
-1 -9 14 9.32 1.19
-1 -9 14 7.9 1.09
-1 -9 14 5.06 0.62
-1 -9 14 4.96 0.63
-1 -9 14 6.9 0.88
-1 -9 14 9.62 0.93
0 9 -14 0.64 0.67
0 -9 14 -0.23 0.35
0 -9 14 1.41 0.73
0 -9 14 0.5 0.48
0 -9 14 0.15 0.65
0 -9 14 -0.56 0.31
0 -9 14 0.13 0.54
-1 9 -14 13.43 1.5
1 -9 14 14.42 1.86
1 -9 14 14.85 1.47
1 -9 14 13.84 1.2
1 -9 14 15.03 1.72
1 -9 14 15.65 1.18
-2 9 -14 1 0.64
2 -9 14 0.5 0.38
2 -9 14 0.2 0.66
2 -9 14 0.42 0.51
2 -9 14 0.66 0.58
2 -9 14 1.21 0.7
2 -9 14 0.17 0.32
3 -9 14 -0.2 0.66
3 -9 14 0.2 0.3
3 -9 14 0.12 0.72
3 -9 14 -0.38 0.53
3 -9 14 0.51 0.6
4 -9 14 10.99 1.23
4 -9 14 11.84 1.44
4 -9 14 10.6 1.33
4 -9 14 10.29 1.59
5 -9 14 -0.58 0.72
5 -9 14 -0.33 0.48
5 -9 14 0.06 0.57
5 -9 14 -0.28 0.67
6 -9 14 4.18 0.72
6 -9 14 4.13 0.96
7 -9 14 0.99 0.81
7 -9 14 0.86 0.55
8 -9 14 12.7 1.49
9 -9 14 1.76 0.82
9 -9 14 1.91 0.61
10 -9 14 2.68 0.58
-11 -8 14 0.06 0.53
-11 -8 14 0.67 0.44
-10 -8 14 1.87 0.67
-10 -8 14 1.71 0.53
-9 -8 14 2.87 0.51
-9 -8 14 2.24 0.58
-9 -8 14 3.32 0.75
-8 -8 14 0.67 0.52
-8 -8 14 0.56 0.46
-8 -8 14 0.35 0.67
-7 -8 14 1.56 0.69
-7 -8 14 -0.59 0.5
-7 -8 14 0.13 0.42
-6 -8 14 0.86 0.49
-6 -8 14 0.18 0.43
-6 -8 14 1.05 0.64
-5 -8 14 4.36 0.62
-5 -8 14 4.81 0.79
-5 -8 14 5.1 0.6
-5 -8 14 4.93 0.78
-4 -8 14 0.87 0.42
-4 -8 14 0.58 0.59
-4 -8 14 -0.09 0.62
-4 -8 14 0.62 0.41
3 8 -14 14.05 1.55
-3 -8 14 14.2 1.15
-3 -8 14 16.42 1.17
-3 -8 14 12.5 1.74
-3 -8 14 15.07 1.45
-3 -8 14 11.8 1.57
-3 -8 14 10.85 1.36
2 8 -14 2.43 0.79
-2 -8 14 1.92 0.39
-2 -8 14 3.12 0.74
-2 -8 14 0.58 0.37
-2 -8 14 1.39 0.75
-2 -8 14 2.39 0.66
1 8 -14 0.75 0.69
-1 -8 14 1.11 0.69
-1 -8 14 0.15 0.36
-1 -8 14 1.7 0.64
-1 -8 14 0.72 0.71
-1 -8 14 0.06 0.34
0 8 -14 10.28 1.17
0 -8 14 11.35 0.92
0 -8 14 10.67 1.32
0 -8 14 10.81 1.48
0 -8 14 8.55 0.92
0 -8 14 8.68 1.09
-1 8 -14 5.02 0.84
1 -8 14 3.51 0.74
1 -8 14 4.99 0.58
1 -8 14 4.55 0.91
1 -8 14 5.18 0.9
1 -8 14 4.38 0.51
2 -8 14 3.91 0.71
2 -8 14 4.45 0.89
2 -8 14 4.45 0.49
2 -8 14 3.81 0.85
3 -8 14 2.64 0.64
3 -8 14 2 0.74
3 -8 14 3.71 0.81
4 -8 14 0.48 0.71
4 -8 14 -0.24 0.72
4 -8 14 -0.17 0.53
4 -8 14 0.65 0.51
5 -8 14 2.48 0.63
5 -8 14 1.75 0.34
5 -8 14 1.97 0.83
5 -8 14 3.25 0.58
6 -8 14 19.23 1.89
6 -8 14 15.48 1.13
6 -8 14 13.67 1.67
7 -8 14 0.02 0.52
7 -8 14 -0.22 0.75
8 -8 14 1.17 0.58
8 -8 14 0.68 0.78
9 -8 14 3.4 0.71
9 -8 14 3.23 0.92
10 -8 14 2.7 0.57
-11 -7 14 1.32 0.55
-11 -7 14 1.36 0.49
-10 -7 14 3.79 0.74
-10 -7 14 3.19 0.61
-9 -7 14 15.61 1.67
-9 -7 14 16.47 1.46
-8 -7 14 0.56 0.53
-8 -7 14 0.27 0.65
-8 -7 14 0.5 0.46
-7 -7 14 9.36 0.95
-7 -7 14 10.32 0.9
-7 -7 14 8.87 1.1
-6 -7 14 0.84 0.42
-6 -7 14 0.28 0.62
-6 -7 14 0.17 0.48
-5 -7 14 1.93 0.5
-5 -7 14 2.77 0.63
-5 -7 14 2.53 0.63
-5 -7 14 2.61 0.47
-4 -7 14 1.3 0.65
-4 -7 14 1.51 0.57
-4 -7 14 1.72 0.45
-4 -7 14 1.22 0.43
3 7 -14 7.1 1.01
-3 -7 14 5.96 0.62
-3 -7 14 5.87 0.61
-3 -7 14 4.79 0.89
-3 -7 14 5.42 0.85
2 7 -14 16.8 1.61
-2 -7 14 14.06 1.67
-2 -7 14 13.53 1.21
-2 -7 14 15.36 1.22
-2 -7 14 15.76 1.5
1 7 -14 14.26 1.36
-1 -7 14 12.89 1.04
-1 -7 14 11.25 1.22
-1 -7 14 11.68 1.42
-1 -7 14 9.78 1.03
0 7 -14 -0.29 0.68
0 -7 14 -0.06 0.7
0 -7 14 0.09 0.56
0 -7 14 0.43 0.78
1 -7 14 4.7 0.87
1 -7 14 4.96 0.73
1 -7 14 2.77 0.46
1 -7 14 4.94 0.89
2 -7 14 12.03 1.08
2 -7 14 13.51 1.55
2 -7 14 12.28 1.34
2 -7 14 14.04 1.76
3 -7 14 0.88 0.68
3 -7 14 0.38 0.31
3 -7 14 -0.29 0.54
3 -7 14 0.96 0.74
4 -7 14 2.72 0.66
4 -7 14 3.57 0.65
4 -7 14 2.67 0.76
5 -7 14 7.52 0.59
5 -7 14 6.8 0.89
5 -7 14 4.67 0.84
5 -7 14 8.32 1.15
6 -7 14 1.98 0.32
6 -7 14 2.02 0.79
6 -7 14 1.15 0.52
7 -7 14 0.73 0.3
7 -7 14 1.34 0.53
7 -7 14 1.72 0.84
8 -7 14 6 1.1
8 -7 14 4.12 0.78
9 -7 14 1.15 0.76
9 -7 14 1.81 0.6
10 -7 14 1.14 0.48
-11 -6 14 0.11 0.52
-11 -6 14 0.3 0.48
-10 -6 14 2.21 0.59
-10 -6 14 1.89 0.65
-9 -6 14 16.98 1.86
-9 -6 14 21.34 1.65
-8 -6 14 0.74 0.57
-8 -6 14 1.22 0.65
-8 -6 14 0.64 0.47
-7 -6 14 -0.21 0.43
-7 -6 14 -0.52 0.61
-7 -6 14 -0.29 0.52
-6 -6 14 2.35 0.66
-6 -6 14 2.14 0.48
-6 -6 14 2.92 0.55
-5 -6 14 5.1 0.73
-5 -6 14 4.89 0.76
-5 -6 14 4.07 0.61
-5 -6 14 5.18 0.59
-4 -6 14 4.5 0.56
-4 -6 14 3.93 0.58
-4 -6 14 4.32 0.74
3 6 -14 4.16 0.89
-3 -6 14 3.41 0.71
-3 -6 14 2.61 0.47
-3 -6 14 3.01 0.48
2 6 -14 3.43 0.82
-2 -6 14 2.39 0.93
-2 -6 14 3.96 0.77
-2 -6 14 3.53 0.75
-2 -6 14 2.74 0.45
-2 -6 14 3.54 0.47
1 6 -14 7.41 0.98
-1 -6 14 5.77 0.89
-1 -6 14 6.26 1.25
-1 -6 14 9.94 1.13
0 6 -14 28.6 2.54
0 -6 14 26.69 3.8
0 -6 14 31.69 2.86
0 -6 14 26.75 2.46
1 -6 14 13.19 1.6
1 -6 14 13.37 2.21
1 -6 14 13.46 1.37
1 -6 14 13.89 1.86
2 -6 14 0.86 0.34
2 -6 14 1.08 0.57
2 -6 14 2.13 0.76
2 -6 14 0.53 0.72
2 -6 14 1.3 0.7
3 -6 14 1.85 0.58
3 -6 14 1.73 0.72
3 -6 14 0.87 0.35
3 -6 14 1.14 0.7
4 -6 14 -0.71 0.51
4 -6 14 -0.04 0.3
4 -6 14 0.47 0.67
4 -6 14 0.57 0.49
5 -6 14 2.94 0.57
5 -6 14 1.46 0.6
5 -6 14 3.38 0.39
5 -6 14 2.69 0.84
6 -6 14 0.4 0.26
6 -6 14 0 0.45
6 -6 14 0.35 0.82
6 -6 14 0.69 0.57
7 -6 14 0.45 0.52
7 -6 14 0.81 0.79
7 -6 14 0.03 0.28
8 -6 14 18.26 2
8 -6 14 18.72 1.35
8 -6 14 20.37 2.19
9 -6 14 0.84 0.52
9 -6 14 0.64 0.75
-11 -5 14 0.8 0.5
-10 -5 14 0.13 0.54
-9 -5 14 3.53 0.72
-9 -5 14 2.52 0.65
-8 -5 14 0.34 0.57
-8 -5 14 0 0.64
-7 -5 14 1.44 0.6
-7 -5 14 1.36 0.54
-7 -5 14 0.93 0.44
-6 -5 14 4.97 0.59
-6 -5 14 4.5 0.64
-6 -5 14 3.99 0.72
-5 -5 14 0.85 0.53
-5 -5 14 0.08 0.44
-5 -5 14 0.87 0.41
4 5 -14 33.59 3.02
-4 -5 14 39.29 2.6
-4 -5 14 32.3 2.59
-4 -5 14 32.96 2.92
3 5 -14 0.82 0.68
-3 -5 14 0.56 0.36
-3 -5 14 -0.32 0.75
-3 -5 14 0.37 0.39
-3 -5 14 0.78 0.6
2 5 -14 4.84 0.85
-2 -5 14 3.35 0.49
-2 -5 14 4.52 0.73
-2 -5 14 4.36 0.51
-2 -5 14 3.38 0.95
1 5 -14 2.43 0.76
-1 -5 14 2.46 0.86
-1 -5 14 1.77 0.67
-1 -5 14 3.21 0.72
0 -5 14 6.66 0.85
0 -5 14 5.14 1.15
0 -5 14 7.83 0.98
1 -5 14 0.97 0.74
1 -5 14 1.13 0.6
1 -5 14 1.28 0.68
2 -5 14 8.66 1.57
2 -5 14 11.23 1.2
2 -5 14 11.24 1.37
2 -5 14 11.84 0.94
3 -5 14 3.77 0.69
3 -5 14 3.18 0.43
3 -5 14 2.8 0.81
3 -5 14 2.5 0.78
5 -5 14 7.67 1.11
5 -5 14 5.24 0.79
5 -5 14 4.86 0.83
5 -5 14 6.81 0.55
6 -5 14 0.44 0.28
6 -5 14 1.08 0.46
6 -5 14 0.61 0.6
6 -5 14 0.83 0.84
7 -5 14 17.94 1.89
7 -5 14 11.88 1.59
7 -5 14 16.19 1.11
8 -5 14 -0.18 0.26
8 -5 14 0.01 0.85
9 -5 14 3.25 1
-11 -4 14 -0.14 0.51
-10 -4 14 2.17 0.6
-9 -4 14 4.94 0.75
-8 -4 14 2.64 0.64
-7 -4 14 -0.13 0.51
-6 -4 14 4.42 0.57
-6 -4 14 5.07 0.66
-5 -4 14 0.39 0.4
-5 -4 14 0.3 0.44
4 4 -14 0.13 0.68
-4 -4 14 0 0.38
-4 -4 14 -0.17 0.7
-4 -4 14 0.02 0.53
-4 -4 14 -0.02 0.41
3 4 -14 0.72 0.68
-3 -4 14 -0.47 0.56
-3 -4 14 0.08 0.71
-3 -4 14 0.07 0.39
-3 -4 14 0.47 0.36
2 4 -14 19.52 1.92
-2 -4 14 19.51 2.86
-2 -4 14 21.41 1.86
-2 -4 14 22 1.58
-2 -4 14 18.87 1.61
1 4 -14 3.36 0.82
-1 -4 14 4.17 0.72
-1 -4 14 3.79 0.92
-1 -4 14 4.42 0.77
0 -4 14 -0.17 0.68
0 -4 14 -0.72 0.58
0 -4 14 0.86 0.6
1 -4 14 2.55 0.84
1 -4 14 2.82 0.72
1 -4 14 3.04 0.69
2 -4 14 13.65 1.6
2 -4 14 13.44 1.39
2 -4 14 13.65 2.14
3 -4 14 0.08 0.61
3 -4 14 -0.4 0.31
3 -4 14 0.4 0.57
3 -4 14 0.26 0.69
4 -4 14 0.32 0.62
4 -4 14 0.09 0.3
4 -4 14 -0.25 0.55
4 -4 14 0.53 0.73
5 -4 14 29.27 2.82
5 -4 14 27.07 2.4
5 -4 14 26.44 1.9
6 -4 14 3.58 0.42
6 -4 14 3.73 0.74
6 -4 14 4.25 0.96
7 -4 14 0.62 0.82
7 -4 14 0.59 0.3
8 -4 14 8.13 1.29
8 -4 14 5.87 0.56
9 -4 14 1.62 0.91
-11 -3 14 4.22 0.66
-10 -3 14 5.3 0.74
-9 -3 14 -0.44 0.56
-8 -3 14 9.33 0.97
-7 -3 14 0.77 0.53
-6 -3 14 25.94 2.12
-6 -3 14 29.34 2.16
-5 -3 14 17.54 1.44
-5 -3 14 15.38 2.47
-5 -3 14 17.18 1.4
-4 -3 14 5.74 0.86
-4 -3 14 6.69 0.7
-4 -3 14 6.6 0.69
3 3 -14 15.49 1.74
-3 -3 14 18.39 2.59
-3 -3 14 17.52 1.45
-3 -3 14 19.99 1.43
-3 -3 14 16.67 1.65
2 3 -14 4.13 0.8
-2 -3 14 3.28 0.48
-2 -3 14 4.19 0.7
-2 -3 14 2.7 0.9
-2 -3 14 3.99 0.48
1 3 -14 0.52 0.7
-1 -3 14 0.79 0.62
-1 -3 14 0.73 0.73
0 -3 14 6.2 0.84
0 -3 14 4.71 1.08
0 -3 14 6.5 0.89
1 -3 14 0.25 0.58
1 -3 14 1.2 0.65
1 -3 14 0.77 0.71
2 -3 14 0.98 0.67
2 -3 14 0.5 0.68
2 -3 14 0.98 0.57
2 -3 14 0.19 0.34
3 -3 14 0.42 0.34
3 -3 14 1.85 0.68
3 -3 14 1.57 0.71
3 -3 14 1.69 0.58
4 -3 14 35.22 2.59
4 -3 14 33.89 2.38
4 -3 14 36.47 4.49
4 -3 14 34.47 3.45
4 -3 14 35.09 2.96
5 -3 14 3.67 0.85
5 -3 14 1.53 0.35
5 -3 14 2.88 0.67
6 -3 14 15.79 1.62
6 -3 14 17.5 1.92
6 -3 14 14.95 1.19
7 -3 14 -0.48 0.64
7 -3 14 0.93 0.84
7 -3 14 -0.26 0.29
8 -3 14 0.51 0.84
9 -3 14 2.58 1.03
-11 -2 14 -0.09 0.52
-10 -2 14 5.66 0.76
-9 -2 14 0.85 0.59
-8 -2 14 -0.93 0.55
7 2 -14 2.73 1.05
-7 -2 14 4.91 0.68
6 2 -14 0.4 0.82
-6 -2 14 0.28 0.48
5 2 -14 -0.05 0.74
-5 -2 14 0.43 0.68
-5 -2 14 1.19 0.47
-5 -2 14 0.1 0.38
4 2 -14 26.27 2.81
4 2 -14 21.59 2.38
-4 -2 14 29.24 3.62
-4 -2 14 27.57 2.06
-4 -2 14 29.96 2.08
3 2 -14 14.07 1.39
3 2 -14 13.78 1.54
-3 -2 14 11.89 1.12
-3 -2 14 11.41 1.3
-3 -2 14 14.51 1.13
-3 -2 14 13.43 2.13
2 2 -14 18.03 1.9
-2 -2 14 19.76 1.59
-2 -2 14 19.39 1.83
-2 -2 14 21.25 2.86
-2 -2 14 22.39 1.57
-1 -2 14 1.43 0.42
-1 -2 14 1.31 0.74
-1 -2 14 1.25 0.6
0 -2 14 3.67 0.69
0 -2 14 3.35 0.72
0 -2 14 2.88 0.85
1 -2 14 6.73 0.94
1 -2 14 7.01 0.85
1 -2 14 4.8 1.08
2 -2 14 5.06 1.02
2 -2 14 7.08 0.9
2 -2 14 6.65 0.79
2 -2 14 3.99 0.54
3 -2 14 1.61 0.59
3 -2 14 1.29 0.69
3 -2 14 0.56 0.33
3 -2 14 0.96 0.68
4 -2 14 2.21 0.69
4 -2 14 0.58 0.3
4 -2 14 1.34 0.6
4 -2 14 1.92 0.71
5 -2 14 8.41 0.97
5 -2 14 7.55 1.1
5 -2 14 5.65 0.58
6 -2 14 15.14 1.14
6 -2 14 15.05 1.86
6 -2 14 14.03 1.57
7 -2 14 3.42 0.43
7 -2 14 3.98 0.96
7 -2 14 2.67 0.8
8 -2 14 1.46 0.91
9 -2 14 2.88 0.95
-11 -1 14 0.39 0.54
-10 -1 14 -0.35 0.54
-9 -1 14 1.73 0.62
8 1 -14 -0.27 0.91
-8 -1 14 -0.17 0.57
7 1 -14 -0.1 0.88
-7 -1 14 -0.8 0.52
6 1 -14 1.33 0.89
-6 -1 14 2.17 0.53
5 1 -14 0.28 0.82
-5 -1 14 0.22 0.37
-5 -1 14 -0.3 0.43
-5 -1 14 -0.2 0.71
4 1 -14 -0.16 0.59
4 1 -14 0.63 0.74
-4 -1 14 0.61 0.72
-4 -1 14 1.31 0.42
-4 -1 14 0.72 0.38
3 1 -14 4.16 0.82
3 1 -14 3.55 0.76
-3 -1 14 3.38 0.49
-3 -1 14 4.56 0.67
-3 -1 14 3.64 0.91
-3 -1 14 3.37 0.47
2 1 -14 5.75 0.84
2 1 -14 5.45 0.82
-2 -1 14 4.12 0.98
-2 -1 14 6 0.76
-2 -1 14 4.09 0.53
1 1 -14 1.62 0.63
-1 -1 14 2.1 0.61
-1 -1 14 2.37 0.82
-1 -1 14 1.93 0.41
0 -1 14 -0.03 0.68
0 -1 14 0.14 0.57
1 -1 14 1.53 0.36
1 -1 14 1.6 0.67
1 -1 14 1.43 0.75
2 -1 14 14.29 2.11
2 -1 14 12.62 1.54
2 -1 14 13.23 1.11
3 -1 14 3.72 0.42
3 -1 14 4.18 0.83
3 -1 14 3.32 0.45
3 -1 14 3.26 0.87
4 -1 14 1.55 0.8
4 -1 14 0.37 0.29
4 -1 14 0.54 0.68
5 -1 14 0.76 0.32
5 -1 14 0.33 0.79
6 -1 14 -0.31 0.8
6 -1 14 0.4 0.31
7 -1 14 1.23 0.92
7 -1 14 0.57 0.32
7 -1 14 0.93 0.75
8 -1 14 3.88 1.07
9 -1 14 0.53 0.86
-11 0 14 0.39 0.51
-10 0 14 1.76 0.61
-9 0 14 0.59 0.6
8 0 -14 1.31 1.02
-8 0 14 2.17 0.62
7 0 -14 0.77 0.96
-7 0 14 1.42 0.56
6 0 -14 1.92 0.93
-6 0 14 2.51 0.55
5 0 -14 1.34 0.88
-5 0 14 3.09 0.87
-5 0 14 2.41 0.51
4 0 -14 1.99 0.83
-4 0 14 3.01 0.47
-4 0 14 2.95 0.84
3 0 -14 4.89 0.88
3 0 -14 3.76 0.76
-3 0 14 3.89 0.49
-3 0 14 5.28 0.7
-3 0 14 3.41 0.92
2 0 -14 3.29 0.73
2 0 -14 3.63 0.79
-2 0 14 4.35 0.67
-2 0 14 3.78 0.47
-2 0 14 3.1 0.87
1 0 -14 -0.2 0.6
-1 0 14 0.67 0.72
-1 0 14 0.05 0.34
-1 0 14 0.62 0.55
0 0 -14 18.26 2.12
0 0 14 19.79 1.53
0 0 14 20.55 2.76
1 0 14 0.18 0.73
1 0 14 0.04 0.32
2 0 14 0.89 0.71
2 0 14 0.44 0.29
2 0 14 0.14 0.62
2 0 14 0.49 0.33
3 0 14 -0.05 0.68
3 0 14 0.59 0.71
3 0 14 -0.25 0.32
3 0 14 0.08 0.3
4 0 14 1.89 0.81
4 0 14 2.44 0.38
4 0 14 2.87 0.84
5 0 14 1.67 0.37
5 0 14 3.35 0.91
6 0 14 7.22 1.12
6 0 14 4.78 0.53
7 0 14 0.25 0.9
8 0 14 0.42 0.92
9 0 14 0.63 0.88
-10 1 14 0.84 0.54
-9 1 14 1.99 0.62
-8 1 14 0.93 0.58
7 -1 -14 0.4 0.95
-7 1 14 1.63 0.55
6 -1 -14 1.59 0.98
-6 1 14 1.91 0.52
5 -1 -14 3.62 1
-5 1 14 4.06 0.56
-5 1 14 4.3 0.96
4 -1 -14 1.24 0.79
-4 1 14 0.71 0.38
-4 1 14 0.5 0.7
3 -1 -14 -0.44 0.69
-3 1 14 0.67 0.67
-3 1 14 0.3 0.35
2 -1 -14 1.63 0.7
2 -1 -14 0.5 0.61
-2 1 14 1.78 0.4
-2 1 14 1.87 0.55
-2 1 14 1.17 0.72
1 -1 -14 1.6 0.7
-1 1 14 1.58 0.38
-1 1 14 1.38 0.79
0 -1 -14 4.48 0.84
0 1 14 3.95 0.49
0 1 14 3.73 0.93
1 1 14 0.56 0.77
1 1 14 1.36 0.36
1 1 14 0.77 0.3
2 1 14 0.95 0.72
2 1 14 1.26 0.69
2 1 14 1.23 0.31
2 1 14 0.75 0.34
3 1 14 1.08 0.32
3 1 14 1.71 0.76
3 1 14 1.57 0.36
3 1 14 0.09 0.74
4 1 14 0 0.31
4 1 14 1.04 0.8
4 1 14 -0.13 0.69
5 1 14 1.85 0.85
5 1 14 0.95 0.35
6 1 14 -0.01 0.34
6 1 14 -0.39 0.78
7 1 14 -0.97 0.86
8 1 14 0.91 0.9
9 1 14 11.48 1.65
-10 2 14 1.47 0.53
-9 2 14 0.76 0.54
-8 2 14 4.32 0.67
7 -2 -14 2.33 0.98
-7 2 14 3.05 0.6
6 -2 -14 -0.46 0.89
-6 2 14 1.59 0.49
5 -2 -14 1.52 0.88
-5 2 14 0.52 0.73
-5 2 14 0.62 0.41
4 -2 -14 0.57 0.78
-4 2 14 0.01 0.69
3 -2 -14 1.74 0.8
-3 2 14 0.25 0.69
2 -2 -14 7.89 1.16
-2 2 14 6.71 1.28
-2 2 14 9.14 0.93
1 -2 -14 2.34 0.79
-1 2 14 1.58 0.78
0 -2 -14 -0.48 0.69
0 2 14 0.2 0.73
0 2 14 -0.13 0.27
-1 -2 -14 3.59 0.91
1 2 14 3.6 0.41
1 2 14 4.24 0.95
2 2 14 2.46 0.35
2 2 14 1.98 0.41
2 2 14 2.15 0.82
3 2 14 1.8 0.85
3 2 14 2.71 0.82
3 2 14 1.92 0.36
4 2 14 1.26 0.81
4 2 14 0.84 0.32
4 2 14 -0.62 0.71
5 2 14 13.98 1.01
5 2 14 9.83 1.79
5 2 14 14.05 1.7
6 2 14 2.53 0.91
7 2 14 9.88 1.45
8 2 14 2.9 1
-10 -2 -14 12.96 1.29
10 -3 -14 1.37 0.71
7 -3 -14 1.93 1
6 -3 -14 4.55 1.06
5 -3 -14 4.47 0.99
4 -3 -14 3.2 0.85
-4 3 14 1.42 0.8
3 -3 -14 2.81 0.84
-3 3 14 1.7 0.77
2 -3 -14 0.51 0.75
-2 3 14 -0.61 0.5
-2 3 14 -0.04 0.68
1 -3 -14 6.28 1.01
-1 3 14 3.71 0.99
0 -3 -14 12.99 1.51
0 3 14 10.67 1.76
-1 -3 -14 4.95 1
1 3 14 4.46 0.44
1 3 14 3.15 1
2 3 14 1.2 0.85
2 3 14 1.36 0.33
3 3 14 -0.31 0.78
3 3 14 0.55 0.76
3 3 14 0.6 0.31
4 3 14 1.5 0.34
4 3 14 2.06 0.86
4 3 14 -0.18 0.78
5 3 14 1.04 0.85
5 3 14 -1.61 0.76
6 3 14 7.12 1.22
7 3 14 1.87 0.86
8 3 14 2.82 0.96
9 -4 -14 10.63 1.51
8 -4 -14 1.52 0.82
6 -4 -14 3.5 1.03
5 -4 -14 4.84 1.01
4 -4 -14 1.66 0.81
-4 4 14 -0.38 0.7
3 -4 -14 2.1 0.86
-3 4 14 0.22 0.73
2 -4 -14 -0.12 0.77
-2 4 14 -0.3 0.72
1 -4 -14 1.66 0.85
-1 4 14 1.5 0.88
0 -4 -14 0.38 0.81
0 4 14 -0.72 0.75
-1 -4 -14 4.89 1.06
1 4 14 4.4 1.1
2 4 14 -0.43 0.8
2 4 14 0.11 0.28
3 4 14 -0.16 0.81
3 4 14 1.47 0.33
4 4 14 -1.83 0.76
4 4 14 -0.51 0.83
5 4 14 -1.54 0.81
5 4 14 1.72 0.89
6 4 14 6.37 1.18
7 4 14 7.72 1.25
9 -5 -14 0.43 0.68
8 -5 -14 8.97 1.31
7 -5 -14 4.39 0.97
6 -5 -14 0.18 0.72
5 -5 -14 0.81 0.84
5 -5 -14 0.5 0.71
4 -5 -14 1.7 0.86
4 -5 -14 2.61 0.73
3 -5 -14 0.97 0.82
-3 5 14 -0.24 0.72
2 -5 -14 1.49 0.84
-2 5 14 0.51 0.74
1 -5 -14 -0.09 0.8
-1 5 14 0.11 0.77
0 -5 -14 1.7 0.88
0 5 14 0.16 0.85
-1 -5 -14 1.07 0.87
1 5 14 -1.36 0.82
2 5 14 -0.68 0.86
3 5 14 -1.76 0.82
4 5 14 -2.09 0.83
5 5 14 -1.65 0.81
5 5 14 3.67 0.92
6 5 14 0.37 0.84
7 5 14 1.71 0.87
8 -6 -14 0.59 0.67
7 -6 -14 1.18 0.72
6 -6 -14 0.29 0.68
5 -6 -14 8.88 1.24
4 -6 -14 1.07 0.84
4 -6 -14 1.65 0.64
-4 6 14 -0.69 0.7
3 -6 -14 0.59 0.85
-3 6 14 -0.15 0.73
2 -6 -14 0.58 0.83
-2 6 14 -1.16 0.71
1 -6 -14 0.6 0.84
-1 6 14 -0.61 0.78
0 -6 -14 -0.04 0.85
0 6 14 -0.34 0.8
-1 -6 -14 8.92 1.23
1 6 14 3.89 1.19
2 6 14 -0.5 0.87
3 6 14 -1.93 0.84
-4 -6 -14 0.53 0.66
4 6 14 -1.94 0.83
-5 -6 -14 1.54 0.74
-6 -6 -14 0.58 0.65
6 6 14 0.45 0.82
8 -7 -14 0.88 0.63
7 -7 -14 2.63 0.72
6 -7 -14 2.56 0.74
5 -7 -14 -0.06 0.6
4 -7 -14 0.38 0.59
3 -7 -14 0.22 0.85
-3 7 14 -1.58 0.7
2 -7 -14 -0.02 0.83
-2 7 14 -0.79 0.79
1 -7 -14 0.24 0.83
-1 7 14 -1.56 0.81
0 -7 -14 8.77 1.28
0 7 14 5.49 1.34
-1 -7 -14 1.92 0.95
1 7 14 0.42 0.89
2 7 14 -1.35 0.94
-3 -7 -14 0.69 0.75
-4 -7 -14 0.2 0.7
-5 -7 -14 0.17 0.73
-6 -7 -14 3.75 0.88
-7 -7 -14 0.49 0.61
7 -8 -14 1.3 0.63
6 -8 -14 -0.08 0.56
5 -8 -14 0.93 0.59
4 -8 -14 0.45 0.55
-3 8 14 -0.94 0.74
-2 8 14 -2.07 0.74
-1 8 14 1.49 0.87
0 8 14 -1.41 0.82
1 8 14 10.16 1.74
-2 -8 -14 0.08 0.78
-2 -8 -14 0.67 0.72
2 8 14 -2.37 0.83
-3 -8 -14 3.35 0.92
-4 -8 -14 2.65 0.84
-5 -8 -14 1.01 0.71
-6 -8 -14 0.52 0.64
6 -9 -14 -0.42 0.46
5 -9 -14 0.15 0.46
3 -9 -14 0.68 0.42
2 -9 -14 1.21 0.57
1 -9 -14 2.49 0.71
0 -9 -14 9.84 1.39
-1 -9 -14 0.64 0.73
-1 -9 -14 0.12 0.67
-2 -9 -14 -0.12 0.74
-2 -9 -14 0.71 0.68
-3 -9 -14 1.95 0.77
-4 -9 -14 -0.03 0.68
-5 -9 -14 1.14 0.63
1 -10 -14 0.93 0.46
0 -10 -14 0.48 0.54
-1 -10 -14 2.81 0.69
-1 -10 -14 2.15 0.68
-2 -10 -14 0.82 0.57
-2 -10 -14 0.81 0.6
-3 -10 -14 -0.2 0.57
-4 -10 -14 0.92 0.6
0 -11 -14 0.07 0.59
-1 -11 -14 0.07 0.55
-1 -11 -14 0.81 0.44
-2 -11 -14 0.82 0.58
-2 -11 -14 0.31 0.48
-2 -19 15 0.24 0.73
-1 -19 15 1.94 0.8
0 -19 15 0.34 0.76
1 -19 15 2.29 0.82
2 -19 15 1.65 0.83
-4 -18 15 2.2 0.54
-4 -18 15 0.7 0.76
-4 -18 15 2.23 0.45
-3 -18 15 2.05 0.44
-3 -18 15 0.33 0.78
-2 -18 15 2.11 0.45
-2 -18 15 2.16 0.83
-1 -18 15 6.94 1.16
0 -18 15 0.86 0.8
1 -18 15 8.46 1.3
2 -18 15 1.55 0.55
2 -18 15 1.33 0.83
3 -18 15 1.11 0.79
3 -18 15 0.65 0.55
4 -18 15 0.93 0.54
4 -18 15 -0.55 0.75
-5 -17 15 1.69 0.56
-5 -17 15 2.23 0.48
-4 -17 15 2.46 0.51
-4 -17 15 2.09 0.84
-4 -17 15 2.55 0.62
-3 -17 15 1.1 0.48
-3 -17 15 3.84 0.61
-3 -17 15 1.76 0.84
-2 -17 15 4.3 0.72
-2 -17 15 5.31 0.6
-2 -17 15 4.23 0.94
-2 -17 15 5.78 1.04
-1 -17 15 1.96 0.85
-1 -17 15 0.99 0.75
0 -17 15 1.4 0.6
0 -17 15 1.35 0.74
0 -17 15 2.4 0.88
1 -17 15 0.47 0.71
1 -17 15 0.59 0.53
1 -17 15 1.73 0.86
2 -17 15 5.9 0.85
2 -17 15 6.36 1.12
2 -17 15 5.89 1.23
3 -17 15 1.76 0.84
3 -17 15 2.12 0.61
4 -17 15 1.8 0.61
4 -17 15 1.19 0.8
5 -17 15 1.46 0.57
5 -17 15 0.77 0.8
-6 -16 15 -0.26 0.57
-6 -16 15 -0.42 0.45
-5 -16 15 9.91 0.98
-5 -16 15 8.9 1.06
-4 -16 15 0.49 0.47
-4 -16 15 1.82 0.62
-4 -16 15 0.53 0.83
-3 -16 15 3.72 0.72
-3 -16 15 4.82 0.94
-3 -16 15 4.13 0.61
-3 -16 15 4.8 1.02
-2 -16 15 1.33 0.67
-2 -16 15 2.65 0.63
-2 -16 15 3.75 0.85
-2 -16 15 3.25 0.93
-2 -16 15 2.52 0.49
-1 -16 15 5.34 1.05
-1 -16 15 5.29 0.81
-1 -16 15 4.18 0.61
-1 -16 15 5.39 0.93
0 -16 15 0.12 0.69
0 -16 15 0.3 0.6
0 -16 15 1.88 0.88
1 -16 15 8.35 1.26
1 -16 15 9.99 1.34
1 -16 15 6.81 1.03
1 -16 15 7.91 1.08
2 -16 15 -0.22 0.63
2 -16 15 0.29 0.78
2 -16 15 1.04 0.56
2 -16 15 2.47 0.86
3 -16 15 4.89 1.03
3 -16 15 3.57 0.71
3 -16 15 4.53 0.99
4 -16 15 4.37 0.72
4 -16 15 3.36 1.01
4 -16 15 2.68 0.91
5 -16 15 4.76 1.02
5 -16 15 5.69 0.82
6 -16 15 -0.12 0.54
-7 -15 15 1.01 0.48
-7 -15 15 1.39 0.61
-6 -15 15 1.18 0.5
-6 -15 15 -0.03 0.64
-5 -15 15 0.23 0.68
-5 -15 15 0.28 0.5
-4 -15 15 4.62 0.65
-4 -15 15 4.76 0.8
-4 -15 15 4.04 0.88
-4 -15 15 3.3 1
-3 -15 15 0.81 0.65
-3 -15 15 1.57 0.51
-3 -15 15 1.83 0.79
-3 -15 15 2.17 0.64
-3 -15 15 1.65 0.9
-2 -15 15 1.57 0.88
-2 -15 15 0.34 0.6
-2 -15 15 0.31 0.46
-2 -15 15 1.47 0.65
-2 -15 15 0.67 0.77
-1 -15 15 3.94 0.86
-1 -15 15 4.41 0.7
-1 -15 15 3.72 0.97
-1 -15 15 2.73 0.74
-1 -15 15 3.41 0.55
0 -15 15 3.22 0.92
0 -15 15 1.73 0.75
0 -15 15 2.16 0.66
0 -15 15 1.58 0.89
1 -15 15 2.13 0.79
1 -15 15 2.65 0.7
1 -15 15 3.23 0.95
1 -15 15 3.64 0.95
2 -15 15 2.49 0.77
2 -15 15 1.82 0.87
2 -15 15 1.55 0.65
2 -15 15 1.9 0.83
3 -15 15 0.9 0.77
3 -15 15 1.76 0.67
3 -15 15 1.21 0.88
3 -15 15 1.58 0.59
4 -15 15 6.03 1.06
4 -15 15 4.87 1.03
4 -15 15 4.74 0.79
5 -15 15 0.63 0.56
5 -15 15 -0.03 0.74
5 -15 15 -0.09 0.79
6 -15 15 1.46 0.6
7 -15 15 5.34 0.81
-8 -14 15 -0.12 0.57
-8 -14 15 -0.16 0.42
-7 -14 15 4.23 0.76
-7 -14 15 3.64 0.58
-6 -14 15 0.66 0.67
-6 -14 15 0.09 0.49
-5 -14 15 -0.55 0.49
-5 -14 15 -0.8 0.67
-5 -14 15 -0.31 0.7
-4 -14 15 4.51 0.89
-4 -14 15 3.37 0.81
-4 -14 15 4.28 0.63
-4 -14 15 2.11 0.97
-3 -14 15 4.24 0.58
-3 -14 15 2.32 0.73
-3 -14 15 1.99 0.84
-3 -14 15 3.13 0.96
-2 -14 15 4.51 0.9
-2 -14 15 4.34 0.58
-2 -14 15 3.36 0.74
-2 -14 15 4.61 0.99
-2 -14 15 1.6 0.74
-1 -14 15 0.73 0.78
-1 -14 15 0.76 0.63
-1 -14 15 -0.16 0.43
-1 -14 15 0.8 0.58
-1 -14 15 2.07 0.85
-1 -14 15 -0.4 0.8
0 -14 15 2.02 0.91
0 -14 15 1.52 0.47
0 -14 15 2.74 0.89
0 -14 15 1.05 0.64
0 -14 15 1.78 0.79
1 -14 15 0.8 0.75
1 -14 15 1.79 0.87
1 -14 15 1.43 0.86
1 -14 15 1.18 0.63
2 -14 15 2.31 0.84
2 -14 15 3.03 0.71
2 -14 15 2.82 0.91
2 -14 15 0.83 0.76
3 -14 15 0.56 0.58
3 -14 15 1.24 0.86
3 -14 15 1.16 0.69
3 -14 15 0.28 0.85
4 -14 15 2.2 0.93
4 -14 15 2.37 0.64
4 -14 15 2.75 0.9
5 -14 15 -0.34 0.8
5 -14 15 -0.28 0.55
5 -14 15 -0.38 0.75
6 -14 15 0.62 0.56
6 -14 15 1.58 0.84
6 -14 15 1.64 0.78
7 -14 15 4.98 0.78
8 -14 15 -0.08 0.5
-9 -13 15 2.15 0.47
-9 -13 15 2.24 0.61
-8 -13 15 1.47 0.46
-8 -13 15 0.48 0.63
-7 -13 15 0.28 0.49
-7 -13 15 0.74 0.68
-6 -13 15 -0.03 0.68
-6 -13 15 -0.15 0.5
-5 -13 15 1.84 0.77
-5 -13 15 1.23 0.73
-5 -13 15 1.81 0.55
-4 -13 15 -0.14 0.5
-4 -13 15 -0.15 0.69
-4 -13 15 -1.2 0.85
-4 -13 15 -0.67 0.65
-3 -13 15 -0.12 0.46
-3 -13 15 0.48 0.84
-3 -13 15 0.71 0.74
-3 -13 15 -0.72 0.66
-2 -13 15 -0.09 0.84
-2 -13 15 1.57 0.83
-2 -13 15 1.26 0.49
-2 -13 15 0.54 0.74
-2 -13 15 0.77 0.61
-1 -13 15 0.02 0.82
-1 -13 15 0.18 0.41
-1 -13 15 1.47 0.83
-1 -13 15 0.55 0.71
-1 -13 15 0.1 0.62
-1 -13 15 0.52 0.55
0 -13 15 1.47 0.82
0 -13 15 0.39 0.42
0 -13 15 -0.55 0.58
0 -13 15 0.31 0.77
0 -13 15 -0.19 0.68
0 -13 15 -0.02 0.55
1 -13 15 -0.31 0.6
1 -13 15 -0.51 0.8
1 -13 15 0.95 0.81
1 -13 15 -0.55 0.68
2 -13 15 1.09 0.83
2 -13 15 2.64 0.77
2 -13 15 0.65 0.63
2 -13 15 1.93 0.85
3 -13 15 -0.18 0.84
3 -13 15 -0.21 0.68
3 -13 15 1.42 0.84
3 -13 15 1.7 0.6
4 -13 15 1.01 0.84
4 -13 15 0.51 0.77
4 -13 15 0.27 0.56
5 -13 15 1.81 0.84
5 -13 15 0.41 0.56
5 -13 15 1.02 0.83
6 -13 15 1.33 0.81
6 -13 15 1.27 0.6
6 -13 15 0.51 0.78
7 -13 15 1.72 0.58
8 -13 15 0.24 0.49
-9 -12 15 -0.08 0.41
-9 -12 15 -0.64 0.57
-8 -12 15 0.27 0.44
-8 -12 15 0.7 0.66
-7 -12 15 0.42 0.5
-7 -12 15 0.25 0.68
-6 -12 15 -0.08 0.67
-6 -12 15 0.36 0.67
-6 -12 15 0.64 0.52
-5 -12 15 1.53 0.74
-5 -12 15 2.22 0.82
-5 -12 15 1.95 0.55
-4 -12 15 -0.14 0.65
-4 -12 15 0.64 0.49
-4 -12 15 -0.44 0.85
-4 -12 15 0.44 0.67
-3 -12 15 -0.65 0.79
-3 -12 15 0.87 0.66
-3 -12 15 0.39 0.46
-3 -12 15 0.61 0.72
-2 -12 15 6.24 0.83
-2 -12 15 6.51 1.08
-2 -12 15 5.07 0.67
-2 -12 15 5.21 0.95
-2 -12 15 6.28 1.12
-1 -12 15 2.93 0.85
-1 -12 15 1.34 0.44
-1 -12 15 2.81 0.9
-1 -12 15 2.66 0.62
-1 -12 15 1.3 0.75
0 12 -15 0.96 0.76
0 -12 15 1.08 0.83
0 -12 15 0.01 0.53
0 -12 15 1.29 0.73
0 -12 15 -0.23 0.57
0 -12 15 0.77 0.77
0 -12 15 0.76 0.42
-1 12 -15 5.79 0.94
1 -12 15 5.94 0.62
1 -12 15 5.4 1.05
1 -12 15 4.18 0.81
1 -12 15 5.41 1.02
1 -12 15 6.41 0.94
2 -12 15 7.29 1.13
2 -12 15 5.3 0.96
2 -12 15 6.12 1.15
2 -12 15 6.65 0.94
3 -12 15 -0.06 0.8
3 -12 15 -0.19 0.59
3 -12 15 0.09 0.81
3 -12 15 0.53 0.68
4 -12 15 4.24 1.05
4 -12 15 4.77 1.01
4 -12 15 4.6 0.77
4 -12 15 4.53 0.86
5 -12 15 1.35 0.86
5 -12 15 0 0.79
5 -12 15 0.5 0.55
6 -12 15 2.9 0.92
6 -12 15 2.67 0.68
7 -12 15 0.86 0.83
7 -12 15 -0.25 0.53
8 -12 15 0.92 0.54
9 -12 15 0.18 0.5
-9 -11 15 0.33 0.41
-9 -11 15 0.41 0.63
-9 -11 15 1.01 0.43
-8 -11 15 1.26 0.49
-8 -11 15 2.22 0.51
-8 -11 15 3.38 0.73
-7 -11 15 6.41 0.87
-7 -11 15 4.41 0.65
-7 -11 15 3.94 0.62
-6 -11 15 4.66 0.62
-6 -11 15 2.63 0.78
-6 -11 15 3.55 0.55
-6 -11 15 3.98 0.82
-5 -11 15 7.94 1.08
-5 -11 15 8.28 0.83
-5 -11 15 9.49 1.05
-5 -11 15 7.17 0.77
-4 -11 15 2.81 0.54
-4 -11 15 2.48 0.69
-4 -11 15 1.63 0.72
-4 -11 15 2.01 0.44
-3 -11 15 0.6 0.39
-3 -11 15 0.08 0.44
-3 -11 15 0.57 0.64
-3 -11 15 0.91 0.8
-3 -11 15 0.91 0.71
-2 -11 15 4.86 0.77
-2 -11 15 4.11 0.88
-2 -11 15 5.44 1.06
-2 -11 15 5.4 0.62
-2 -11 15 3.82 0.54
-2 -11 15 5.26 0.97
1 11 -15 15.41 1.47
-1 -11 15 11.47 1.09
-1 -11 15 11.46 1.72
-1 -11 15 12.95 1.08
-1 -11 15 13.83 1.39
-1 -11 15 14.32 1.63
-1 -11 15 9.92 1.32
0 11 -15 0.99 0.73
0 -11 15 -0.2 0.72
0 -11 15 -0.02 0.69
0 -11 15 0.59 0.73
0 -11 15 0.12 0.33
0 -11 15 -0.08 0.4
0 -11 15 -0.19 0.51
-1 11 -15 3.12 0.81
1 -11 15 4.28 0.78
1 -11 15 4.49 0.86
1 -11 15 2.55 0.49
1 -11 15 4.28 0.91
-2 11 -15 5.02 0.85
2 -11 15 3.9 0.48
2 -11 15 4.99 0.95
2 -11 15 4.62 0.84
2 -11 15 4.18 0.74
2 -11 15 4.88 0.98
3 -11 15 1.63 0.61
3 -11 15 0.56 0.68
3 -11 15 0.59 0.84
3 -11 15 1.87 0.82
4 -11 15 0.95 0.84
4 -11 15 0.43 0.57
4 -11 15 2.2 0.84
4 -11 15 0.72 0.67
5 -11 15 4.13 0.96
5 -11 15 3.4 0.94
5 -11 15 4 0.69
6 -11 15 11.02 1.45
6 -11 15 9.38 1.26
7 -11 15 11.28 1.31
7 -11 15 8.31 1.33
8 -11 15 11.82 1.32
8 -11 15 9.3 1.44
9 -11 15 1.5 0.58
-10 -10 15 1.14 0.6
-10 -10 15 0.64 0.4
-10 -10 15 0.66 0.4
-9 -10 15 0.61 0.43
-9 -10 15 -0.24 0.43
-9 -10 15 -0.12 0.62
-8 -10 15 3.84 0.76
-8 -10 15 3.7 0.56
-8 -10 15 2.11 0.55
-7 -10 15 10.59 1.08
-7 -10 15 14.6 1.17
-6 -10 15 17.53 1.78
-6 -10 15 19.91 1.78
-6 -10 15 15.27 1.48
-6 -10 15 17.27 1.49
-5 -10 15 -0.05 0.47
-5 -10 15 0.66 0.66
-5 -10 15 -0.43 0.41
-5 -10 15 0.65 0.67
-4 -10 15 0.5 0.46
-4 -10 15 0.19 0.65
-4 -10 15 0.38 0.39
-4 -10 15 -0.06 0.65
-3 -10 15 1.94 0.43
-3 -10 15 3.82 0.86
-3 -10 15 1.59 0.45
-3 -10 15 1.29 0.7
-3 -10 15 1.31 0.82
-3 -10 15 2.93 0.67
2 10 -15 0.08 0.74
-2 -10 15 0.54 0.42
-2 -10 15 0.86 0.79
-2 -10 15 0.44 0.36
-2 -10 15 0.76 0.73
-2 -10 15 0.34 0.76
-2 -10 15 0.18 0.58
1 10 -15 17.64 1.7
-1 -10 15 15.77 2.1
-1 -10 15 16.33 1.68
-1 -10 15 15.97 1.92
-1 -10 15 16.9 1.59
-1 -10 15 15.3 1.34
-1 -10 15 17.85 1.34
0 10 -15 0.19 0.73
0 -10 15 0.75 0.41
0 -10 15 0.68 0.73
0 -10 15 0.85 0.36
0 -10 15 0.63 0.51
0 -10 15 1.12 0.69
0 -10 15 1.29 0.82
-1 10 -15 13.17 1.5
1 -10 15 12.46 1.45
1 -10 15 13.15 1.15
1 -10 15 15.18 1.56
1 -10 15 15.62 1.73
1 -10 15 15.59 1.86
1 -10 15 12.49 1.17
-2 10 -15 0.84 0.69
2 -10 15 0.94 0.78
2 -10 15 0.95 0.36
2 -10 15 0.3 0.56
2 -10 15 2.38 0.8
2 -10 15 0.46 0.63
-3 10 -15 4.77 0.96
3 -10 15 6.78 1.2
3 -10 15 7.16 1.01
3 -10 15 8.61 1.02
3 -10 15 7.59 0.68
3 -10 15 8.96 1.22
4 -10 15 2.06 0.63
4 -10 15 2.81 0.86
4 -10 15 1.42 0.83
4 -10 15 1.36 0.69
5 -10 15 4.12 0.95
5 -10 15 3.63 0.68
5 -10 15 2.91 0.76
5 -10 15 3.83 0.94
6 -10 15 1.49 0.85
7 -10 15 22.28 2.28
7 -10 15 20.4 2.39
8 -10 15 2.41 0.88
8 -10 15 1.86 0.61
9 -10 15 0.47 0.54
10 -10 15 0.86 0.49
-10 -9 15 0.35 0.45
-10 -9 15 0.12 0.58
-9 -9 15 3.75 0.54
-9 -9 15 3.12 0.74
-9 -9 15 3.22 0.6
-8 -9 15 -0.17 0.67
-8 -9 15 0.13 0.51
-8 -9 15 -0.16 0.45
-7 -9 15 8.92 0.83
-7 -9 15 7.95 1.01
-7 -9 15 6.93 0.83
-6 -9 15 4.78 0.68
-6 -9 15 6.68 0.68
-6 -9 15 4.55 0.85
-5 -9 15 0.78 0.46
-5 -9 15 1.04 0.64
-5 -9 15 -0.25 0.62
-5 -9 15 0.34 0.46
-4 -9 15 9.71 1.15
-4 -9 15 10.29 0.9
-4 -9 15 9 0.86
-4 -9 15 8.62 1.05
-3 -9 15 1.09 0.7
-3 -9 15 0.5 0.58
-3 -9 15 -1.1 0.8
-3 -9 15 0.81 0.4
-3 -9 15 0 0.67
-3 -9 15 0.52 0.37
2 9 -15 5.59 0.96
-2 -9 15 4.95 0.73
-2 -9 15 3.64 0.8
-2 -9 15 3.89 0.95
-2 -9 15 3.81 0.53
-2 -9 15 3.91 0.56
-2 -9 15 5.13 0.9
1 9 -15 2.34 0.77
-1 -9 15 1.28 0.66
-1 -9 15 1.85 0.8
-1 -9 15 2.92 0.84
-1 -9 15 1.97 0.42
-1 -9 15 1.37 0.39
0 9 -15 1.01 0.73
0 -9 15 1.21 0.6
0 -9 15 1.09 0.36
0 -9 15 1.05 0.41
0 -9 15 1.57 0.79
0 -9 15 1.21 0.52
0 -9 15 1.87 0.85
-1 9 -15 5.62 0.9
1 -9 15 5.66 0.86
1 -9 15 5.68 1
1 -9 15 5.35 0.6
1 -9 15 4.66 0.54
1 -9 15 5.41 1.03
-2 9 -15 5.24 0.92
2 -9 15 5.64 1.05
2 -9 15 5.87 0.6
2 -9 15 6.22 0.88
2 -9 15 6.43 0.63
2 -9 15 5.64 0.85
2 -9 15 6.7 1.05
3 -9 15 0.62 0.33
3 -9 15 0.46 0.77
3 -9 15 -0.39 0.57
3 -9 15 0.04 0.77
3 -9 15 0.4 0.57
4 -9 15 2.67 0.62
4 -9 15 2.19 0.83
4 -9 15 1.94 0.68
4 -9 15 2.48 0.84
5 -9 15 3.43 0.73
5 -9 15 2.04 0.63
5 -9 15 3.03 0.38
5 -9 15 4.05 0.88
6 -9 15 2.12 0.86
6 -9 15 2.01 0.57
7 -9 15 2.71 0.91
7 -9 15 1.43 0.59
8 -9 15 0.46 0.56
8 -9 15 1.12 0.78
9 -9 15 0.79 0.54
10 -9 15 2.83 0.57
-10 -8 15 2.98 0.63
-10 -8 15 2.28 0.55
-9 -8 15 0.83 0.54
-9 -8 15 1.32 0.65
-9 -8 15 0.92 0.45
-8 -8 15 3.55 0.68
-8 -8 15 4.91 0.81
-8 -8 15 4.5 0.6
-7 -8 15 0.78 0.67
-7 -8 15 -0.56 0.52
-7 -8 15 0.4 0.46
-6 -8 15 2.51 0.52
-6 -8 15 2.19 0.66
-6 -8 15 1.59 0.55
-5 -8 15 2.62 0.69
-5 -8 15 2.22 0.54
-5 -8 15 2.43 0.71
-5 -8 15 3.41 0.54
-4 -8 15 -0.67 0.62
-4 -8 15 0.17 0.43
-4 -8 15 0.12 0.42
-4 -8 15 0.11 0.58
3 8 -15 12.92 1.37
-3 -8 15 10.82 1.27
-3 -8 15 11.21 1.19
-3 -8 15 8.81 0.96
-3 -8 15 10.14 0.97
-3 -8 15 8.65 1.45
-3 -8 15 11.61 1.22
2 8 -15 6.06 0.96
-2 -8 15 3.39 1.04
-2 -8 15 6.38 0.91
-2 -8 15 6.4 0.62
-2 -8 15 4.88 0.77
-2 -8 15 5.27 0.57
-2 -8 15 4.05 0.9
1 8 -15 5.94 0.94
-1 -8 15 4.76 0.78
-1 -8 15 5.42 0.95
-1 -8 15 4.02 0.54
-1 -8 15 4.14 0.52
-1 -8 15 4.18 0.67
-1 -8 15 2.93 0.95
0 8 -15 3.12 0.79
0 -8 15 2.89 0.44
0 -8 15 2.53 0.83
0 -8 15 3.02 0.7
0 -8 15 2.87 0.48
0 -8 15 2.98 0.6
0 -8 15 4.04 0.89
-1 8 -15 2.15 0.75
1 -8 15 2.74 0.79
1 -8 15 1.22 0.37
1 -8 15 2.53 0.68
1 -8 15 2.84 0.85
1 -8 15 2.83 0.45
2 -8 15 1.88 0.61
2 -8 15 0.82 0.37
2 -8 15 1.93 0.77
2 -8 15 0.44 0.54
2 -8 15 1.07 0.36
2 -8 15 2.13 0.76
3 -8 15 10.38 1.25
3 -8 15 11.83 1.75
3 -8 15 11.9 1.41
3 -8 15 12.4 1.54
3 -8 15 13.22 1.05
4 -8 15 0.39 0.51
4 -8 15 -0.5 0.79
4 -8 15 0.28 0.79
4 -8 15 0.62 0.61
5 -8 15 0.3 0.29
5 -8 15 0.21 0.59
5 -8 15 0.54 0.49
5 -8 15 0.55 0.79
6 -8 15 15.79 1.8
6 -8 15 16.78 1.22
6 -8 15 19.04 2.01
7 -8 15 0.27 0.83
7 -8 15 -0.42 0.53
8 -8 15 1.68 0.95
8 -8 15 1.56 0.6
9 -8 15 0.33 0.53
10 -8 15 6.37 0.82
-10 -7 15 1.32 0.56
-10 -7 15 1.32 0.52
-9 -7 15 1.51 0.66
-9 -7 15 0.73 0.58
-8 -7 15 2.24 0.69
-8 -7 15 2.11 0.62
-8 -7 15 1.82 0.51
-7 -7 15 6.52 0.93
-7 -7 15 6.55 0.82
-7 -7 15 7.9 0.75
-6 -7 15 17.1 1.62
-6 -7 15 14.57 1.43
-6 -7 15 16.04 1.36
-5 -7 15 3.27 0.73
-5 -7 15 3.95 0.54
-5 -7 15 3.79 0.59
-5 -7 15 2.76 0.7
-4 -7 15 2.14 0.7
-4 -7 15 1.66 0.45
-4 -7 15 1.65 0.45
-4 -7 15 1.96 0.6
3 7 -15 0.78 0.73
-3 -7 15 0.69 0.65
-3 -7 15 0.13 0.81
-3 -7 15 0.8 0.38
-3 -7 15 0.32 0.53
-3 -7 15 0.12 0.38
2 7 -15 1.75 0.82
-2 -7 15 1.43 0.44
-2 -7 15 2.24 0.68
-2 -7 15 1.48 0.64
-2 -7 15 1.39 0.39
-2 -7 15 1.68 0.87
1 7 -15 11.11 1.16
-1 -7 15 8.61 0.8
-1 -7 15 9.16 1.35
-1 -7 15 8.02 1.04
-1 -7 15 10.64 1.2
-1 -7 15 7.56 0.8
0 7 -15 5.35 0.91
0 -7 15 6.09 0.58
0 -7 15 5.17 0.95
0 -7 15 4.61 0.8
0 -7 15 4.4 0.59
0 -7 15 5.72 1.06
-1 7 -15 10.59 1.24
1 -7 15 10.56 0.94
1 -7 15 12.6 1.38
1 -7 15 10.66 1.49
1 -7 15 9.36 0.95
1 -7 15 9.11 1.13
2 -7 15 3.34 0.92
2 -7 15 3.55 0.46
2 -7 15 3.62 0.82
2 -7 15 3.42 0.68
2 -7 15 3.57 0.48
2 -7 15 2.32 0.71
3 -7 15 3.08 0.73
3 -7 15 3.47 0.98
3 -7 15 5.5 0.96
3 -7 15 4.6 0.72
3 -7 15 3.95 0.47
4 -7 15 0.69 0.54
4 -7 15 0.6 0.72
4 -7 15 0.32 0.59
5 -7 15 0.21 0.29
5 -7 15 2.14 0.81
5 -7 15 0.08 0.59
5 -7 15 0.41 0.47
6 -7 15 15.44 1.78
6 -7 15 12.16 1.05
6 -7 15 15.54 1.56
7 -7 15 -0.11 0.81
7 -7 15 0.06 0.51
7 -7 15 0.43 0.3
8 -7 15 6.48 0.92
8 -7 15 6.88 1.24
9 -7 15 0 0.5
9 -7 15 1.22 0.78
10 -7 15 0.97 0.47
-11 -6 15 1.21 0.5
-10 -6 15 1.44 0.55
-10 -6 15 0.94 0.55
-9 -6 15 0.25 0.59
-9 -6 15 0.49 0.62
-8 -6 15 0.71 0.67
-8 -6 15 2.13 0.63
-8 -6 15 2.05 0.5
-7 -6 15 0.44 0.57
-7 -6 15 0.76 0.46
-7 -6 15 0.19 0.61
-6 -6 15 1.06 0.6
-6 -6 15 -0.3 0.42
-6 -6 15 -0.18 0.5
-5 -6 15 7.27 0.72
-5 -6 15 7.48 0.88
-5 -6 15 5.85 0.73
-4 -6 15 -0.22 0.53
-4 -6 15 0.49 0.58
-4 -6 15 0.09 0.41
-4 -6 15 0.55 0.41
3 6 -15 3.43 0.87
-3 -6 15 4.02 0.55
-3 -6 15 3.81 0.52
-3 -6 15 5.51 0.82
2 6 -15 4.55 0.85
-2 -6 15 4.44 0.54
-2 -6 15 4.44 0.99
-2 -6 15 4.1 0.76
-2 -6 15 2.83 1
-2 -6 15 3.25 0.48
1 6 -15 0.37 0.74
-1 -6 15 0.12 0.34
-1 -6 15 -0.43 0.84
-1 -6 15 -0.99 0.56
-1 -6 15 -0.55 0.81
-1 -6 15 0.57 0.64
-1 -6 15 -0.16 0.37
0 6 -15 11.17 1.21
0 -6 15 10.82 0.93
0 -6 15 11.27 1.37
0 -6 15 10.53 1.48
0 -6 15 9.61 1.11
0 -6 15 8.11 1.56
0 -6 15 8.78 0.94
1 -6 15 -0.52 0.85
1 -6 15 -0.82 0.74
1 -6 15 0.22 0.7
1 -6 15 0.03 0.34
1 -6 15 -0.44 0.35
1 -6 15 -0.69 0.57
2 -6 15 5.5 0.93
2 -6 15 3.38 1.02
2 -6 15 5.64 0.81
2 -6 15 4.96 0.53
2 -6 15 4.81 0.54
3 -6 15 0.33 0.34
3 -6 15 0.84 0.67
3 -6 15 0.36 0.59
3 -6 15 0.67 0.68
3 -6 15 0.28 0.51
4 -6 15 6.82 1.04
4 -6 15 5.88 0.6
4 -6 15 5.87 0.83
4 -6 15 5.49 0.86
5 -6 15 0.64 0.59
5 -6 15 0.04 0.46
5 -6 15 0.02 0.3
5 -6 15 -0.26 0.79
6 -6 15 7.51 1.13
6 -6 15 5.02 0.78
6 -6 15 3.87 0.82
6 -6 15 6.53 0.54
7 -6 15 0.56 0.9
7 -6 15 -0.1 0.28
7 -6 15 0.12 0.53
8 -6 15 2.35 0.35
8 -6 15 2.75 0.63
8 -6 15 2.27 0.94
9 -6 15 4.5 1.05
-11 -5 15 -0.03 0.48
-10 -5 15 0.84 0.56
-9 -5 15 2.14 0.62
-8 -5 15 0.91 0.61
-7 -5 15 15.8 1.38
-7 -5 15 16.5 1.5
-6 -5 15 1.36 0.61
-6 -5 15 1.44 0.54
-6 -5 15 1.19 0.44
-5 -5 15 1.93 0.57
-5 -5 15 1.64 0.49
-5 -5 15 2.59 0.45
4 5 -15 3.49 0.75
-4 -5 15 2.01 0.45
-4 -5 15 1.56 0.48
-4 -5 15 3.68 0.66
3 5 -15 6.89 1.03
-3 -5 15 8.3 0.72
-3 -5 15 4.81 1.27
-3 -5 15 7.84 0.75
-3 -5 15 8.64 0.99
2 5 -15 0.83 0.72
-2 -5 15 2.3 0.41
-2 -5 15 2.69 0.68
-2 -5 15 2.16 0.45
-2 -5 15 1.67 0.85
1 5 -15 17.41 1.75
-1 -5 15 17.27 1.67
-1 -5 15 17.21 1.39
-1 -5 15 21.03 1.87
-1 -5 15 16.36 2.58
-1 -5 15 15.5 1.41
0 -5 15 0.36 0.37
0 -5 15 0.36 0.6
0 -5 15 0.49 0.34
0 -5 15 0.61 0.67
0 -5 15 -0.02 0.71
1 -5 15 17.47 2.54
1 -5 15 18.39 1.64
1 -5 15 19.74 1.89
1 -5 15 14.1 1.36
1 -5 15 16.99 1.35
2 -5 15 1.47 0.63
2 -5 15 0.89 0.75
2 -5 15 1 0.35
2 -5 15 2.25 0.72
3 -5 15 3.77 0.51
3 -5 15 4.63 0.79
3 -5 15 6.84 0.95
3 -5 15 4.42 0.96
4 -5 15 29.38 2.96
4 -5 15 32.05 2.2
4 -5 15 24.86 2.91
4 -5 15 28.32 3.85
4 -5 15 33.05 2.56
5 -5 15 1.87 0.35
5 -5 15 2.34 0.83
5 -5 15 1.14 0.65
5 -5 15 1.19 0.49
6 -5 15 0.75 0.3
6 -5 15 0.63 0.49
6 -5 15 1.32 0.85
6 -5 15 0.05 0.63
7 -5 15 8.83 1.38
7 -5 15 8.93 0.79
8 -5 15 0.62 0.28
8 -5 15 0.27 0.93
9 -5 15 4.6 1.11
-11 -4 15 1.29 0.53
-10 -4 15 0.98 0.58
-9 -4 15 0.46 0.58
-8 -4 15 0.84 0.6
-7 -4 15 1.71 0.61
-6 -4 15 3.93 0.64
-6 -4 15 4.47 0.59
-5 -4 15 3.02 0.55
-5 -4 15 2.37 0.5
4 4 -15 1.61 0.76
-4 -4 15 1.76 0.46
-4 -4 15 1.8 0.62
-4 -4 15 0.82 0.79
-4 -4 15 1.75 0.47
3 4 -15 -0.43 0.7
-3 -4 15 -0.44 0.54
-3 -4 15 -0.02 0.4
-3 -4 15 -0.13 0.73
-3 -4 15 0.48 0.37
2 4 -15 7.48 1.01
-2 -4 15 6.02 1.29
-2 -4 15 7.76 0.73
-2 -4 15 8.16 0.72
-2 -4 15 8.65 1.01
1 4 -15 0.23 0.7
-1 -4 15 -0.46 0.67
-1 -4 15 0.91 0.59
-1 -4 15 0.02 0.36
-1 -4 15 0.08 0.35
0 -4 15 0.33 0.7
0 -4 15 -0.31 0.35
0 -4 15 -0.18 0.58
0 -4 15 -0.24 0.6
0 -4 15 -0.15 0.33
1 -4 15 1.21 0.68
1 -4 15 0.73 0.73
1 -4 15 1.3 0.37
1 -4 15 0.68 0.61
2 -4 15 1.7 0.72
2 -4 15 1.37 0.73
2 -4 15 0.98 0.35
2 -4 15 2.03 0.63
3 -4 15 3.35 0.75
3 -4 15 5.38 0.93
3 -4 15 3.63 0.96
3 -4 15 4.09 0.48
4 -4 15 1.18 0.62
4 -4 15 0.09 0.3
4 -4 15 -0.07 0.32
4 -4 15 0.41 0.68
4 -4 15 0.53 0.75
5 -4 15 7.47 1.17
5 -4 15 6.24 0.92
5 -4 15 5.95 0.58
6 -4 15 4.66 0.5
6 -4 15 5.25 1.09
6 -4 15 4.44 0.86
7 -4 15 0.09 0.93
7 -4 15 0.21 0.3
7 -4 15 0.55 0.7
8 -4 15 2.3 0.36
8 -4 15 2.49 0.94
9 -4 15 0.57 0.82
-11 -3 15 2.26 0.56
-10 -3 15 0.05 0.58
-9 -3 15 0.3 0.59
-8 -3 15 0.29 0.6
-7 -3 15 2.59 0.65
-6 -3 15 10.52 1.06
-6 -3 15 12.19 1.07
-5 -3 15 4.62 0.62
-5 -3 15 3.91 0.98
-5 -3 15 4.25 0.56
4 3 -15 4.21 0.84
-4 -3 15 4.14 1.04
-4 -3 15 4.23 0.58
-4 -3 15 5.29 0.59
3 3 -15 -0.24 0.65
-3 -3 15 -0.11 0.55
-3 -3 15 0.06 0.36
-3 -3 15 1.2 0.75
-3 -3 15 0.11 0.37
2 3 -15 0.69 0.67
-2 -3 15 0.69 0.38
-2 -3 15 0.79 0.73
-2 -3 15 -0.13 0.34
-2 -3 15 0.63 0.58
1 3 -15 2.78 0.77
-1 -3 15 3.09 0.69
-1 -3 15 3.29 0.91
-1 -3 15 3.41 0.47
-1 -3 15 2.62 0.46
0 -3 15 4.54 0.79
0 -3 15 4.69 0.79
0 -3 15 4.26 0.51
0 -3 15 2.97 0.95
1 -3 15 1.04 0.62
1 -3 15 -0.03 0.59
1 -3 15 0.54 0.36
1 -3 15 0.16 0.73
2 -3 15 -0.2 0.33
2 -3 15 -0.32 0.7
2 -3 15 -0.37 0.57
2 -3 15 1.02 0.7
3 -3 15 0.55 0.61
3 -3 15 0.65 0.34
3 -3 15 0.85 0.76
3 -3 15 0.38 0.71
4 -3 15 1.18 0.31
4 -3 15 1.17 0.79
4 -3 15 0.95 0.65
4 -3 15 0.94 0.71
5 -3 15 3.22 0.44
5 -3 15 4.44 0.81
5 -3 15 5.07 0.96
6 -3 15 3.6 0.82
6 -3 15 2.96 0.44
6 -3 15 3.96 0.96
7 -3 15 -0.31 0.69
7 -3 15 1.64 0.94
7 -3 15 0.25 0.32
8 -3 15 0.59 0.87
9 -3 15 0.13 0.83
-10 -2 15 4.45 0.71
-9 -2 15 2.77 0.66
-8 -2 15 0.62 0.6
-7 -2 15 0.45 0.58
-6 -2 15 -0.42 0.52
-5 -2 15 4.11 0.53
-5 -2 15 3.44 0.58
-5 -2 15 4.23 0.99
4 2 -15 0.06 0.63
-4 -2 15 0.05 0.38
-4 -2 15 0.01 0.36
-4 -2 15 0.77 0.77
3 2 -15 0.72 0.67
-3 -2 15 1.28 0.78
-3 -2 15 1.53 0.6
-3 -2 15 0.45 0.38
-3 -2 15 0.71 0.37
2 2 -15 -0.04 0.67
-2 -2 15 0.6 0.56
-2 -2 15 0.63 0.36
-2 -2 15 0.59 0.37
-2 -2 15 0.53 0.73
-1 -2 15 -0.02 0.58
-1 -2 15 -0.11 0.36
-1 -2 15 -0.01 0.7
0 -2 15 0.23 0.36
0 -2 15 0.23 0.72
0 -2 15 -0.15 0.6
1 -2 15 1.34 0.76
1 -2 15 0.68 0.36
1 -2 15 0.22 0.63
1 -2 15 -0.12 0.57
2 -2 15 0.51 0.6
2 -2 15 -0.06 0.71
2 -2 15 -0.36 0.68
2 -2 15 0.16 0.35
3 -2 15 0.63 0.31
3 -2 15 0.59 0.71
3 -2 15 0.76 0.34
3 -2 15 0.86 0.66
3 -2 15 0.48 0.7
4 -2 15 1.15 0.73
4 -2 15 1.4 0.77
4 -2 15 1.27 0.33
4 -2 15 0.92 0.7
5 -2 15 2 0.38
5 -2 15 3.36 0.79
5 -2 15 3.32 0.88
6 -2 15 2.13 0.4
6 -2 15 3.01 0.78
6 -2 15 2.57 0.93
7 -2 15 3.1 0.85
7 -2 15 1.85 0.91
7 -2 15 2.1 0.4
8 -2 15 0.61 0.92
9 -2 15 0.22 0.83
-10 -1 15 -0.38 0.56
-9 -1 15 0.28 0.58
-8 -1 15 1.23 0.6
7 1 -15 0.69 0.89
-7 -1 15 0.75 0.57
6 1 -15 -0.6 0.83
-6 -1 15 0.33 0.51
5 1 -15 -0.25 0.82
-5 -1 15 0.24 0.77
-5 -1 15 0.59 0.45
4 1 -15 5.95 1.06
4 1 -15 6.06 0.92
-4 -1 15 6.05 1.2
-4 -1 15 6.58 0.67
3 1 -15 0.41 0.67
3 1 -15 0.72 0.63
-3 -1 15 0.23 0.67
-3 -1 15 0.39 0.53
-3 -1 15 -0.16 0.35
2 1 -15 -0.47 0.63
-2 -1 15 0.16 0.36
-2 -1 15 0.86 0.57
-2 -1 15 0.13 0.72
-1 -1 15 3.32 0.94
-1 -1 15 3.35 0.48
-1 -1 15 5.16 0.75
0 -1 15 0.37 0.35
0 -1 15 0.91 0.61
0 -1 15 0.53 0.71
1 -1 15 0.6 0.35
1 -1 15 -0.18 0.73
1 -1 15 1.83 0.63
2 -1 15 0.4 0.71
2 -1 15 0.35 0.66
2 -1 15 -0.43 0.29
2 -1 15 0.33 0.34
3 -1 15 3.01 0.87
3 -1 15 2.84 0.44
3 -1 15 3.09 0.41
3 -1 15 3.52 0.83
4 -1 15 9.47 1.27
4 -1 15 8.29 0.7
4 -1 15 7.61 1.36
5 -1 15 0.58 0.34
5 -1 15 1.97 0.87
6 -1 15 0.89 0.77
6 -1 15 1.52 0.88
6 -1 15 1.35 0.37
7 -1 15 10.1 0.94
7 -1 15 13.2 1.54
7 -1 15 10.53 1.33
8 -1 15 -1.01 0.79
9 -1 15 6.09 1.21
-10 0 15 -0.03 0.53
-9 0 15 -0.03 0.55
-8 0 15 0.36 0.57
7 0 -15 -0.07 0.91
-7 0 15 -0.46 0.54
6 0 -15 0.06 0.87
-6 0 15 -0.08 0.48
5 0 -15 -0.71 0.8
-5 0 15 0.52 0.74
-5 0 15 -0.02 0.44
4 0 -15 0.28 0.77
-4 0 15 0.39 0.75
-4 0 15 0.85 0.4
3 0 -15 1.08 0.74
-3 0 15 0.7 0.38
-3 0 15 0.72 0.73
2 0 -15 2.73 0.73
2 0 -15 2.57 0.69
-2 0 15 2.68 0.61
-2 0 15 2.19 0.83
-2 0 15 1.75 0.43
-1 0 15 13.28 2.2
-1 0 15 14.58 1.42
-1 0 15 13.9 1.17
0 0 15 0.01 0.57
0 0 15 0.27 0.77
0 0 15 0.45 0.36
1 0 15 5.69 0.52
1 0 15 5.48 1.11
1 0 15 6.05 0.6
2 0 15 1.19 0.38
2 0 15 2.12 0.73
2 0 15 1.31 0.76
2 0 15 1.36 0.33
3 0 15 6.95 1.04
3 0 15 5.63 0.6
3 0 15 5.39 1.14
3 0 15 6.11 0.55
4 0 15 2.78 0.91
4 0 15 4.86 0.98
4 0 15 3.41 0.44
5 0 15 0.71 0.84
5 0 15 0.73 0.35
6 0 15 0.11 0.35
6 0 15 0.59 0.83
7 0 15 0.96 0.83
7 0 15 2.59 0.95
8 0 15 0.46 0.86
-10 1 15 0.96 0.52
-9 1 15 0.24 0.55
-8 1 15 3.46 0.65
7 -1 -15 6.78 1.31
-7 1 15 9.57 0.9
6 -1 -15 1.25 0.97
-6 1 15 1.6 0.5
5 -1 -15 1.76 0.91
-5 1 15 2.53 0.85
-5 1 15 2.23 0.48
4 -1 -15 0.44 0.77
-4 1 15 -0.23 0.7
-4 1 15 0.04 0.36
3 -1 -15 3.08 0.86
-3 1 15 3.25 0.9
-3 1 15 3.55 0.49
2 -1 -15 4.74 0.93
-2 1 15 4.84 0.56
-2 1 15 4.23 1.06
-2 1 15 5.65 0.77
1 -1 -15 12.27 1.63
-1 1 15 12.98 1.35
-1 1 15 13.19 1.11
-1 1 15 13.04 2.1
0 1 15 0.47 0.77
0 1 15 1.14 0.36
0 1 15 0.95 0.3
1 1 15 7.02 1.3
1 1 15 7.44 0.69
1 1 15 8.03 0.71
2 1 15 1.32 0.37
2 1 15 1.4 0.31
2 1 15 0.49 0.77
3 1 15 -0.05 0.74
3 1 15 0.49 0.31
3 1 15 0.43 0.75
4 1 15 1.98 0.89
4 1 15 0.69 0.8
4 1 15 1.89 0.38
5 1 15 11.23 0.98
5 1 15 12.16 1.54
6 1 15 0.37 0.82
6 1 15 -0.3 0.34
7 1 15 5.06 1.12
8 1 15 5.48 1.01
8 1 15 5.72 1.14
-8 2 15 9.07 0.91
-7 2 15 8.14 0.85
6 -2 -15 1.82 0.98
-6 2 15 0.78 0.49
5 -2 -15 16.44 2.18
-5 2 15 19.7 2.74
4 -2 -15 0.36 0.78
-4 2 15 -0.79 0.67
3 -2 -15 -0.19 0.75
-3 2 15 0.24 0.72
2 -2 -15 12.97 1.56
-2 2 15 11.79 1.21
-2 2 15 9.94 1.68
1 -2 -15 10.86 1.36
-1 2 15 10.88 1.19
-1 2 15 9.5 1.6
0 -2 -15 41.38 4.23
0 2 15 44.15 5.44
1 2 15 9.73 1.59
1 2 15 9.91 0.8
2 2 15 8.48 0.71
2 2 15 6.96 1.32
3 2 15 -0.22 0.31
3 2 15 -0.08 0.77
3 2 15 0.23 0.79
4 2 15 -0.74 0.77
4 2 15 0.21 0.34
4 2 15 -0.06 0.81
5 2 15 -0.05 0.34
5 2 15 -0.2 0.79
6 2 15 1.87 0.92
7 2 15 0.82 0.86
8 2 15 -0.05 0.9
9 -3 -15 2.87 0.82
6 -3 -15 3.04 0.98
5 -3 -15 0.47 0.87
4 -3 -15 4.13 0.99
-4 3 15 4.98 1.05
3 -3 -15 0.87 0.78
-3 3 15 -0.61 0.71
2 -3 -15 4.96 0.95
-2 3 15 3.52 0.94
1 -3 -15 2.24 0.82
-1 3 15 1.35 0.8
0 -3 -15 0.58 0.79
0 3 15 0.26 0.74
1 3 15 -0.01 0.29
1 3 15 0.13 0.82
2 3 15 0.39 0.76
2 3 15 -0.15 0.29
3 3 15 1.39 0.87
3 3 15 2.15 0.37
4 3 15 -1.09 0.77
4 3 15 0.24 0.33
4 3 15 0.18 0.8
5 3 15 15.78 1.93
6 3 15 1.6 0.88
7 3 15 0.31 0.78
9 -4 -15 8.35 1.22
8 -4 -15 -0.26 0.68
7 -4 -15 1.23 0.75
6 -4 -15 0.06 0.7
5 -4 -15 14.93 1.8
5 -4 -15 13.82 1.84
4 -4 -15 0.53 0.82
4 -4 -15 1.42 0.64
-4 4 15 -1.52 0.68
3 -4 -15 0.97 0.82
-3 4 15 -0.51 0.69
2 -4 -15 3.77 0.93
-2 4 15 2.09 0.87
1 -4 -15 1.67 0.84
-1 4 15 1.09 0.81
0 -4 -15 0.28 0.79
0 4 15 0.4 0.83
1 4 15 -0.23 0.8
2 4 15 -0.07 0.82
2 4 15 0.2 0.3
3 4 15 0.42 0.32
3 4 15 -1.13 0.78
4 4 15 -1.57 0.77
5 4 15 0.36 0.79
6 4 15 2.33 0.93
7 4 15 4.02 0.97
8 -5 -15 2.4 0.75
7 -5 -15 0.86 0.72
6 -5 -15 0.58 0.69
5 -5 -15 0.5 0.68
4 -5 -15 0.67 0.77
4 -5 -15 0.75 0.61
-4 5 15 -0.78 0.75
3 -5 -15 -0.1 0.79
-3 5 15 -0.76 0.7
2 -5 -15 0.37 0.85
-2 5 15 0.28 0.73
1 -5 -15 1.75 0.88
-1 5 15 -0.57 0.81
0 -5 -15 -0.06 0.82
0 5 15 -0.44 0.85
1 5 15 6.28 1.25
2 5 15 -1.44 0.83
3 5 15 -0.17 0.88
4 5 15 -0.97 0.84
-5 -5 -15 4.39 0.93
6 5 15 0.41 0.76
8 -6 -15 0.21 0.62
7 -6 -15 0.14 0.62
6 -6 -15 1.2 0.65
5 -6 -15 9.31 1.31
4 -6 -15 -0.07 0.58
-4 6 15 -1.32 0.72
3 -6 -15 1.21 0.81
-3 6 15 -1.53 0.72
2 -6 -15 17.95 1.92
-2 6 15 12.71 2.36
1 -6 -15 2.01 0.89
-1 6 15 0.48 0.8
0 -6 -15 7 1.12
0 6 15 3.75 1.1
1 6 15 0.96 0.87
2 6 15 1.64 0.9
3 6 15 0.15 0.88
-4 -6 -15 2.1 0.72
-5 -6 -15 12.66 1.64
-6 -6 -15 6.79 1.04
7 -7 -15 0.57 0.58
6 -7 -15 0.56 0.58
5 -7 -15 5.4 0.88
-3 7 15 -1.38 0.7
-2 7 15 -0.54 0.78
-1 7 15 1.87 0.92
0 7 15 0.72 0.89
1 7 15 3.44 1.13
-3 -7 -15 1.74 0.74
-4 -7 -15 9.58 1.35
-5 -7 -15 10.02 1.36
-6 -7 -15 0.95 0.7
-7 -7 -15 -0.02 0.57
6 -8 -15 1.71 0.58
5 -8 -15 1.54 0.56
-1 -8 -15 0.92 0.68
-1 -8 -15 1.18 0.77
-2 -8 -15 -0.24 0.74
-3 -8 -15 1.42 0.78
-4 -8 -15 1.43 0.71
-5 -8 -15 0.44 0.68
-6 -8 -15 1.12 0.6
5 -9 -15 0.66 0.44
2 -9 -15 1.18 0.52
1 -9 -15 0.66 0.59
0 -9 -15 0.11 0.66
-1 -9 -15 0.35 0.63
-1 -9 -15 -0.34 0.67
-2 -9 -15 7.2 1.08
-3 -9 -15 2.53 0.78
-4 -9 -15 0.58 0.64
1 -10 -15 4.21 0.59
0 -10 -15 1.19 0.62
0 -10 -15 1.08 0.49
-1 -10 -15 3.1 0.62
-1 -10 -15 2.32 0.67
-2 -10 -15 0.49 0.53
-3 -10 -15 1.64 0.57
-1 -19 16 1.84 0.81
0 -19 16 0.4 0.8
1 -19 16 2.49 0.89
-4 -18 16 0.89 0.4
-4 -18 16 -1.38 0.72
-4 -18 16 1.28 0.51
-3 -18 16 0.24 0.4
-3 -18 16 -0.46 0.77
-2 -18 16 0.8 0.79
-2 -18 16 -0.37 0.39
-1 -18 16 17.87 2.32
0 -18 16 0.14 0.83
1 -18 16 13.79 1.5
2 -18 16 0.47 0.53
2 -18 16 1.11 0.84
3 -18 16 2.03 0.61
3 -18 16 2.92 0.9
-5 -17 16 2.1 0.47
-5 -17 16 1.85 0.57
-4 -17 16 -0.45 0.8
-4 -17 16 0.22 0.45
-4 -17 16 1.82 0.58
-3 -17 16 -0.12 0.57
-3 -17 16 0.42 0.42
-3 -17 16 -0.33 0.82
-2 -17 16 2.06 0.89
-2 -17 16 1.31 0.46
-1 -17 16 0.44 0.56
-1 -17 16 -0.06 0.85
0 -17 16 0.72 0.57
0 -17 16 1.94 0.86
1 -17 16 0.49 0.54
1 -17 16 0.74 0.86
2 -17 16 8.88 0.95
2 -17 16 2.64 1.13
3 -17 16 1.08 0.88
3 -17 16 0.56 0.57
4 -17 16 -0.26 0.55
4 -17 16 -0.18 0.84
5 -17 16 0.64 0.57
5 -17 16 0.59 0.78
-6 -16 16 0 0.57
-6 -16 16 0.64 0.44
-5 -16 16 2.46 0.63
-5 -16 16 0.98 0.47
-4 -16 16 3.76 1.05
-4 -16 16 5.87 0.64
-4 -16 16 5.21 0.77
-3 -16 16 0.35 0.6
-3 -16 16 0.31 0.59
-3 -16 16 -0.09 0.74
-3 -16 16 -0.19 0.85
-3 -16 16 0.52 0.47
-2 -16 16 2.37 0.64
-2 -16 16 1.38 0.64
-2 -16 16 2.16 0.77
-2 -16 16 0.73 0.46
-2 -16 16 2.71 0.92
-1 -16 16 5.18 0.95
-1 -16 16 4.25 0.62
-1 -16 16 5.96 1.12
-1 -16 16 5.86 0.85
0 -16 16 0.89 0.87
0 -16 16 -0.44 0.6
0 -16 16 0.36 0.71
0 -16 16 -0.87 0.83
1 -16 16 9.41 1.22
1 -16 16 12.75 1.72
1 -16 16 9.06 1.42
1 -16 16 9.77 1.22
2 -16 16 4.3 1.02
2 -16 16 3.06 0.7
2 -16 16 2.3 0.93
2 -16 16 4.05 0.8
3 -16 16 0.44 0.84
3 -16 16 1.63 0.57
3 -16 16 1.5 0.91
4 -16 16 7.1 1.18
4 -16 16 6.57 0.93
5 -16 16 6.33 0.92
5 -16 16 6.58 1.14
6 -16 16 0.56 0.55
-7 -15 16 0.96 0.48
-7 -15 16 1.66 0.61
-6 -15 16 0.1 0.46
-6 -15 16 0.32 0.63
-5 -15 16 -0.06 0.67
-5 -15 16 -0.27 0.49
-4 -15 16 -1.84 0.87
-4 -15 16 0.5 0.66
-4 -15 16 1 0.76
-4 -15 16 0.15 0.5
-3 -15 16 2.92 0.82
-3 -15 16 5.14 0.77
-3 -15 16 3.79 1.02
-3 -15 16 3.43 0.56
-3 -15 16 1.76 0.71
-2 -15 16 2.69 0.66
-2 -15 16 1.81 0.7
-2 -15 16 1.47 0.51
-2 -15 16 3.22 0.95
-2 -15 16 2.26 0.8
-1 -15 16 0.36 0.46
-1 -15 16 2.4 0.91
-1 -15 16 0.88 0.66
-1 -15 16 1.08 0.62
-1 -15 16 2 0.78
0 -15 16 -1.33 0.8
0 -15 16 -0.63 0.6
0 -15 16 -0.07 0.7
0 -15 16 1.06 0.89
1 -15 16 2.37 0.93
1 -15 16 0.74 0.9
1 -15 16 0.94 0.66
1 -15 16 1.43 0.76
2 -15 16 2.89 0.95
2 -15 16 4.42 0.87
2 -15 16 5.56 1.05
2 -15 16 2.35 0.73
3 -15 16 3.89 0.92
3 -15 16 3.53 0.81
3 -15 16 2.79 0.69
3 -15 16 4.51 1.02
4 -15 16 0.75 0.83
4 -15 16 1.09 0.84
4 -15 16 0.8 0.58
5 -15 16 0.23 0.79
5 -15 16 0.1 0.56
6 -15 16 0.46 0.56
7 -15 16 0.96 0.53
-8 -14 16 -0.87 0.55
-8 -14 16 0.59 0.43
-7 -14 16 11.33 1.18
-7 -14 16 10.16 0.97
-6 -14 16 2.95 0.56
-6 -14 16 2.43 0.75
-5 -14 16 -0.37 0.49
-5 -14 16 -0.11 0.69
-5 -14 16 1.05 0.71
-4 -14 16 -0.21 0.5
-4 -14 16 0.05 0.7
-4 -14 16 -1.13 0.9
-4 -14 16 0.03 0.7
-3 -14 16 0.26 0.75
-3 -14 16 0.71 0.93
-3 -14 16 0.19 0.5
-3 -14 16 -0.11 0.65
-2 -14 16 12.47 1.38
-2 -14 16 13.44 1.89
-2 -14 16 11.23 1.43
-2 -14 16 12.36 1.15
-1 -14 16 1.93 0.78
-1 -14 16 4.17 0.93
-1 -14 16 4.3 1.05
-1 -14 16 4.7 0.59
-1 -14 16 5.21 0.77
-1 -14 16 5.76 1.08
0 -14 16 0.46 0.66
0 -14 16 2.63 0.93
0 -14 16 2.09 0.92
0 -14 16 1.32 0.76
0 -14 16 1.22 0.48
1 -14 16 1.06 0.75
1 -14 16 3.33 0.95
1 -14 16 2.46 0.87
1 -14 16 1.24 0.66
2 -14 16 8.07 1.28
2 -14 16 6.83 1
2 -14 16 5.73 1.15
2 -14 16 7.07 1.04
3 -14 16 1.08 0.64
3 -14 16 0.93 0.83
3 -14 16 3.2 0.99
3 -14 16 1.7 0.74
4 -14 16 0.18 0.57
4 -14 16 0.64 0.8
4 -14 16 1.17 0.89
5 -14 16 3.53 0.95
5 -14 16 3.68 0.97
5 -14 16 2.9 0.71
6 -14 16 0.53 0.56
7 -14 16 2.93 0.62
-8 -13 16 -0.25 0.44
-8 -13 16 0.33 0.61
-7 -13 16 1.24 0.5
-7 -13 16 0.69 0.67
-6 -13 16 -0.82 0.69
-6 -13 16 1.25 0.71
-6 -13 16 1.56 0.52
-5 -13 16 -0.04 0.69
-5 -13 16 0.68 0.52
-5 -13 16 1.83 0.78
-4 -13 16 6.21 0.97
-4 -13 16 6.11 0.73
-4 -13 16 3.75 1.16
-4 -13 16 6.64 0.93
-3 -13 16 1.63 0.78
-3 -13 16 -0.37 0.67
-3 -13 16 0.24 0.47
-3 -13 16 -0.64 0.91
-2 -13 16 -1.35 0.81
-2 -13 16 0.57 0.45
-2 -13 16 2.94 0.92
-2 -13 16 0.15 0.74
-2 -13 16 0.98 0.66
-1 -13 16 0.72 0.76
-1 -13 16 1.96 0.91
-1 -13 16 0.89 0.47
-1 -13 16 2.19 0.9
-1 -13 16 -0.19 0.64
-1 -13 16 0.87 0.6
0 -13 16 -0.01 0.7
0 -13 16 0.2 0.44
0 -13 16 0.66 0.86
0 -13 16 0.17 0.62
0 -13 16 1.08 0.9
1 -13 16 2.96 0.93
1 -13 16 1.58 0.67
1 -13 16 1.85 0.85
1 -13 16 1.22 0.76
2 -13 16 2.81 0.96
2 -13 16 1.64 0.77
2 -13 16 1.34 0.9
2 -13 16 1.62 0.69
3 -13 16 2.01 0.89
3 -13 16 0.76 0.74
3 -13 16 -0.52 0.62
3 -13 16 2.05 0.95
4 -13 16 3.41 0.98
4 -13 16 3.37 0.74
4 -13 16 4.31 1
4 -13 16 3.12 0.81
5 -13 16 11.1 1.44
5 -13 16 9.56 1.21
5 -13 16 10 1.47
6 -13 16 6.11 0.86
6 -13 16 5.1 1.07
7 -13 16 0.33 0.54
8 -13 16 4.49 0.74
-9 -12 16 2.42 0.46
-9 -12 16 2.37 0.43
-9 -12 16 1.83 0.62
-8 -12 16 1.97 0.44
-8 -12 16 3.02 0.7
-8 -12 16 3.18 0.54
-7 -12 16 1.2 0.54
-7 -12 16 2.21 0.44
-7 -12 16 2.57 0.71
-6 -12 16 0.08 0.64
-6 -12 16 -0.18 0.49
-6 -12 16 0.62 0.71
-6 -12 16 -0.38 0.38
-5 -12 16 7.79 1.06
-5 -12 16 8.32 0.83
-5 -12 16 7.47 0.76
-5 -12 16 7.1 1.04
-4 -12 16 0.53 0.71
-4 -12 16 0.36 0.52
-4 -12 16 0.34 0.72
-4 -12 16 -1.49 0.95
-3 -12 16 0.93 0.48
-3 -12 16 1.43 0.74
-3 -12 16 0.43 0.67
-3 -12 16 0.61 0.91
-2 -12 16 0.6 0.73
-2 -12 16 1.05 0.63
-2 -12 16 0.79 0.47
-2 -12 16 1.32 0.89
-2 -12 16 0.37 0.84
-1 -12 16 1.3 0.75
-1 -12 16 1.58 0.88
-1 -12 16 1.9 0.9
-1 -12 16 2.08 0.49
-1 -12 16 0.69 0.59
0 12 -16 2.19 0.84
0 -12 16 1.89 0.47
0 -12 16 1.92 0.76
0 -12 16 2.48 0.92
0 -12 16 0.9 0.59
0 -12 16 1.6 0.86
0 -12 16 1.2 0.67
-1 12 -16 0.75 0.74
1 -12 16 0.58 0.81
1 -12 16 0.81 0.84
1 -12 16 -0.07 0.7
1 -12 16 0 0.6
1 -12 16 0.61 0.42
2 -12 16 0.59 0.73
2 -12 16 -0.18 0.87
2 -12 16 0.72 0.62
2 -12 16 1.73 0.93
3 -12 16 0.27 0.85
3 -12 16 -0.66 0.7
3 -12 16 1.82 0.92
3 -12 16 0.79 0.64
4 -12 16 0.8 0.71
4 -12 16 1.09 0.62
4 -12 16 0.71 0.86
4 -12 16 1.09 0.9
5 -12 16 2.14 0.9
5 -12 16 2.28 0.62
5 -12 16 1.21 0.89
6 -12 16 1.1 0.57
6 -12 16 0.73 0.85
7 -12 16 3.49 0.97
7 -12 16 4.26 0.75
8 -12 16 1.04 0.54
-9 -11 16 3.52 0.71
-9 -11 16 3.89 0.54
-9 -11 16 3.59 0.5
-8 -11 16 6.48 0.83
-8 -11 16 5.73 0.65
-8 -11 16 4.03 0.6
-7 -11 16 3.69 0.57
-7 -11 16 5.03 0.66
-7 -11 16 4.33 0.8
-6 -11 16 9.2 1.09
-6 -11 16 10.02 0.89
-6 -11 16 7.12 0.81
-5 -11 16 2.17 0.56
-5 -11 16 2.21 0.72
-5 -11 16 2.93 0.77
-5 -11 16 2.7 0.49
-4 -11 16 3.24 0.57
-4 -11 16 3.63 0.77
-4 -11 16 2.67 0.79
-4 -11 16 2.11 0.47
-3 -11 16 6.83 1.25
-3 -11 16 6.79 0.72
-3 -11 16 7.39 0.95
-3 -11 16 7.12 0.76
-3 -11 16 7.36 1.05
-2 -11 16 1.34 0.49
-2 -11 16 0.82 0.39
-2 -11 16 1.2 0.77
-2 -11 16 1.04 0.84
-2 -11 16 1.13 0.63
-2 -11 16 1.38 0.87
1 11 -16 1.35 0.83
-1 -11 16 1.29 0.39
-1 -11 16 1.95 0.61
-1 -11 16 0.37 0.85
-1 -11 16 1.64 0.86
-1 -11 16 0.16 0.72
-1 -11 16 0.95 0.46
0 11 -16 0.62 0.79
0 -11 16 0.09 0.58
0 -11 16 0.3 0.35
0 -11 16 0.25 0.42
0 -11 16 1.49 0.85
0 -11 16 0.3 0.69
0 -11 16 -0.34 0.79
-1 11 -16 0.7 0.78
1 -11 16 2.37 0.94
1 -11 16 1.34 0.62
1 -11 16 1.17 0.71
1 -11 16 2.81 0.92
1 -11 16 0.84 0.38
1 -11 16 0.71 0.43
-2 11 -16 0.05 0.75
2 -11 16 0.91 0.71
2 -11 16 2.34 0.65
2 -11 16 1.86 0.87
2 -11 16 1.25 0.37
2 -11 16 3.44 0.95
3 -11 16 7.07 1.15
3 -11 16 8.72 1.4
3 -11 16 11.84 1.7
3 -11 16 12.42 1.36
4 -11 16 3.42 0.98
4 -11 16 3.31 0.73
4 -11 16 2.83 0.94
4 -11 16 2.56 0.78
5 -11 16 0.19 0.85
5 -11 16 -0.36 0.82
5 -11 16 -0.38 0.56
6 -11 16 8.57 1.13
6 -11 16 7.53 1.28
7 -11 16 2.78 0.93
7 -11 16 2.91 0.7
8 -11 16 17.25 1.86
9 -11 16 -0.07 0.49
-9 -10 16 0.14 0.6
-9 -10 16 0.44 0.44
-9 -10 16 -0.2 0.44
-8 -10 16 10.63 1.07
-8 -10 16 12.22 1.21
-8 -10 16 9.78 0.98
-7 -10 16 13.75 1.47
-7 -10 16 13.78 1.24
-7 -10 16 11.97 1.23
-6 -10 16 0.11 0.69
-6 -10 16 1.16 0.52
-6 -10 16 0.42 0.46
-5 -10 16 0.05 0.44
-5 -10 16 2.34 0.71
-5 -10 16 0.87 0.51
-5 -10 16 1.01 0.67
-4 -10 16 3.29 0.53
-4 -10 16 3.53 0.83
-4 -10 16 5.09 0.81
-4 -10 16 4.95 0.62
-3 -10 16 -1.09 0.74
-3 -10 16 -0.95 0.88
-3 -10 16 0.7 0.65
-3 -10 16 -0.02 0.39
-3 -10 16 0.33 0.44
-3 -10 16 1.08 0.73
2 10 -16 -0.36 0.77
-2 -10 16 -0.76 0.87
-2 -10 16 -0.32 0.44
-2 -10 16 1 0.59
-2 -10 16 0.39 0.39
-2 -10 16 0.99 0.8
-2 -10 16 0.61 0.72
1 10 -16 8.37 1.15
-1 -10 16 8.53 0.96
-1 -10 16 7.26 0.73
-1 -10 16 7 0.77
-1 -10 16 7.46 1.29
-1 -10 16 8.85 1.28
-1 -10 16 8.38 1.09
0 10 -16 5.66 1
0 -10 16 8.37 1.2
0 -10 16 6.93 1.16
0 -10 16 6.2 0.82
0 -10 16 6.19 0.65
0 -10 16 6 0.68
0 -10 16 5.06 0.9
-1 10 -16 1.85 0.77
1 -10 16 0.82 0.43
1 -10 16 1.29 0.7
1 -10 16 2.36 0.88
1 -10 16 2.42 0.88
-2 10 -16 1.05 0.72
2 -10 16 1.6 0.88
2 -10 16 1.09 0.42
2 -10 16 1.21 0.62
2 -10 16 0.95 0.38
2 -10 16 1.05 0.68
2 -10 16 1.34 0.81
-3 10 -16 0 0.71
3 -10 16 1.38 0.36
3 -10 16 2.93 0.92
3 -10 16 2.26 0.85
3 -10 16 1.47 0.71
3 -10 16 1.54 0.65
4 -10 16 1.91 0.86
4 -10 16 0.96 0.86
4 -10 16 1.33 0.71
4 -10 16 0.85 0.59
5 -10 16 5.11 0.89
5 -10 16 4.84 1.08
5 -10 16 6.28 0.83
5 -10 16 5.3 0.51
6 -10 16 1.41 0.87
6 -10 16 0.02 0.53
7 -10 16 3.27 0.69
7 -10 16 3.1 1
8 -10 16 0.46 0.85
8 -10 16 1.14 0.56
9 -10 16 -0.2 0.5
-10 -9 16 0.27 0.53
-10 -9 16 0.32 0.44
-9 -9 16 2.6 0.54
-9 -9 16 2.63 0.5
-9 -9 16 2.97 0.7
-8 -9 16 1.13 0.54
-8 -9 16 1.51 0.69
-8 -9 16 2.23 0.5
-7 -9 16 3.3 0.64
-7 -9 16 4.55 0.83
-7 -9 16 5.77 0.67
-6 -9 16 2.32 0.56
-6 -9 16 2.83 0.58
-6 -9 16 2.3 0.71
-5 -9 16 5.81 0.69
-5 -9 16 6.12 0.9
-5 -9 16 6.3 0.72
-5 -9 16 5.55 0.92
-4 -9 16 2 0.5
-4 -9 16 0.94 0.65
-4 -9 16 0.83 0.43
-4 -9 16 1.38 0.7
-3 -9 16 14.65 1.57
-3 -9 16 11.05 1.4
-3 -9 16 14.57 1.45
-3 -9 16 13.34 1.15
-3 -9 16 11.28 1.74
-3 -9 16 12.54 1.15
2 9 -16 0.02 0.77
-2 -9 16 -0.12 0.65
-2 -9 16 0.62 0.59
-2 -9 16 0.29 0.44
-2 -9 16 -0.13 0.84
-2 -9 16 0.81 0.73
-2 -9 16 0.26 0.38
1 9 -16 4.87 1
-1 -9 16 6.89 0.8
-1 -9 16 5.25 0.59
-1 -9 16 4.67 0.86
-1 -9 16 5.06 0.62
-1 -9 16 4.46 1.08
-1 -9 16 6.99 1.08
0 9 -16 0.05 0.73
0 -9 16 0.5 0.83
0 -9 16 -0.13 0.6
0 -9 16 0.27 0.55
0 -9 16 0.28 0.36
0 -9 16 0.15 0.41
0 -9 16 0.07 0.86
-1 9 -16 2.43 0.73
1 -9 16 2.56 0.88
1 -9 16 2.04 0.82
1 -9 16 1.93 0.67
1 -9 16 1.89 0.45
-2 9 -16 0.27 0.71
2 -9 16 0.66 0.85
2 -9 16 1.04 0.61
2 -9 16 0.49 0.64
2 -9 16 0.05 0.36
2 -9 16 -0.12 0.35
2 -9 16 0.34 0.77
-3 9 -16 3.67 0.86
3 -9 16 3.66 0.81
3 -9 16 5.79 1.07
3 -9 16 5.9 1
4 -9 16 0.79 0.82
4 -9 16 0.99 0.86
4 -9 16 0.58 0.65
4 -9 16 0.52 0.56
5 -9 16 0.21 0.83
5 -9 16 0.74 0.54
5 -9 16 0.42 0.3
5 -9 16 0.86 0.67
6 -9 16 2.25 0.61
6 -9 16 2.53 0.9
6 -9 16 1.68 0.33
7 -9 16 1.35 0.85
7 -9 16 -0.27 0.54
8 -9 16 0.76 0.56
8 -9 16 0.74 0.87
9 -9 16 0.1 0.49
-10 -8 16 3.32 0.63
-10 -8 16 4.13 0.58
-9 -8 16 -0.02 0.43
-9 -8 16 0.24 0.59
-9 -8 16 -0.53 0.5
-8 -8 16 0.73 0.66
-8 -8 16 0.16 0.47
-8 -8 16 0.27 0.53
-7 -8 16 1 0.57
-7 -8 16 1.95 0.54
-7 -8 16 2.04 0.69
-6 -8 16 11.48 0.98
-6 -8 16 9.82 1.14
-6 -8 16 9.51 0.99
-5 -8 16 1.01 0.49
-5 -8 16 0.53 0.47
-5 -8 16 0.76 0.62
-5 -8 16 1.27 0.64
-4 -8 16 3.11 0.53
-4 -8 16 3.33 0.8
-4 -8 16 2.77 0.69
-4 -8 16 3.98 0.57
3 8 -16 0.09 0.8
-3 -8 16 0.41 0.58
-3 -8 16 0.56 0.43
-3 -8 16 -1.23 0.67
-3 -8 16 0.21 0.86
-3 -8 16 0.44 0.38
2 8 -16 6.86 1.11
-2 -8 16 6.27 0.85
-2 -8 16 7.85 1.01
-2 -8 16 7.22 0.7
-2 -8 16 6.62 1.23
-2 -8 16 6.52 1.02
-2 -8 16 6.89 0.72
1 8 -16 3.02 0.85
-1 -8 16 1.99 0.44
-1 -8 16 2.46 0.94
-1 -8 16 4.02 0.9
-1 -8 16 3.22 0.72
-1 -8 16 2.5 0.61
-1 -8 16 2.36 0.47
0 8 -16 2.4 0.78
0 -8 16 1.11 0.45
0 -8 16 2.34 0.84
0 -8 16 0.97 0.94
0 -8 16 2.35 0.42
0 -8 16 1.39 0.65
0 -8 16 2.1 0.6
-1 8 -16 6.7 1
1 -8 16 5.88 1.2
1 -8 16 6.96 0.67
1 -8 16 8.12 1.19
1 -8 16 7.47 0.7
1 -8 16 5.55 0.9
-2 8 -16 1.54 0.76
2 -8 16 3.02 0.93
2 -8 16 3.43 0.68
2 -8 16 2.66 0.44
2 -8 16 1.52 0.69
2 -8 16 3.03 0.85
3 -8 16 0.89 0.35
3 -8 16 0.7 0.57
3 -8 16 0.36 0.86
3 -8 16 1.17 0.63
3 -8 16 0.51 0.78
4 -8 16 0.89 0.65
4 -8 16 2.2 0.91
4 -8 16 2.18 0.6
5 -8 16 0.45 0.31
5 -8 16 -0.19 0.64
5 -8 16 -0.15 0.81
5 -8 16 0.21 0.5
6 -8 16 0.84 0.31
6 -8 16 1.1 0.53
6 -8 16 1.34 0.94
7 -8 16 3.31 0.97
7 -8 16 1.63 0.6
7 -8 16 2.21 0.36
8 -8 16 0.43 0.88
8 -8 16 0.98 0.56
9 -8 16 0.3 0.49
10 -8 16 0.14 0.41
-10 -7 16 0.61 0.5
-10 -7 16 0.1 0.5
-9 -7 16 0.64 0.53
-9 -7 16 0.32 0.59
-8 -7 16 1.71 0.66
-8 -7 16 1.48 0.59
-8 -7 16 1.74 0.5
-7 -7 16 2.21 0.64
-7 -7 16 3.6 0.58
-7 -7 16 3.02 0.73
-6 -7 16 1.86 0.63
-6 -7 16 1.73 0.56
-6 -7 16 1.15 0.5
-5 -7 16 -0.44 0.59
-5 -7 16 -0.69 0.46
-5 -7 16 0.79 0.6
-5 -7 16 0.74 0.46
-4 -7 16 0.31 0.47
-4 -7 16 0.43 0.57
-4 -7 16 -0.07 0.42
-4 -7 16 0.52 0.65
3 7 -16 0.68 0.78
-3 -7 16 0.82 0.71
-3 -7 16 0.31 0.42
-3 -7 16 0.87 0.39
-3 -7 16 1.11 0.57
2 7 -16 2.01 0.81
-2 -7 16 0.75 0.41
-2 -7 16 2.5 0.72
-2 -7 16 2.02 0.57
-2 -7 16 0.21 0.9
-2 -7 16 1.26 0.46
1 7 -16 5.1 0.97
-1 -7 16 5.09 0.58
-1 -7 16 4.85 0.62
-1 -7 16 4.82 0.86
-1 -7 16 5.79 0.73
-1 -7 16 6.97 0.97
-1 -7 16 4.64 1.11
0 7 -16 2.33 0.8
0 -7 16 2.88 1.02
0 -7 16 2.95 0.49
0 -7 16 3.71 0.85
0 -7 16 3.5 0.72
0 -7 16 2.95 0.46
-1 7 -16 5.53 0.95
1 -7 16 5.02 1.12
1 -7 16 5.16 0.58
1 -7 16 4.81 0.83
1 -7 16 6.06 0.99
1 -7 16 3.73 0.53
2 -7 16 5.85 0.83
2 -7 16 5.01 1.01
2 -7 16 5.59 0.59
2 -7 16 3.61 0.82
2 -7 16 5.25 0.59
3 -7 16 3.35 0.91
3 -7 16 3.46 0.67
3 -7 16 3.19 0.75
3 -7 16 1.99 0.41
4 -7 16 0.08 0.66
4 -7 16 0.7 0.82
4 -7 16 0.08 0.5
5 -7 16 -0.71 0.78
5 -7 16 -0.06 0.63
5 -7 16 0.02 0.31
5 -7 16 0.21 0.47
6 -7 16 16.36 1.14
6 -7 16 17.78 1.92
6 -7 16 12.84 1.65
7 -7 16 9.76 1.33
7 -7 16 10.86 1.47
7 -7 16 12.47 0.91
8 -7 16 6.13 0.53
8 -7 16 5.06 1.08
8 -7 16 6.05 0.85
9 -7 16 0.42 0.48
-10 -6 16 1.32 0.53
-9 -6 16 10.32 1.03
-8 -6 16 -0.4 0.61
-8 -6 16 0.17 0.49
-8 -6 16 -0.02 0.58
-7 -6 16 1.09 0.59
-7 -6 16 0.47 0.5
-7 -6 16 0.34 0.62
-6 -6 16 11.15 1.03
-6 -6 16 10.75 1.05
-6 -6 16 9.87 1.12
-5 -6 16 6.49 0.71
-5 -6 16 6.17 0.73
-5 -6 16 6.07 0.83
-4 -6 16 6.94 0.72
-4 -6 16 5.95 0.83
-4 -6 16 6.9 0.94
-4 -6 16 6.83 0.71
3 6 -16 7.89 1.06
-3 -6 16 10.3 0.99
-3 -6 16 6.46 0.73
-3 -6 16 6.17 0.7
-3 -6 16 6.88 0.98
2 6 -16 2.94 0.85
-2 -6 16 2.19 0.96
-2 -6 16 3.43 0.49
-2 -6 16 4.16 0.78
-2 -6 16 3.13 0.61
-2 -6 16 2.65 0.51
1 6 -16 3.95 0.84
-1 -6 16 3.11 0.51
-1 -6 16 6.96 0.86
-1 -6 16 4.25 0.75
-1 -6 16 4.33 0.63
-1 -6 16 2.79 1.03
-1 -6 16 3.39 0.55
0 6 -16 18.21 1.67
0 -6 16 16.6 1.29
0 -6 16 14.7 2.48
0 -6 16 14.78 1.57
0 -6 16 17.73 1.8
0 -6 16 12.78 1.28
1 -6 16 14.79 1.49
1 -6 16 13.4 1.2
1 -6 16 14.67 1.72
1 -6 16 13.76 2.36
1 -6 16 15.19 1.21
2 -6 16 2.08 0.67
2 -6 16 0.73 0.37
2 -6 16 1.34 0.82
2 -6 16 2.89 0.82
2 -6 16 1.8 0.62
3 -6 16 18.64 1.96
3 -6 16 18.63 2.71
3 -6 16 17.55 1.76
3 -6 16 18.4 2.07
3 -6 16 18.29 1.46
4 -6 16 2.17 0.69
4 -6 16 1.83 0.55
4 -6 16 2.27 0.81
5 -6 16 2.93 0.41
5 -6 16 3.85 0.96
5 -6 16 2.29 0.57
5 -6 16 1.85 0.71
6 -6 16 1.01 0.64
6 -6 16 0.73 0.31
6 -6 16 0.07 0.47
6 -6 16 0.7 0.82
7 -6 16 0.26 0.29
7 -6 16 -0.06 0.54
7 -6 16 0.16 0.87
8 -6 16 -0.4 0.88
8 -6 16 -0.07 0.26
-10 -5 16 -0.56 0.53
-9 -5 16 2.1 0.61
-8 -5 16 -0.82 0.58
-7 -5 16 12.06 1.14
-7 -5 16 11.02 1.12
-6 -5 16 0.97 0.49
-6 -5 16 0.05 0.53
-5 -5 16 5.24 0.64
-5 -5 16 4.54 0.67
4 5 -16 0.52 0.73
-4 -5 16 0.75 0.44
-4 -5 16 0.66 0.45
-4 -5 16 0.47 0.62
3 5 -16 39.88 3.52
-3 -5 16 40.08 3.06
-3 -5 16 42.41 3.44
-3 -5 16 41.56 5.25
-3 -5 16 40.36 3.01
2 5 -16 13.4 1.45
-2 -5 16 13.24 2.21
-2 -5 16 12.26 1.16
-2 -5 16 15.19 1.41
-2 -5 16 12.22 1.14
1 5 -16 -1.1 0.68
-1 -5 16 -0.21 0.36
-1 -5 16 0.56 0.63
-1 -5 16 -0.33 0.76
-1 -5 16 0.3 0.36
0 5 -16 -0.05 0.77
0 -5 16 0.2 0.35
0 -5 16 0.55 0.62
0 -5 16 -0.03 0.37
0 -5 16 0.82 0.67
0 -5 16 -0.01 0.74
1 -5 16 0.23 0.79
1 -5 16 -0.32 0.66
1 -5 16 0.14 0.61
1 -5 16 -0.24 0.34
1 -5 16 0.02 0.37
2 -5 16 4.13 0.55
2 -5 16 6.55 1
2 -5 16 5.5 0.8
2 -5 16 4.57 1.05
2 -5 16 5.98 0.85
3 -5 16 33.23 3.77
3 -5 16 25.22 2.11
3 -5 16 26.97 2.82
3 -5 16 28.81 2.85
3 -5 16 27.64 2.47
4 -5 16 -0.11 0.46
4 -5 16 0.22 0.63
4 -5 16 0.04 0.31
4 -5 16 -0.03 0.8
4 -5 16 0.08 0.69
5 -5 16 1.72 0.88
5 -5 16 1.76 0.37
5 -5 16 0.94 0.71
6 -5 16 -0.12 0.83
6 -5 16 1.26 0.7
6 -5 16 0.82 0.32
7 -5 16 0.18 0.31
7 -5 16 -0.14 0.82
8 -5 16 0.19 0.84
8 -5 16 0.2 0.27
-10 -4 16 0.38 0.55
-9 -4 16 -0.03 0.58
-8 -4 16 0.54 0.6
-7 -4 16 0.75 0.6
-6 -4 16 5.08 0.73
-6 -4 16 5.61 0.67
-5 -4 16 11.28 1.14
-5 -4 16 13.51 1.2
4 4 -16 2.05 0.76
-4 -4 16 1.73 0.88
-4 -4 16 3.17 0.69
-4 -4 16 3.03 0.5
-4 -4 16 3.01 0.51
3 4 -16 0.08 0.73
-3 -4 16 0.17 0.4
-3 -4 16 0.72 0.41
-3 -4 16 1.13 0.82
-3 -4 16 0.84 0.63
2 4 -16 0.27 0.67
-2 -4 16 0.39 0.39
-2 -4 16 0.87 0.78
-2 -4 16 -0.09 0.38
-2 -4 16 -0.21 0.61
1 4 -16 2.17 0.76
-1 -4 16 2.17 0.42
-1 -4 16 2.33 0.87
-1 -4 16 3.03 0.45
-1 -4 16 1.76 0.67
0 -4 16 6.9 0.87
0 -4 16 4.72 1.06
0 -4 16 4.8 0.57
0 -4 16 5.2 0.59
0 -4 16 5.88 0.91
1 -4 16 1.75 0.85
1 -4 16 3.52 0.8
1 -4 16 1.61 0.41
1 -4 16 2.82 0.71
2 -4 16 -0.38 0.35
2 -4 16 0.71 0.75
2 -4 16 -0.01 0.7
2 -4 16 -0.21 0.63
3 -4 16 1.77 0.37
3 -4 16 1.75 0.79
3 -4 16 2.3 0.71
3 -4 16 1.59 0.8
4 -4 16 2.67 0.41
4 -4 16 4.01 0.9
4 -4 16 3.19 0.88
4 -4 16 2.84 0.79
5 -4 16 0.93 0.75
5 -4 16 1.9 0.85
5 -4 16 1.38 0.35
6 -4 16 0.52 0.74
6 -4 16 1.1 0.87
6 -4 16 0.62 0.34
7 -4 16 1.94 0.99
7 -4 16 1.07 0.34
7 -4 16 0.59 0.75
8 -4 16 0.88 0.31
8 -4 16 0.88 0.86
-10 -3 16 0.53 0.55
-9 -3 16 0.79 0.59
-8 -3 16 1.73 0.63
-7 -3 16 3.83 0.69
-6 -3 16 2.15 0.59
-6 -3 16 2.92 0.52
-5 -3 16 0.96 0.5
-5 -3 16 0.69 0.75
-5 -3 16 0.85 0.42
4 3 -16 2.95 0.76
-4 -3 16 2.48 0.49
-4 -3 16 2.27 0.89
-4 -3 16 2 0.44
3 3 -16 3.58 0.84
-3 -3 16 3.26 0.5
-3 -3 16 3.18 0.51
-3 -3 16 6.09 0.78
-3 -3 16 3.81 1.01
2 3 -16 -0.25 0.65
-2 -3 16 -0.38 0.36
-2 -3 16 0.11 0.73
-2 -3 16 0.52 0.6
-2 -3 16 0.03 0.38
1 3 -16 -0.05 0.66
-1 -3 16 -0.17 0.76
-1 -3 16 -0.45 0.35
-1 -3 16 -0.27 0.38
-1 -3 16 0.37 0.59
0 -3 16 0.32 0.38
0 -3 16 0.32 0.64
0 -3 16 0.23 0.74
1 -3 16 0.6 0.65
1 -3 16 0.48 0.63
1 -3 16 0.38 0.36
1 -3 16 0.7 0.77
2 -3 16 -0.01 0.64
2 -3 16 0.11 0.35
2 -3 16 0.34 0.74
2 -3 16 0.07 0.71
3 -3 16 7.45 1.37
3 -3 16 9.3 1.09
3 -3 16 10.14 1.27
3 -3 16 7.55 0.75
4 -3 16 13.13 1.55
4 -3 16 15.77 2.31
4 -3 16 18.52 1.87
4 -3 16 13.05 1.11
5 -3 16 0.42 0.73
5 -3 16 1.09 0.83
5 -3 16 0.24 0.33
6 -3 16 -0.15 0.75
6 -3 16 0.71 0.84
6 -3 16 -0.04 0.35
7 -3 16 0.3 0.78
7 -3 16 1.11 0.36
7 -3 16 0.87 0.89
8 -3 16 4.15 1.11
-10 -2 16 0.52 0.53
-9 -2 16 0.75 0.58
-8 -2 16 4.78 0.74
-7 -2 16 5.17 0.75
-6 -2 16 0.72 0.55
-5 -2 16 2.59 0.53
-5 -2 16 2.63 0.85
-5 -2 16 2.46 0.49
4 2 -16 -0.23 0.65
-4 -2 16 0.58 0.39
-4 -2 16 0.46 0.79
-4 -2 16 0.53 0.41
3 2 -16 2.67 0.73
-3 -2 16 2.64 0.45
-3 -2 16 2.3 0.45
-3 -2 16 2.85 0.65
-3 -2 16 2.19 0.88
2 2 -16 5.55 0.89
-2 -2 16 5.15 0.6
-2 -2 16 6.68 0.85
-2 -2 16 5.61 1.15
1 2 -16 1.86 0.74
-1 -2 16 1.7 0.84
-1 -2 16 2.38 0.69
-1 -2 16 2.04 0.43
0 -2 16 0.1 0.36
0 -2 16 0.13 0.6
0 -2 16 0.53 0.78
1 -2 16 4.02 1
1 -2 16 3.23 0.48
1 -2 16 4.57 0.81
2 -2 16 0.39 0.62
2 -2 16 0.24 0.37
2 -2 16 0.88 0.76
2 -2 16 1.15 0.72
3 -2 16 13.21 1.14
3 -2 16 13.65 1.04
3 -2 16 13.89 2.24
3 -2 16 12.79 1.68
3 -2 16 12.74 1.45
4 -2 16 0.31 0.76
4 -2 16 0.14 0.32
4 -2 16 0.97 0.8
4 -2 16 -0.54 0.68
5 -2 16 1.72 0.38
5 -2 16 2.43 0.85
5 -2 16 2.1 0.81
6 -2 16 -0.28 0.85
6 -2 16 -0.12 0.8
6 -2 16 0.02 0.34
7 -2 16 7.76 1.03
7 -2 16 5.38 1.11
7 -2 16 4.71 0.55
8 -2 16 2.38 1.04
-10 -1 16 0.18 0.53
-9 -1 16 1.92 0.6
-8 -1 16 1.18 0.59
-7 -1 16 -0.19 0.56
-6 -1 16 1.13 0.53
-5 -1 16 -0.26 0.78
-5 -1 16 0.43 0.44
-4 -1 16 7.26 1.35
-4 -1 16 7.59 0.74
3 1 -16 1.54 0.67
-3 -1 16 2.17 0.62
-3 -1 16 1.33 0.42
-3 -1 16 1.07 0.79
2 1 -16 9.41 1.14
-2 -1 16 10.6 0.95
-2 -1 16 8.13 1.57
-2 -1 16 11.55 1.13
1 1 -16 3.08 0.81
-1 -1 16 6.35 0.82
-1 -1 16 4.16 0.53
-1 -1 16 3.93 1.01
0 -1 16 6.24 1.28
0 -1 16 6.99 0.7
0 -1 16 9.7 1
1 -1 16 0.67 0.77
1 -1 16 0.39 0.66
1 -1 16 0.55 0.36
2 -1 16 0.51 0.37
2 -1 16 0.39 0.31
2 -1 16 0.74 0.71
2 -1 16 0.46 0.76
2 -1 16 1.4 0.68
3 -1 16 2.98 0.47
3 -1 16 4.45 0.96
3 -1 16 3.8 0.46
3 -1 16 3.45 0.97
3 -1 16 5.37 0.84
4 -1 16 -0.03 0.32
4 -1 16 0.09 0.74
4 -1 16 0.45 0.78
4 -1 16 -0.03 0.71
5 -1 16 1.39 0.39
5 -1 16 1.77 0.81
5 -1 16 1.09 0.82
6 -1 16 4.19 0.95
6 -1 16 3.37 0.48
6 -1 16 3.1 0.89
7 -1 16 7.64 1.22
7 -1 16 6.9 1.1
7 -1 16 6.61 0.64
8 -1 16 1.9 0.92
-10 0 16 4.78 0.65
-9 0 16 0.58 0.54
-8 0 16 0.1 0.56
-7 0 16 2.17 0.58
6 0 -16 2.72 0.98
-6 0 16 4.1 0.61
5 0 -16 -0.25 0.83
-5 0 16 -0.16 0.76
-5 0 16 0.26 0.43
4 0 -16 2.98 0.9
-4 0 16 3.38 0.5
-4 0 16 2.99 0.93
3 0 -16 0.43 0.79
-3 0 16 -0.31 0.71
-3 0 16 0.15 0.39
2 0 -16 0.94 0.65
-2 0 16 1 0.78
-2 0 16 1.54 0.41
-2 0 16 0.82 0.6
1 0 -16 8.26 1.19
-1 0 16 10.28 1.68
-1 0 16 13.52 1.28
-1 0 16 12.4 1.01
0 0 16 7.84 0.77
0 0 16 9.73 1.08
0 0 16 8.57 1.42
1 0 16 2.56 0.93
1 0 16 4.08 0.49
1 0 16 3.73 0.76
1 0 16 3.13 0.41
2 0 16 2.49 0.38
2 0 16 2.12 0.92
2 0 16 3.15 0.46
3 0 16 0.32 0.74
3 0 16 0.27 0.31
3 0 16 -0.26 0.74
3 0 16 0.19 0.35
4 0 16 10.36 1.29
4 0 16 6.89 1.39
4 0 16 8.15 0.72
5 0 16 -0.57 0.74
5 0 16 0.48 0.37
6 0 16 17.09 1.32
6 0 16 16.82 2.04
6 0 16 18.29 1.85
7 0 16 6.83 1.1
7 0 16 6.94 1.21
8 0 16 1.47 0.89
-9 1 16 1.18 0.51
-8 1 16 5.68 0.71
-7 1 16 19.36 1.61
6 -1 -16 0.97 0.93
-6 1 16 4.12 0.57
5 -1 -16 0.77 0.89
-5 1 16 -0.1 0.76
-5 1 16 0.37 0.43
4 -1 -16 20.26 2.44
-4 1 16 23.92 3.14
-4 1 16 22.14 1.74
3 -1 -16 1.52 0.76
-3 1 16 0.71 0.4
-3 1 16 0.66 0.76
2 -1 -16 0.01 0.72
-2 1 16 0.32 0.73
-2 1 16 0.06 0.37
-2 1 16 0.08 0.54
1 -1 -16 0.83 0.68
-1 1 16 2.77 0.68
-1 1 16 1.95 0.41
-1 1 16 1.8 0.91
0 1 16 0.78 0.31
0 1 16 0.92 0.37
0 1 16 2.18 0.68
0 1 16 1.1 0.84
1 1 16 -0.68 0.72
1 1 16 -0.25 0.3
1 1 16 0.89 0.36
2 1 16 5.39 0.49
2 1 16 4.16 1.06
2 1 16 4.55 0.55
3 1 16 5.55 1.24
3 1 16 7.48 1.16
3 1 16 6.87 0.61
4 1 16 1.63 0.39
4 1 16 0.89 0.87
4 1 16 2.85 0.86
5 1 16 12.85 1.61
5 1 16 12.7 1.05
6 1 16 5.12 1.04
6 1 16 4.62 0.54
7 1 16 6.73 1.16
7 1 16 5.84 1.09
5 -2 -16 8.06 1.29
4 -2 -16 1.81 0.84
-4 2 16 2.37 0.87
3 -2 -16 1.32 0.8
-3 2 16 -0.06 0.72
2 -2 -16 4.16 0.89
-2 2 16 3.86 0.74
-2 2 16 3.04 0.98
-1 2 16 0.8 0.8
-1 2 16 1.18 0.63
0 2 16 0.32 0.8
1 2 16 0.21 0.29
1 2 16 -0.51 0.79
2 2 16 0.79 0.78
2 2 16 0.06 0.3
3 2 16 3.37 1.04
3 2 16 4.71 0.49
4 2 16 2.76 0.9
4 2 16 1.68 0.38
4 2 16 -0.44 0.85
5 2 16 1.03 0.37
5 2 16 1.04 0.86
6 2 16 3.45 0.97
7 2 16 12.3 1.61
9 -3 -16 0.55 0.66
8 -3 -16 0.08 0.68
5 -3 -16 5.11 1.07
4 -3 -16 4.17 0.98
-4 3 16 5.6 1.12
3 -3 -16 3.12 0.86
-3 3 16 1.98 0.86
2 -3 -16 1.5 0.8
-2 3 16 -0.18 0.76
1 -3 -16 1.14 0.77
-1 3 16 1.39 0.66
-1 3 16 0.58 0.75
0 3 16 0.24 0.76
1 3 16 4.44 1.09
1 3 16 4.63 0.48
2 3 16 0.29 0.31
2 3 16 -0.99 0.74
3 3 16 1.19 0.36
3 3 16 1.23 0.88
4 3 16 16.26 2.83
4 3 16 19.54 1.37
5 3 16 0.62 0.78
6 3 16 2.05 0.87
8 -4 -16 1.29 0.7
7 -4 -16 6.12 1.05
6 -4 -16 5.92 1
5 -4 -16 7.87 1.15
4 -4 -16 4.64 0.99
-4 4 16 4.04 1.03
3 -4 -16 3.61 0.9
-3 4 16 1.65 0.86
2 -4 -16 0.47 0.82
-2 4 16 -0.65 0.73
1 -4 -16 2.41 0.87
-1 4 16 4.59 0.77
-1 4 16 2.58 0.91
0 4 16 -0.98 0.74
1 4 16 -1.1 0.73
2 4 16 1.44 0.35
2 4 16 0.42 0.82
3 4 16 1.38 0.9
4 4 16 -0.46 0.83
6 4 16 1.15 0.78
8 -5 -16 1.27 0.63
7 -5 -16 -0.22 0.61
6 -5 -16 1.03 0.65
5 -5 -16 1.12 0.64
-4 5 16 -1.98 0.7
3 -5 -16 -0.12 0.84
-3 5 16 -0.93 0.74
2 -5 -16 6.72 1.1
-2 5 16 4.89 1.14
1 -5 -16 2.08 0.83
-1 5 16 -0.22 0.76
0 5 16 -0.28 0.77
1 5 16 0.18 0.79
2 5 16 -2.04 0.78
3 5 16 -1.43 0.79
-4 -5 -16 4.71 0.85
4 5 16 0.71 0.95
-5 -5 -16 0.45 0.74
7 -6 -16 0.24 0.57
6 -6 -16 1.78 0.63
5 -6 -16 0.81 0.58
-3 6 16 -0.97 0.74
-2 6 16 -1.21 0.74
-1 6 16 1.33 0.83
0 6 16 -0.7 0.77
1 6 16 -0.93 0.78
2 6 16 -1.62 0.84
-3 -6 -16 3.51 0.88
-4 -6 -16 0.64 0.7
-5 -6 -16 3.69 0.8
-6 -6 -16 0.78 0.64
6 -7 -16 3.99 0.74
5 -7 -16 2.98 0.65
-2 -7 -16 0.39 0.76
-3 -7 -16 1.7 0.73
-4 -7 -16 1.13 0.71
-5 -7 -16 -0.28 0.63
-6 -7 -16 1.77 0.61
0 -8 -16 17.37 2.05
-1 -8 -16 4.56 0.89
-2 -8 -16 2.11 0.8
-3 -8 -16 0.66 0.74
-4 -8 -16 3.72 0.8
2 -9 -16 0.65 0.4
1 -9 -16 4.48 0.73
0 -9 -16 0.04 0.6
0 -9 -16 0.68 0.61
-1 -9 -16 0.74 0.6
-2 -9 -16 -0.12 0.61
-3 -9 -16 1.2 0.62
-3 -18 17 5.58 0.59
-3 -18 17 3.84 0.97
-2 -18 17 9.34 0.88
-2 -18 17 7.93 1.31
-1 -18 17 1.14 0.89
0 -18 17 1.66 0.54
0 -18 17 2.64 0.94
1 -18 17 0.8 0.52
1 -18 17 1.25 0.91
2 -18 17 7.49 1.03
2 -18 17 12.38 1.65
3 -18 17 7.8 1.21
3 -18 17 5.59 0.85
-4 -17 17 1.23 0.44
-4 -17 17 -0.81 0.8
-4 -17 17 0.91 0.56
-3 -17 17 0.17 0.85
-3 -17 17 0.19 0.43
-3 -17 17 0.66 0.55
-2 -17 17 0.2 0.87
-2 -17 17 0.25 0.44
-2 -17 17 0.2 0.54
-1 -17 17 0.17 0.88
-1 -17 17 -0.23 0.57
0 -17 17 0.16 0.56
0 -17 17 0.89 0.9
1 -17 17 0.96 0.58
1 -17 17 1.5 0.91
2 -17 17 1.33 0.58
2 -17 17 1.03 0.95
3 -17 17 0.86 0.58
3 -17 17 0.79 0.89
4 -17 17 1.27 0.59
4 -17 17 1.47 0.88
-6 -16 17 1.63 0.46
-6 -16 17 0.94 0.56
-5 -16 17 0.38 0.57
-5 -16 17 0.37 0.46
-4 -16 17 1.81 0.6
-4 -16 17 1.95 0.5
-4 -16 17 -0.51 0.87
-4 -16 17 2.76 0.65
-3 -16 17 0.36 0.48
-3 -16 17 0.74 0.61
-3 -16 17 -0.11 0.9
-3 -16 17 -0.08 0.58
-2 -16 17 0.32 0.44
-2 -16 17 1.49 0.95
-2 -16 17 0.54 0.62
-2 -16 17 1.34 0.61
-2 -16 17 0.02 0.71
-1 -16 17 2.15 0.5
-1 -16 17 1.6 0.65
-1 -16 17 0.98 0.72
-1 -16 17 2.73 0.97
0 -16 17 -0.12 0.61
0 -16 17 -1.15 0.82
0 -16 17 -0.04 0.7
0 -16 17 0.53 0.92
1 -16 17 1 0.64
1 -16 17 1.12 0.69
1 -16 17 0.2 0.8
1 -16 17 3.05 1
2 -16 17 0.42 0.84
2 -16 17 1.94 0.75
2 -16 17 1.01 0.62
2 -16 17 2.95 0.99
3 -16 17 1.47 0.59
3 -16 17 0.42 0.92
4 -16 17 7.23 1.01
4 -16 17 8.72 1.33
5 -16 17 4.11 0.94
5 -16 17 2.4 0.68
-7 -15 17 -0.23 0.56
-6 -15 17 -0.16 0.61
-6 -15 17 0.34 0.47
-5 -15 17 0.56 0.49
-5 -15 17 0.61 0.65
-4 -15 17 15.98 1.46
-4 -15 17 10.09 1.81
-4 -15 17 14.63 1.53
-4 -15 17 14.78 1.25
-3 -15 17 3.01 0.58
-3 -15 17 3.27 0.84
-3 -15 17 2.95 1.03
-3 -15 17 4.06 0.74
-3 -15 17 2.01 0.71
-2 -15 17 -0.15 0.63
-2 -15 17 1.62 0.97
-2 -15 17 1.28 0.5
-2 -15 17 0.87 0.66
-2 -15 17 1.19 0.77
-1 -15 17 0.03 0.46
-1 -15 17 0.88 0.98
-1 -15 17 0.09 0.64
-1 -15 17 0.55 0.76
0 -15 17 0.58 0.91
0 -15 17 1.66 0.51
0 -15 17 2.66 1.02
0 -15 17 1.28 0.67
0 -15 17 1.74 0.8
1 -15 17 0.74 0.89
1 -15 17 -0.7 0.63
1 -15 17 2.08 0.99
1 -15 17 0.86 0.74
2 -15 17 -0.14 0.85
2 -15 17 1.85 0.78
2 -15 17 2.08 1.03
2 -15 17 0.72 0.63
3 -15 17 3.93 1.01
3 -15 17 4.58 0.84
3 -15 17 3.51 0.76
3 -15 17 4.63 1.09
4 -15 17 10.26 1.16
4 -15 17 8.12 1.38
4 -15 17 6.61 1.21
5 -15 17 0.63 0.82
5 -15 17 0.17 0.54
6 -15 17 0.11 0.56
-7 -14 17 0.91 0.62
-7 -14 17 1.24 0.48
-6 -14 17 0.42 0.66
-6 -14 17 0.47 0.52
-5 -14 17 1.82 0.56
-5 -14 17 0.55 0.7
-5 -14 17 1.49 0.71
-4 -14 17 5.44 0.69
-4 -14 17 2.84 1.12
-4 -14 17 4.39 0.82
-4 -14 17 5.48 0.95
-3 -14 17 2.41 0.59
-3 -14 17 2.6 0.82
-3 -14 17 3.4 1.09
-3 -14 17 4.53 0.78
-2 -14 17 -0.27 0.47
-2 -14 17 -1.06 0.64
-2 -14 17 -0.09 0.97
-2 -14 17 -0.1 0.75
-2 -14 17 -0.47 0.62
-1 -14 17 3.92 0.59
-1 -14 17 3.98 0.9
-1 -14 17 3.62 0.73
-1 -14 17 4.19 1.09
-1 -14 17 1.4 0.76
-1 -14 17 3.13 1
0 -14 17 13.08 1.65
0 -14 17 18.36 2.06
0 -14 17 14.84 1.57
0 -14 17 12.23 1.69
0 -14 17 11.59 1.2
1 -14 17 0.53 0.76
1 -14 17 2.89 1.06
1 -14 17 0.92 0.88
1 -14 17 1.09 0.68
2 -14 17 0.24 0.73
2 -14 17 0.32 0.81
2 -14 17 1.68 1.01
2 -14 17 -0.53 0.65
3 -14 17 8.27 1.21
3 -14 17 10.98 1.46
3 -14 17 10.95 1.28
3 -14 17 13.01 1.81
4 -14 17 5.78 1.11
4 -14 17 6.12 1.15
4 -14 17 4.98 0.85
5 -14 17 1.06 0.86
5 -14 17 -0.08 0.83
5 -14 17 -0.39 0.56
6 -14 17 0.86 0.57
7 -14 17 -0.05 0.51
-8 -13 17 2.3 0.49
-8 -13 17 2.64 0.64
-7 -13 17 1.01 0.65
-7 -13 17 1.4 0.52
-6 -13 17 -0.01 0.69
-6 -13 17 -1.64 0.65
-6 -13 17 -0.05 0.51
-5 -13 17 6.35 0.91
-5 -13 17 4.09 0.9
-5 -13 17 5.47 0.71
-4 -13 17 7.53 0.78
-4 -13 17 3.87 1.26
-4 -13 17 7.51 1.06
-4 -13 17 7.25 0.98
-3 -13 17 4.97 1.22
-3 -13 17 4.62 0.96
-3 -13 17 5.96 0.84
-3 -13 17 5.11 0.71
-2 -13 17 -0.07 0.64
-2 -13 17 -0.48 0.92
-2 -13 17 0.31 0.74
-2 -13 17 1.32 1.01
-2 -13 17 0.5 0.51
-1 -13 17 1 0.78
-1 -13 17 2.64 0.55
-1 -13 17 0.77 0.71
-1 -13 17 5.51 1.08
-1 -13 17 3.52 0.97
-1 -13 17 2.49 0.68
0 -13 17 0.66 0.88
0 -13 17 1.66 0.5
0 -13 17 2.41 0.82
0 -13 17 5.72 1.09
0 -13 17 1.67 0.72
1 -13 17 4.6 1.11
1 -13 17 2.04 0.93
1 -13 17 2.44 0.76
1 -13 17 3.08 0.86
2 -13 17 0.33 0.75
2 -13 17 -1.19 0.65
2 -13 17 -0.6 0.81
2 -13 17 2.26 1.02
3 -13 17 9.18 1.22
3 -13 17 10.48 1.52
3 -13 17 8.62 1.39
3 -13 17 9.43 1.22
4 -13 17 6.33 1.22
4 -13 17 6.52 0.99
4 -13 17 6.18 1.15
4 -13 17 5.89 0.9
5 -13 17 7.25 0.98
5 -13 17 8.65 1.28
5 -13 17 7.08 1.26
6 -13 17 1.13 0.9
6 -13 17 0.51 0.56
7 -13 17 0.25 0.54
8 -13 17 0.63 0.5
-8 -12 17 4.21 0.54
-8 -12 17 5.07 0.79
-8 -12 17 5.54 0.64
-7 -12 17 0.13 0.66
-7 -12 17 0.54 0.49
-7 -12 17 0.61 0.39
-6 -12 17 1.29 0.57
-6 -12 17 2.22 0.73
-6 -12 17 0.47 0.43
-5 -12 17 14.92 1.47
-5 -12 17 11.84 1.23
-5 -12 17 14 1.49
-5 -12 17 14.85 1.32
-4 -12 17 3.31 0.81
-4 -12 17 3.37 0.64
-4 -12 17 3.02 0.81
-4 -12 17 3.03 0.52
-3 -12 17 10.8 0.95
-3 -12 17 9.92 1.53
-3 -12 17 8.23 1.18
-3 -12 17 11.1 1.14
-3 -12 17 7.8 0.85
-2 -12 17 0.3 0.68
-2 -12 17 -0.58 0.47
-2 -12 17 0.62 0.99
-2 -12 17 1.11 0.83
-2 -12 17 0.31 0.74
-2 -12 17 0.36 0.4
-1 -12 17 2.67 1.03
-1 -12 17 -0.11 0.62
-1 -12 17 0.8 0.48
-1 -12 17 0.4 0.39
-1 -12 17 -0.41 0.8
-1 -12 17 0.5 0.9
0 12 -17 2.35 0.85
0 -12 17 0.29 0.8
0 -12 17 1.97 0.5
0 -12 17 3.9 1.04
0 -12 17 1.52 0.43
0 -12 17 0.61 0.67
0 -12 17 2.38 0.91
-1 12 -17 -0.33 0.76
1 -12 17 -0.76 0.73
1 -12 17 0.17 0.86
1 -12 17 0.75 0.46
1 -12 17 0.34 0.41
1 -12 17 0 0.65
1 -12 17 2.28 1.02
2 -12 17 2.37 0.47
2 -12 17 4.69 1.08
2 -12 17 3.69 1.02
2 -12 17 2.7 0.76
2 -12 17 2.52 0.85
3 -12 17 9.03 1.34
3 -12 17 8.59 1.4
3 -12 17 6.55 1.11
3 -12 17 8.06 1.11
4 -12 17 2.92 0.86
4 -12 17 5.19 1.07
4 -12 17 4.14 0.8
4 -12 17 4.77 1.1
5 -12 17 9.43 1.14
5 -12 17 5.82 1.24
6 -12 17 1.84 0.84
6 -12 17 1.54 0.61
7 -12 17 0.67 0.57
8 -12 17 0.05 0.5
-9 -11 17 0.38 0.42
-9 -11 17 0.23 0.35
-9 -11 17 -0.65 0.56
-8 -11 17 7.53 0.77
-8 -11 17 8.27 0.82
-8 -11 17 8.84 1.02
-7 -11 17 2.43 0.48
-7 -11 17 3.03 0.58
-7 -11 17 2.47 0.74
-6 -11 17 0.75 0.54
-6 -11 17 -0.43 0.68
-6 -11 17 0.41 0.43
-5 -11 17 5.07 0.91
-5 -11 17 5.7 0.71
-5 -11 17 4.3 0.87
-5 -11 17 5.5 0.65
-4 -11 17 6.31 1.03
-4 -11 17 6.81 0.76
-4 -11 17 8.23 1.04
-4 -11 17 9.16 0.87
-3 -11 17 0.47 0.69
-3 -11 17 0.13 0.5
-3 -11 17 -0.07 0.7
-3 -11 17 -0.88 0.97
-3 -11 17 -0.09 0.41
-2 -11 17 0.57 0.49
-2 -11 17 0.45 0.4
-2 -11 17 -0.34 0.84
-2 -11 17 1.43 0.77
-2 -11 17 0.85 0.97
-2 -11 17 0.14 0.65
1 11 -17 -1.14 0.77
-1 -11 17 0.15 0.61
-1 -11 17 0.53 0.4
-1 -11 17 0.81 0.97
-1 -11 17 0.61 0.86
-1 -11 17 0.65 0.49
-1 -11 17 0.15 0.74
0 11 -17 3.71 0.96
0 -11 17 3.75 0.55
0 -11 17 5.31 0.66
0 -11 17 8.1 1.22
0 -11 17 5.34 0.93
0 -11 17 5.62 1.06
-1 11 -17 -0.5 0.79
1 -11 17 -0.12 0.69
1 -11 17 -0.35 0.38
1 -11 17 -0.13 0.42
1 -11 17 0.59 0.89
1 -11 17 1.59 0.96
1 -11 17 0.09 0.64
-2 11 -17 -0.13 0.77
2 -11 17 0.42 0.88
2 -11 17 -0.24 0.35
2 -11 17 1.29 0.98
2 -11 17 1.14 0.63
2 -11 17 0.56 0.74
3 -11 17 1.67 0.99
3 -11 17 1.65 0.79
3 -11 17 2.64 1.01
3 -11 17 1.52 0.7
4 -11 17 7.37 1.2
4 -11 17 5.42 0.99
4 -11 17 7.29 0.96
4 -11 17 5.1 1.22
5 -11 17 0.18 0.56
5 -11 17 0.47 0.87
6 -11 17 6.78 0.93
6 -11 17 5.59 1.18
7 -11 17 0.72 0.6
7 -11 17 0.99 0.87
8 -11 17 1.33 0.56
-9 -10 17 0.57 0.58
-9 -10 17 0.07 0.41
-9 -10 17 0.1 0.41
-8 -10 17 6.36 0.71
-8 -10 17 5.67 0.89
-8 -10 17 6.31 0.69
-7 -10 17 3.01 0.6
-7 -10 17 2.55 0.76
-7 -10 17 1.99 0.5
-6 -10 17 1.44 0.72
-6 -10 17 0.25 0.47
-6 -10 17 1.4 0.54
-5 -10 17 0.17 0.65
-5 -10 17 -0.53 0.69
-5 -10 17 -0.09 0.52
-5 -10 17 -0.3 0.43
-4 -10 17 8.38 0.82
-4 -10 17 7.52 1.05
-4 -10 17 6.21 0.74
-4 -10 17 7.85 1
-3 -10 17 10.87 1.69
-3 -10 17 13.25 1.39
-3 -10 17 10.77 1.13
-3 -10 17 11.04 1.09
-3 -10 17 12.37 1.37
2 10 -17 -0.2 0.86
-2 -10 17 -0.13 0.49
-2 -10 17 1.07 0.63
-2 -10 17 0.81 0.41
-2 -10 17 0.52 0.78
-2 -10 17 -0.11 0.75
-2 -10 17 -0.57 0.94
1 10 -17 0.12 0.79
-1 -10 17 1.29 0.85
-1 -10 17 -0.23 0.57
-1 -10 17 0.43 0.4
-1 -10 17 0.58 0.94
-1 -10 17 -0.01 0.46
-1 -10 17 -0.19 0.7
0 10 -17 13.39 1.68
0 -10 17 17.71 1.95
0 -10 17 14.13 1.65
0 -10 17 17.95 2.23
0 -10 17 13.31 1.35
0 -10 17 19.05 1.34
-1 10 -17 1.21 0.76
1 -10 17 0.95 0.43
1 -10 17 0.76 0.4
1 -10 17 1.38 0.89
1 -10 17 0.55 0.96
1 -10 17 -0.57 0.7
1 -10 17 0.74 0.63
-2 10 -17 0.9 0.77
2 -10 17 -0.04 0.38
2 -10 17 0.18 0.38
2 -10 17 0.29 0.68
2 -10 17 -0.17 0.85
2 -10 17 0.59 0.95
2 -10 17 -0.3 0.63
-3 10 -17 2.21 0.86
3 -10 17 2.36 0.8
3 -10 17 6 0.83
3 -10 17 3.92 1.09
3 -10 17 6.16 1.12
4 -10 17 9.75 1.15
4 -10 17 11.78 1.47
4 -10 17 5.88 1.11
5 -10 17 -0.32 0.55
5 -10 17 0.15 0.89
5 -10 17 1.53 0.73
5 -10 17 -0.15 0.29
6 -10 17 0.41 0.87
6 -10 17 0.53 0.56
7 -10 17 -0.49 0.56
7 -10 17 0.38 0.84
8 -10 17 0.17 0.52
9 -10 17 1.53 0.52
-9 -9 17 0.67 0.43
-9 -9 17 0.65 0.56
-9 -9 17 -0.21 0.45
-8 -9 17 0.46 0.64
-8 -9 17 -0.22 0.46
-8 -9 17 0.04 0.47
-7 -9 17 1.91 0.52
-7 -9 17 0.35 0.69
-7 -9 17 0.93 0.53
-6 -9 17 4.19 0.65
-6 -9 17 4.81 0.84
-6 -9 17 5.08 0.68
-5 -9 17 0.65 0.65
-5 -9 17 0.29 0.51
-5 -9 17 0.45 0.47
-5 -9 17 -0.07 0.65
-4 -9 17 21.41 1.68
-4 -9 17 21.46 1.72
-4 -9 17 19.98 2
-4 -9 17 20.03 1.99
-3 -9 17 3.98 0.6
-3 -9 17 2.97 0.54
-3 -9 17 2.79 0.69
-3 -9 17 3.45 0.84
-3 -9 17 3.51 1.05
2 9 -17 0.1 0.81
-2 -9 17 1.66 0.96
-2 -9 17 1.05 0.72
-2 -9 17 0.38 0.41
-2 -9 17 0.27 0.48
-2 -9 17 0.45 0.58
-2 -9 17 1.34 0.73
1 9 -17 -0.39 0.78
-1 -9 17 0.78 0.73
-1 -9 17 -0.01 0.94
-1 -9 17 0.38 0.4
-1 -9 17 0.94 0.77
-1 -9 17 0.69 0.57
-1 -9 17 0.01 0.45
0 9 -17 2.66 0.84
0 -9 17 1.46 0.43
0 -9 17 1.29 1.01
0 -9 17 4.08 0.96
0 -9 17 2 0.51
0 -9 17 2.49 0.74
-1 9 -17 -0.06 0.71
1 -9 17 0.71 0.86
1 -9 17 1.24 0.74
1 -9 17 0.18 0.94
1 -9 17 0.6 0.42
1 -9 17 1.16 0.6
1 -9 17 0.43 0.39
-2 9 -17 4.92 0.99
2 -9 17 4.58 1.27
2 -9 17 9.84 1.28
2 -9 17 6.85 0.69
2 -9 17 7.38 0.98
2 -9 17 7.3 0.68
2 -9 17 5.85 0.99
-3 9 -17 1.01 0.78
3 -9 17 2.33 0.98
3 -9 17 1.93 0.41
3 -9 17 0.7 0.68
3 -9 17 1.4 0.64
3 -9 17 1.35 0.91
4 -9 17 16.12 2.07
4 -9 17 18.11 1.92
5 -9 17 -0.33 0.53
5 -9 17 0.73 0.88
5 -9 17 0.8 0.31
5 -9 17 0.71 0.69
6 -9 17 3.83 1.03
6 -9 17 4.71 0.75
6 -9 17 4.11 0.45
7 -9 17 1.24 0.9
7 -9 17 0.07 0.55
8 -9 17 1.47 0.56
9 -9 17 0.7 0.47
-9 -8 17 1.3 0.54
-9 -8 17 1.79 0.58
-8 -8 17 5.24 0.75
-8 -8 17 5.43 0.83
-8 -8 17 7.04 0.72
-7 -8 17 1.97 0.59
-7 -8 17 2.73 0.56
-7 -8 17 0.62 0.69
-6 -8 17 -0.22 0.64
-6 -8 17 0.58 0.53
-6 -8 17 0.65 0.51
-5 -8 17 0.54 0.64
-5 -8 17 -0.41 0.47
-5 -8 17 -0.2 0.49
-5 -8 17 -0.12 0.62
-4 -8 17 1.07 0.45
-4 -8 17 0.89 0.7
-4 -8 17 1.09 0.64
-4 -8 17 1.3 0.52
3 8 -17 0.41 0.81
-3 -8 17 2.15 0.75
-3 -8 17 1.04 0.48
-3 -8 17 0.76 0.43
-3 -8 17 0.12 0.6
2 8 -17 0.47 0.81
-2 -8 17 -0.07 0.67
-2 -8 17 1.19 0.48
-2 -8 17 0.85 0.42
-2 -8 17 1.32 0.97
-2 -8 17 0.08 0.57
1 8 -17 9.2 1.14
-1 -8 17 6.07 1.02
-1 -8 17 5.87 0.69
-1 -8 17 8.35 1.29
-1 -8 17 6.16 0.74
0 8 -17 0.58 0.77
0 -8 17 0.45 0.39
0 -8 17 1.03 0.66
0 -8 17 1.17 0.97
0 -8 17 0.21 0.44
0 -8 17 1.78 0.84
-1 8 -17 21.3 2.22
1 -8 17 24.17 2.52
1 -8 17 20.61 2.14
1 -8 17 23.33 2.94
1 -8 17 23.88 1.84
1 -8 17 26.26 1.83
-2 8 -17 -0.2 0.73
2 -8 17 0.82 0.39
2 -8 17 0.75 0.81
2 -8 17 0.91 0.67
2 -8 17 0.39 0.6
2 -8 17 0.28 0.39
3 -8 17 1.01 0.6
3 -8 17 1.53 0.84
3 -8 17 1.34 0.68
3 -8 17 1.03 0.39
4 -8 17 1.71 0.74
4 -8 17 1.63 0.59
4 -8 17 2.58 0.89
5 -8 17 0.41 0.93
5 -8 17 0.76 0.52
5 -8 17 0.38 0.7
5 -8 17 0.44 0.33
6 -8 17 1.7 0.56
6 -8 17 1.94 0.35
6 -8 17 1.69 0.91
7 -8 17 0.54 0.55
7 -8 17 0.21 0.86
7 -8 17 -0.18 0.28
8 -8 17 -0.1 0.83
8 -8 17 -0.2 0.49
9 -8 17 1.18 0.48
-10 -7 17 -0.08 0.47
-9 -7 17 0.62 0.55
-9 -7 17 1.26 0.56
-8 -7 17 0.45 0.6
-8 -7 17 0.25 0.57
-8 -7 17 0.36 0.48
-7 -7 17 0.11 0.5
-7 -7 17 0.02 0.63
-7 -7 17 0.69 0.58
-6 -7 17 1.12 0.57
-6 -7 17 1.36 0.65
-6 -7 17 1.89 0.52
-5 -7 17 1.46 0.62
-5 -7 17 1.31 0.52
-5 -7 17 1.27 0.5
-4 -7 17 6.76 0.76
-4 -7 17 7.7 0.94
-4 -7 17 8.24 0.83
-4 -7 17 8.41 1.05
3 7 -17 0.59 0.79
-3 -7 17 0.84 0.47
-3 -7 17 1.51 0.75
-3 -7 17 0.23 0.44
-3 -7 17 1.88 0.58
2 7 -17 14.76 1.64
-2 -7 17 12.68 1.42
-2 -7 17 14.53 1.23
-2 -7 17 13.39 1.26
-2 -7 17 16.08 1.54
1 7 -17 7.8 1.12
-1 -7 17 6.54 0.73
-1 -7 17 7.93 1.05
-1 -7 17 7.05 0.77
-1 -7 17 8.02 0.9
-1 -7 17 8.24 1.11
0 7 -17 3.28 0.91
0 -7 17 5.02 0.93
0 -7 17 3.96 0.53
0 -7 17 3.81 0.54
0 -7 17 3.61 0.79
-1 7 -17 8.8 1.18
1 -7 17 8.55 1.1
1 -7 17 12.06 1.35
1 -7 17 7.6 0.8
1 -7 17 9.03 0.82
2 -7 17 10.79 1.41
2 -7 17 11.04 1.35
2 -7 17 9.94 1.2
2 -7 17 10.2 1
3 -7 17 1.12 0.39
3 -7 17 2.59 0.89
3 -7 17 1.62 0.71
3 -7 17 1.18 0.59
4 -7 17 2.81 0.63
4 -7 17 4.34 1.01
4 -7 17 2.14 0.78
5 -7 17 14.07 1.62
5 -7 17 18.16 1.15
5 -7 17 17.7 1.93
5 -7 17 9.88 1.48
6 -7 17 2.57 1.04
6 -7 17 2.29 0.38
6 -7 17 2.79 0.59
6 -7 17 1.67 0.72
7 -7 17 3.61 0.7
7 -7 17 3.53 0.43
7 -7 17 3.54 1.02
8 -7 17 2.89 0.99
8 -7 17 1.84 0.3
8 -7 17 1.32 0.53
-10 -6 17 0.43 0.49
-9 -6 17 5.33 0.74
-8 -6 17 0.73 0.49
-8 -6 17 -0.38 0.57
-7 -6 17 5.76 0.69
-7 -6 17 4.24 0.74
-6 -6 17 2.67 0.63
-6 -6 17 2.39 0.69
-6 -6 17 2.07 0.57
-5 -6 17 5.72 0.87
-5 -6 17 8.02 0.8
-5 -6 17 7.39 0.8
-4 -6 17 2.7 0.63
-4 -6 17 2.3 0.52
-4 -6 17 4.05 0.77
-4 -6 17 2.97 0.57
3 6 -17 1.73 0.8
-3 -6 17 2.21 0.74
-3 -6 17 1.27 0.44
-3 -6 17 1.49 0.51
-3 -6 17 1.84 0.58
2 6 -17 0.49 0.77
-2 -6 17 0.13 0.39
-2 -6 17 0.47 0.85
-2 -6 17 0.3 0.52
-2 -6 17 -0.74 0.66
-2 -6 17 0.46 0.42
1 6 -17 0.43 0.76
-1 -6 17 0.5 0.64
-1 -6 17 0.95 0.4
-1 -6 17 0.13 0.39
-1 -6 17 0.03 0.88
0 6 -17 10.09 1.25
0 -6 17 8.73 1.63
0 -6 17 10.72 1.18
0 -6 17 9.71 0.97
0 -6 17 12.17 1.4
0 -6 17 9.46 0.91
1 -6 17 1.17 0.88
1 -6 17 1.17 0.39
1 -6 17 1.34 0.83
1 -6 17 1.55 0.71
1 -6 17 1.24 0.4
2 -6 17 5.64 1.01
2 -6 17 4.05 1.12
2 -6 17 4.66 0.84
2 -6 17 4.81 0.79
2 -6 17 4.26 0.55
3 -6 17 2.53 0.46
3 -6 17 3.07 0.66
3 -6 17 3.36 0.97
3 -6 17 3.75 0.93
3 -6 17 2.69 0.77
4 -6 17 10.22 1.33
4 -6 17 15.61 1.62
4 -6 17 10.14 1.25
5 -6 17 0.71 0.82
5 -6 17 -0.01 0.46
5 -6 17 0.32 0.34
5 -6 17 0.23 0.69
6 -6 17 5.36 0.77
6 -6 17 4.35 0.87
6 -6 17 5.72 1.16
6 -6 17 5.3 0.52
7 -6 17 11.52 0.94
7 -6 17 11.57 1.55
8 -6 17 2.97 0.92
8 -6 17 1.89 0.32
-10 -5 17 -0.16 0.49
-9 -5 17 1.23 0.58
-8 -5 17 -0.24 0.58
-7 -5 17 2.41 0.51
-7 -5 17 0.94 0.6
-6 -5 17 10.72 1.02
-6 -5 17 11.46 1.08
-5 -5 17 3.57 0.61
-5 -5 17 3.52 0.59
4 5 -17 3.04 0.85
-4 -5 17 4.95 0.61
-4 -5 17 5.18 0.85
-4 -5 17 4.79 0.61
3 5 -17 20.44 2.21
-3 -5 17 25.46 1.85
-3 -5 17 24.3 1.87
-3 -5 17 23.19 3.29
-3 -5 17 22.64 2.17
2 5 -17 -0.8 0.71
-2 -5 17 -0.58 0.85
-2 -5 17 0 0.4
-2 -5 17 0.02 0.4
-2 -5 17 -0.01 0.64
1 5 -17 0.56 0.74
-1 -5 17 0.37 0.88
-1 -5 17 -0.08 0.39
-1 -5 17 0.62 0.65
-1 -5 17 0.33 0.38
0 5 -17 -0.23 0.78
0 -5 17 -0.91 0.37
0 -5 17 0.37 0.63
0 -5 17 0.16 0.8
0 -5 17 -0.4 0.39
0 -5 17 0.58 0.71
1 -5 17 2 0.42
1 -5 17 2.62 0.8
1 -5 17 1.38 0.69
1 -5 17 1.17 0.81
2 -5 17 1.78 0.87
2 -5 17 1.83 0.43
2 -5 17 1.86 0.88
2 -5 17 2.91 0.65
2 -5 17 2.02 0.75
3 -5 17 3.61 0.81
3 -5 17 4.68 1
3 -5 17 3.62 0.52
3 -5 17 5.97 0.97
3 -5 17 4.35 0.72
4 -5 17 1.99 0.79
4 -5 17 1.33 0.86
4 -5 17 0.83 0.37
4 -5 17 1.32 0.75
5 -5 17 27.26 2.55
5 -5 17 27.09 2.95
5 -5 17 29.3 1.97
6 -5 17 1.87 0.39
6 -5 17 2.17 0.77
6 -5 17 2.01 0.91
7 -5 17 0.93 0.33
7 -5 17 1.19 0.97
8 -5 17 -0.06 0.27
8 -5 17 -0.65 0.85
-10 -4 17 -0.09 0.5
-9 -4 17 -0.03 0.55
-8 -4 17 1.78 0.62
-7 -4 17 1.33 0.63
-6 -4 17 -0.07 0.54
-6 -4 17 -0.01 0.47
-5 -4 17 -0.39 0.48
-5 -4 17 -0.17 0.42
4 4 -17 5.88 1.06
-4 -4 17 10.7 0.96
-4 -4 17 8.21 1.46
-4 -4 17 9.11 0.83
3 4 -17 4.72 0.94
-3 -4 17 4.72 0.62
-3 -4 17 7.31 0.92
-3 -4 17 6.37 1.22
-3 -4 17 5.5 0.65
2 4 -17 0.69 0.7
-2 -4 17 1.04 0.42
-2 -4 17 0.6 0.42
-2 -4 17 -0.07 0.8
-2 -4 17 -0.78 0.6
1 4 -17 0.28 0.71
-1 -4 17 1.26 0.43
-1 -4 17 0.91 0.39
-1 -4 17 1.55 0.67
-1 -4 17 1.94 0.89
0 -4 17 13.56 2.35
0 -4 17 15.69 1.26
0 -4 17 14.07 1.53
1 -4 17 1.17 0.66
1 -4 17 0.18 0.38
1 -4 17 1.3 0.72
1 -4 17 0.43 0.78
2 -4 17 3.25 0.79
2 -4 17 3.66 0.89
2 -4 17 2.71 0.47
2 -4 17 2.34 0.87
3 -4 17 0.98 0.39
3 -4 17 0.98 0.82
3 -4 17 1.15 0.78
3 -4 17 1.19 0.76
4 -4 17 8.95 1.22
4 -4 17 5.41 1.18
4 -4 17 6.59 1.03
4 -4 17 6.64 0.62
5 -4 17 2.32 0.84
5 -4 17 2.48 0.41
5 -4 17 3.29 0.93
6 -4 17 0.21 0.35
6 -4 17 1.18 0.86
6 -4 17 -0.32 0.74
7 -4 17 5.47 0.54
7 -4 17 3.33 0.88
7 -4 17 6.29 1.12
8 -4 17 3.24 0.97
-10 -3 17 0.06 0.51
-9 -3 17 -0.59 0.55
-8 -3 17 1.84 0.63
-7 -3 17 1.69 0.61
-6 -3 17 3.05 0.53
-6 -3 17 1.8 0.6
-5 -3 17 4.23 0.62
-5 -3 17 3.1 0.95
-5 -3 17 4.75 0.58
4 3 -17 1.86 0.73
-4 -3 17 2.95 0.96
-4 -3 17 3.51 0.54
-4 -3 17 3.35 0.53
3 3 -17 12.16 1.39
-3 -3 17 11.01 1.1
-3 -3 17 13.1 1.13
-3 -3 17 13.01 1.94
-3 -3 17 12.85 1.35
2 3 -17 0.18 0.7
-2 -3 17 0.32 0.42
-2 -3 17 0.41 0.79
-2 -3 17 0.45 0.61
1 3 -17 -0.17 0.67
-1 -3 17 0.45 0.64
-1 -3 17 0.75 0.4
-1 -3 17 0.19 0.76
0 -3 17 0.1 0.78
0 -3 17 2.04 0.7
0 -3 17 0.71 0.41
1 -3 17 0.08 0.38
1 -3 17 0.28 0.79
1 -3 17 1.18 0.69
2 -3 17 1.64 0.77
2 -3 17 0.64 0.69
2 -3 17 1.8 0.83
2 -3 17 1.81 0.43
3 -3 17 6.49 1.26
3 -3 17 5.54 0.68
3 -3 17 6.82 0.62
3 -3 17 8.86 1.17
3 -3 17 8.37 1.05
4 -3 17 1.06 0.83
4 -3 17 0.85 0.76
4 -3 17 2.13 0.85
4 -3 17 1.04 0.37
5 -3 17 0.71 0.35
5 -3 17 1.41 0.81
5 -3 17 1.04 0.8
6 -3 17 8.84 1.3
6 -3 17 8.51 1.18
6 -3 17 7.46 0.71
7 -3 17 0.69 0.89
7 -3 17 -0.11 0.34
7 -3 17 0.6 0.81
8 -3 17 4 1.01
-10 -2 17 1.18 0.51
-9 -2 17 3.54 0.64
-8 -2 17 2.28 0.63
-7 -2 17 0.58 0.57
-6 -2 17 0.32 0.54
-5 -2 17 1.53 0.52
-5 -2 17 1.9 0.81
-4 -2 17 3.34 0.52
-4 -2 17 2.38 0.96
3 2 -17 0.15 0.68
-3 -2 17 1.05 0.61
-3 -2 17 -0.12 0.41
-3 -2 17 0.37 0.76
2 2 -17 3.09 0.77
-2 -2 17 4.52 0.79
-2 -2 17 3.72 0.52
-2 -2 17 2.79 0.97
1 2 -17 1.83 0.71
-1 -2 17 1.43 0.87
-1 -2 17 1.79 0.7
-1 -2 17 1.1 0.41
0 -2 17 4.33 0.55
0 -2 17 5.36 0.85
0 -2 17 3.79 1.05
1 -2 17 0.82 0.39
1 -2 17 0.52 0.8
1 -2 17 0.51 0.68
2 -2 17 1.12 0.7
2 -2 17 0.6 0.78
2 -2 17 0.29 0.37
2 -2 17 0.34 0.33
2 -2 17 0.25 0.73
3 -2 17 5.3 0.9
3 -2 17 4.6 0.55
3 -2 17 5.29 1.02
3 -2 17 4.87 0.52
3 -2 17 3.67 1.07
4 -2 17 0.39 0.76
4 -2 17 0.5 0.74
4 -2 17 0.66 0.84
4 -2 17 0.63 0.35
5 -2 17 0.71 0.79
5 -2 17 -0.24 0.36
5 -2 17 -0.63 0.76
6 -2 17 2.27 0.42
6 -2 17 1.41 0.89
6 -2 17 3.32 0.89
7 -2 17 2.11 0.87
7 -2 17 2.52 0.89
7 -2 17 2.2 0.41
8 -2 17 1.82 1.02
-9 -1 17 -0.15 0.5
-8 -1 17 6.13 0.76
-7 -1 17 0.57 0.54
-6 -1 17 3.56 0.61
-5 -1 17 0.01 0.45
-5 -1 17 0.06 0.78
-4 -1 17 0.98 0.82
-4 -1 17 0.07 0.42
-3 -1 17 2.65 0.95
-3 -1 17 2.97 0.52
2 1 -17 0.59 0.64
-2 -1 17 -0.09 0.77
-2 -1 17 1.04 0.65
-2 -1 17 0.13 0.4
1 1 -17 -0.12 0.65
-1 -1 17 1.15 0.67
-1 -1 17 0.39 0.8
-1 -1 17 -0.09 0.38
0 -1 17 0.79 0.68
0 -1 17 0.85 0.38
0 -1 17 -0.47 0.78
1 -1 17 3.11 0.47
1 -1 17 2.71 0.79
1 -1 17 2.05 0.91
1 -1 17 2.92 0.4
2 -1 17 0.33 0.68
2 -1 17 0.59 0.33
2 -1 17 -0.2 0.76
2 -1 17 0.48 0.38
3 -1 17 7.68 1.15
3 -1 17 5.92 0.58
3 -1 17 5.66 0.62
3 -1 17 6.34 1.01
3 -1 17 5.73 1.26
4 -1 17 0.98 0.8
4 -1 17 -1.06 0.78
4 -1 17 0.37 0.77
4 -1 17 -0.23 0.34
5 -1 17 0.17 0.37
5 -1 17 -0.2 0.81
5 -1 17 0.68 0.81
6 -1 17 1.23 0.38
6 -1 17 0.19 0.83
6 -1 17 1.29 0.77
7 -1 17 8.14 1.2
7 -1 17 6.04 1.11
-9 0 17 2.24 0.52
-8 0 17 2.66 0.55
-7 0 17 5.68 0.71
-6 0 17 1.43 0.51
-5 0 17 0.82 0.46
-5 0 17 0.84 0.8
-4 0 17 1.93 0.49
-4 0 17 1.56 0.9
-3 0 17 9.03 1.56
-3 0 17 9.85 0.96
-2 0 17 1.25 0.43
-2 0 17 2.44 0.87
-2 0 17 1.65 0.67
1 0 -17 2.7 0.74
-1 0 17 3.2 0.49
-1 0 17 2.98 0.99
-1 0 17 4.35 0.77
0 0 17 0.34 0.3
0 0 17 0.04 0.79
0 0 17 0.04 0.38
0 0 17 -0.23 0.65
1 0 17 0.38 0.79
1 0 17 0.4 0.38
1 0 17 0.86 0.34
1 0 17 0.7 0.71
2 0 17 -0.01 0.82
2 0 17 0.26 0.36
2 0 17 -0.86 0.69
2 0 17 -0.06 0.3
3 0 17 3.43 1.06
3 0 17 5.13 0.93
3 0 17 4.5 0.49
4 0 17 7.87 1.13
4 0 17 7.67 0.69
4 0 17 5.47 1.35
4 0 17 9.37 1.25
5 0 17 12.82 1.63
5 0 17 12.8 1.07
5 0 17 14.27 1.51
6 0 17 1.24 0.37
6 0 17 1 0.87
6 0 17 0.44 0.83
7 0 17 11.79 1.33
7 0 17 9.02 1.36
-9 1 17 6.69 0.7
-8 1 17 3.21 0.54
-7 1 17 5.47 0.67
-6 1 17 0.3 0.46
-5 1 17 0.36 0.45
-4 1 17 24.83 3.52
-4 1 17 25.35 1.96
-3 1 17 0.5 0.41
-3 1 17 0 0.72
-2 1 17 0.08 0.62
-2 1 17 -0.45 0.74
-2 1 17 0.5 0.4
-1 1 17 -0.43 0.62
-1 1 17 0.12 0.81
-1 1 17 0.29 0.38
0 1 17 2.65 0.96
0 1 17 2.03 0.38
0 1 17 3.33 0.46
0 1 17 3 0.76
1 1 17 0.28 0.3
1 1 17 0.89 0.39
1 1 17 0.28 0.68
1 1 17 -0.16 0.83
2 1 17 0.49 0.32
2 1 17 0.42 0.81
2 1 17 0.49 0.37
3 1 17 0.16 0.35
3 1 17 -0.56 0.82
4 1 17 4.33 1.15
4 1 17 5.76 0.57
4 1 17 6.67 1.06
5 1 17 8.38 1.21
5 1 17 7.53 0.7
6 1 17 20.22 2.3
6 1 17 21.27 2.09
7 1 17 -2.14 0.81
7 1 17 -1.1 0.71
4 -2 -17 0.52 0.83
-4 2 17 0.43 0.77
-3 2 17 4.03 0.98
-2 2 17 -0.15 0.74
-1 2 17 4.86 0.79
-1 2 17 2 0.9
0 2 17 -0.56 0.8
0 2 17 -0.52 0.68
1 2 17 6.54 0.57
1 2 17 4.73 1.19
2 2 17 1 0.86
2 2 17 2.67 0.39
3 2 17 -1.45 0.79
3 2 17 -0.18 0.32
4 2 17 -0.09 0.34
4 2 17 -1.11 0.82
5 2 17 0.25 0.73
6 2 17 1.16 0.77
8 -3 -17 9.55 1.35
7 -3 -17 0.37 0.66
6 -3 -17 1.08 0.65
5 -3 -17 0.53 0.63
4 -3 -17 1.25 0.81
-4 3 17 -0.85 0.72
3 -3 -17 9.2 1.33
-3 3 17 10.74 1.64
-2 3 17 1.32 0.83
-1 3 17 -1.1 0.72
-1 3 17 0.46 0.64
0 3 17 0.19 0.69
0 3 17 -0.34 0.77
1 3 17 0.02 0.77
2 3 17 0.21 0.32
2 3 17 -0.07 0.85
3 3 17 11.18 0.85
3 3 17 7.63 1.56
4 3 17 4.01 1.1
7 -4 -17 1.44 0.65
6 -4 -17 2.38 0.71
5 -4 -17 0.44 0.59
-4 4 17 25.5 3.49
-3 4 17 1.72 0.86
-2 4 17 0.5 0.79
-1 4 17 -0.63 0.78
0 4 17 0.62 0.88
0 4 17 -0.89 0.67
1 4 17 0.63 0.9
2 4 17 2.73 0.96
3 4 17 0.2 0.82
7 -5 -17 0.18 0.56
6 -5 -17 0.25 0.54
5 -5 -17 0.28 0.55
-3 5 17 2.33 0.95
-2 5 17 2.69 0.91
-1 5 17 -0.24 0.8
0 5 17 0.73 0.8
1 5 17 -1.15 0.77
2 5 17 7.1 1.35
-4 -5 -17 1.17 0.68
-5 -5 -17 1 0.66
6 -6 -17 -0.57 0.49
-3 -6 -17 1.02 0.7
-4 -6 -17 0.05 0.7
-5 -6 -17 1.38 0.64
-6 -6 -17 0.53 0.59
-2 -7 -17 4.09 0.89
-3 -7 -17 0.64 0.75
-4 -7 -17 0.78 0.68
3 -8 -17 0.73 0.41
2 -8 -17 -0.17 0.49
1 -8 -17 0.48 0.6
0 -8 -17 0.4 0.65
-1 -8 -17 0.53 0.69
-2 -8 -17 0.04 0.68
-3 -8 -17 0.31 0.66
-2 -18 18 0.3 0.41
-2 -18 18 -0.27 0.86
-1 -18 18 0.54 0.5
-1 -18 18 0.44 0.92
0 -18 18 0.44 0.95
0 -18 18 -0.01 0.48
1 -18 18 0.18 0.51
1 -18 18 1.46 0.93
2 -18 18 0.87 0.53
2 -18 18 2.06 0.97
-4 -17 18 0.85 0.56
-4 -17 18 1.05 0.44
-4 -17 18 -2.2 0.78
-3 -17 18 -0.98 0.86
-3 -17 18 0.29 0.44
-3 -17 18 -0.39 0.51
-2 -17 18 3.86 0.75
-2 -17 18 6.4 1.14
-1 -17 18 0.08 0.57
-1 -17 18 0.6 0.97
0 -17 18 1.47 1.02
0 -17 18 -0.7 0.55
1 -17 18 0.32 0.55
1 -17 18 0.59 0.96
2 -17 18 5.64 0.89
2 -17 18 8.54 1.28
3 -17 18 0.89 0.95
3 -17 18 -0.25 0.53
4 -17 18 -0.4 0.55
4 -17 18 0.07 0.86
-5 -16 18 1.57 0.48
-5 -16 18 1.49 0.6
-5 -16 18 1.41 0.58
-4 -16 18 -2.07 0.84
-4 -16 18 -0.01 0.57
-4 -16 18 -0.47 0.45
-4 -16 18 -0.36 0.54
-3 -16 18 1.04 0.61
-3 -16 18 0.28 0.95
-3 -16 18 2.1 0.52
-3 -16 18 2.38 0.67
-2 -16 18 -0.4 0.59
-2 -16 18 1.17 0.99
-2 -16 18 1.36 0.48
-1 -16 18 7.51 0.73
-1 -16 18 4.96 0.92
-1 -16 18 8.69 1.36
0 -16 18 1.13 0.65
0 -16 18 3.62 1.07
0 -16 18 -0.3 0.88
1 -16 18 7.34 1.21
1 -16 18 3.49 0.81
2 -16 18 1.71 0.64
2 -16 18 2.23 1.03
3 -16 18 1.21 0.6
3 -16 18 2.77 1.02
4 -16 18 0.41 0.9
4 -16 18 0.77 0.57
5 -16 18 1.51 0.58
-6 -15 18 1.33 0.47
-6 -15 18 1.75 0.61
-5 -15 18 1.02 0.49
-5 -15 18 0.45 0.61
-4 -15 18 -0.89 0.9
-4 -15 18 0.77 0.49
-4 -15 18 -0.38 0.6
-4 -15 18 1.07 0.65
-3 -15 18 7.37 0.72
-3 -15 18 6.35 1.01
-3 -15 18 4.13 1.2
-3 -15 18 5.66 0.82
-3 -15 18 3.84 0.85
-2 -15 18 4.77 0.91
-2 -15 18 4.11 0.78
-2 -15 18 3.18 1.14
-2 -15 18 2.52 0.79
-2 -15 18 4.5 0.62
-1 -15 18 1.19 0.76
-1 -15 18 0.18 0.69
-1 -15 18 1.7 1.07
-1 -15 18 1.36 0.48
0 -15 18 -0.58 0.82
0 -15 18 -0.24 0.73
0 -15 18 -0.07 0.66
0 -15 18 -0.13 0.45
0 -15 18 2.76 1.07
1 -15 18 0.31 0.73
1 -15 18 -0.53 0.64
1 -15 18 0.59 0.85
1 -15 18 2.15 1.09
2 -15 18 0 0.61
2 -15 18 0.59 0.85
2 -15 18 1.68 0.76
2 -15 18 2.66 1.09
3 -15 18 2.01 0.87
3 -15 18 0.52 0.59
3 -15 18 2.77 1.05
4 -15 18 3.4 1.03
4 -15 18 3.37 0.69
5 -15 18 3.09 0.66
6 -15 18 -0.08 0.54
-7 -14 18 -0.1 0.58
-7 -14 18 -0.26 0.46
-6 -14 18 -0.58 0.62
-6 -14 18 0.24 0.49
-5 -14 18 0.5 0.66
-5 -14 18 -0.43 0.49
-4 -14 18 1.7 0.56
-4 -14 18 2.15 0.68
-4 -14 18 0.18 0.98
-4 -14 18 1.72 0.76
-3 -14 18 0.74 0.52
-3 -14 18 -1.21 1.01
-3 -14 18 1.18 0.75
-3 -14 18 -0.97 0.66
-2 -14 18 2.43 1.12
-2 -14 18 1.83 0.57
-2 -14 18 1.37 0.71
-2 -14 18 1.81 0.81
-2 -14 18 1.01 0.71
-1 -14 18 3.32 1.18
-1 -14 18 3.31 0.81
-1 -14 18 3.68 0.6
-1 -14 18 3.34 0.89
-1 -14 18 2.43 0.91
0 -14 18 2.95 1.09
0 -14 18 0.73 0.77
0 -14 18 -0.51 0.68
0 -14 18 0.92 0.47
0 -14 18 -0.8 0.88
1 -14 18 3.57 0.81
1 -14 18 1.67 0.95
1 -14 18 3.51 0.86
1 -14 18 5.71 1.19
2 -14 18 1.28 0.76
2 -14 18 3.01 1.1
2 -14 18 1.64 0.93
2 -14 18 1.22 0.71
3 -14 18 2.33 1.1
3 -14 18 2.78 0.92
3 -14 18 1.33 0.67
3 -14 18 2.24 0.79
4 -14 18 3.29 0.98
4 -14 18 3.9 1.06
4 -14 18 2.82 0.7
5 -14 18 0.36 0.56
6 -14 18 0.73 0.53
7 -14 18 0.87 0.52
-7 -13 18 0.04 0.46
-7 -13 18 -0.23 0.61
-6 -13 18 1.57 0.56
-6 -13 18 1.3 0.69
-5 -13 18 5.12 0.92
-5 -13 18 3.84 0.85
-5 -13 18 5.85 0.72
-4 -13 18 3.75 0.64
-4 -13 18 1.87 0.76
-4 -13 18 2.84 0.75
-3 -13 18 1.29 0.78
-3 -13 18 -0.05 1.06
-3 -13 18 1.3 0.55
-3 -13 18 0.65 0.7
-2 -13 18 10.52 0.99
-2 -13 18 6.37 1.43
-2 -13 18 11.54 1.34
-2 -13 18 11.97 1.2
-2 -13 18 11.05 1.66
-1 -13 18 1.13 0.73
-1 -13 18 2.58 0.55
-1 -13 18 2 0.81
-1 -13 18 2.56 1
-1 -13 18 2.91 1.16
0 -13 18 -0.86 0.66
0 -13 18 3.07 1.11
0 -13 18 0.99 0.49
0 -13 18 0.61 0.75
0 -13 18 0.79 0.9
1 -13 18 2.35 1.11
1 -13 18 -0.14 0.69
1 -13 18 0.83 0.86
1 -13 18 -0.49 0.73
1 -13 18 -0.17 0.43
2 -13 18 3.87 1.19
2 -13 18 3.88 0.98
2 -13 18 0.97 0.78
3 -13 18 -0.17 1.02
3 -13 18 0.51 0.73
3 -13 18 -0.82 0.86
3 -13 18 -0.1 0.65
4 -13 18 1.26 0.62
4 -13 18 2.96 0.96
4 -13 18 -0.09 0.96
4 -13 18 0.14 0.71
5 -13 18 1.44 0.84
5 -13 18 0.48 0.56
6 -13 18 0.59 0.54
7 -13 18 1.89 0.58
-8 -12 18 0.42 0.59
-8 -12 18 0.21 0.36
-8 -12 18 0.64 0.45
-7 -12 18 0.58 0.4
-7 -12 18 -0.05 0.64
-7 -12 18 0.5 0.51
-6 -12 18 11.63 1.03
-6 -12 18 9.56 1.05
-6 -12 18 11.75 1.25
-5 -12 18 3.17 0.54
-5 -12 18 3.24 0.8
-5 -12 18 3.38 0.63
-5 -12 18 3.95 0.82
-4 -12 18 0.6 0.72
-4 -12 18 -0.08 0.53
-4 -12 18 -0.45 0.42
-4 -12 18 -0.09 0.7
-3 -12 18 0.71 0.7
-3 -12 18 0.37 0.42
-3 -12 18 0.85 0.72
-3 -12 18 0.35 0.57
-3 -12 18 -0.28 1.09
-2 -12 18 1.92 1.08
-2 -12 18 0.75 0.54
-2 -12 18 0.97 0.85
-2 -12 18 0.39 0.42
-2 -12 18 0.76 0.66
-2 -12 18 0.22 0.76
-1 -12 18 1.24 1.07
-1 -12 18 -0.24 0.5
-1 -12 18 0.55 0.41
-1 -12 18 0.13 0.68
-1 -12 18 0.83 0.92
-1 -12 18 0.79 0.75
0 -12 18 0.1 0.4
0 -12 18 1.95 1.07
0 -12 18 0.51 0.75
0 -12 18 0.57 0.86
0 -12 18 -0.06 0.49
0 -12 18 0.15 0.68
1 -12 18 2.69 1.02
1 -12 18 4.6 1.21
1 -12 18 3.08 0.89
1 -12 18 4.13 0.54
1 -12 18 4.47 0.58
1 -12 18 4 0.86
2 -12 18 2.48 0.86
2 -12 18 5.31 1.08
2 -12 18 3.77 0.82
2 -12 18 2.94 0.48
2 -12 18 3.49 1.19
3 -12 18 0.71 1.05
3 -12 18 1.07 0.7
3 -12 18 1.52 0.81
3 -12 18 1.75 0.95
4 -12 18 0.38 0.98
4 -12 18 0.18 0.77
4 -12 18 -0.62 0.87
4 -12 18 -0.11 0.61
5 -12 18 0.3 0.9
5 -12 18 1.3 0.59
6 -12 18 1.51 0.87
7 -12 18 0.59 0.56
8 -12 18 0.29 0.49
-8 -11 18 1.69 0.41
-8 -11 18 -0.28 0.61
-8 -11 18 1.3 0.48
-7 -11 18 0.88 0.51
-7 -11 18 0.61 0.42
-7 -11 18 0.88 0.68
-6 -11 18 -0.06 0.69
-6 -11 18 -0.22 0.43
-6 -11 18 -0.03 0.56
-5 -11 18 -0.49 0.56
-5 -11 18 0.38 0.72
-5 -11 18 0.03 0.45
-5 -11 18 -0.48 0.64
-4 -11 18 1.93 0.75
-4 -11 18 0.59 0.47
-4 -11 18 0.95 0.59
-4 -11 18 0.68 0.71
-3 -11 18 0.46 0.69
-3 -11 18 1.12 0.45
-3 -11 18 0.56 0.55
-3 -11 18 0.91 1.08
-3 -11 18 1.06 0.71
-2 -11 18 -0.2 0.75
-2 -11 18 -0.24 0.67
-2 -11 18 0.38 1.08
-2 -11 18 0.2 0.51
-2 -11 18 -0.11 0.41
-2 -11 18 -0.14 0.76
-1 -11 18 3.93 0.77
-1 -11 18 3.53 0.9
-1 -11 18 3.78 1.17
-1 -11 18 3.03 0.56
-1 -11 18 2.96 0.93
-1 -11 18 2.01 0.5
0 -11 18 0.27 0.4
0 -11 18 0.27 0.86
0 -11 18 0.19 0.48
0 -11 18 -0.24 0.74
0 -11 18 0.66 1.11
1 -11 18 2.99 0.88
1 -11 18 5.27 0.6
1 -11 18 5.77 1.16
1 -11 18 4.99 1.24
1 -11 18 3.65 0.57
1 -11 18 4.45 0.88
2 -11 18 0.52 1.06
2 -11 18 0.33 0.42
2 -11 18 0.48 0.71
2 -11 18 0.87 0.95
2 -11 18 0.29 0.4
2 -11 18 0.5 0.68
3 -11 18 -0.01 0.65
3 -11 18 0.69 0.89
3 -11 18 0.58 1.05
3 -11 18 1.14 0.74
4 -11 18 -0.38 0.71
4 -11 18 0.09 0.89
4 -11 18 0.18 0.61
5 -11 18 0.19 0.29
5 -11 18 0.07 0.55
5 -11 18 0.32 0.9
6 -11 18 2.04 0.62
6 -11 18 2.12 0.93
7 -11 18 0.89 0.59
8 -11 18 0.26 0.49
-9 -10 18 1.9 0.56
-9 -10 18 1.22 0.41
-9 -10 18 1.64 0.44
-8 -10 18 0.1 0.41
-8 -10 18 0.28 0.45
-8 -10 18 -0.79 0.59
-7 -10 18 0.05 0.51
-7 -10 18 0.27 0.44
-7 -10 18 0.61 0.65
-6 -10 18 3.63 0.77
-6 -10 18 2.13 0.5
-6 -10 18 2.34 0.6
-5 -10 18 1.43 0.57
-5 -10 18 0.72 0.47
-5 -10 18 0.47 0.71
-5 -10 18 1.14 0.66
-4 -10 18 9.05 0.83
-4 -10 18 5.2 0.95
-4 -10 18 5.58 0.71
-4 -10 18 6.48 0.95
-3 -10 18 10.58 0.96
-3 -10 18 8.09 1.56
-3 -10 18 8.83 0.89
-3 -10 18 11.12 1.14
-3 -10 18 9.21 1.22
-2 -10 18 5.75 1.29
-2 -10 18 4.95 1.04
-2 -10 18 6.44 0.87
-2 -10 18 6.57 0.74
-2 -10 18 6.34 0.69
-2 -10 18 5.52 1.01
1 10 -18 -0.68 0.85
-1 -10 18 -0.67 1.07
-1 -10 18 0.16 0.49
-1 -10 18 -0.72 0.65
-1 -10 18 0.42 0.77
-1 -10 18 -0.12 0.41
-1 -10 18 -0.27 0.75
0 10 -18 0.44 0.83
0 -10 18 1.99 0.44
0 -10 18 1.23 0.51
0 -10 18 2.74 1.11
0 -10 18 1.69 0.76
0 -10 18 1.66 0.89
-1 10 -18 0.05 0.76
1 -10 18 1.51 0.74
1 -10 18 0.36 0.67
1 -10 18 0.53 1.04
1 -10 18 0.05 0.4
1 -10 18 0.55 0.43
1 -10 18 0.93 0.93
-2 10 -18 0.92 0.81
2 -10 18 0.3 0.74
2 -10 18 2.38 0.92
2 -10 18 1.78 1.07
2 -10 18 1.93 0.68
2 -10 18 1.19 0.42
2 -10 18 0.67 0.42
3 -10 18 1.8 0.95
3 -10 18 0.39 0.74
3 -10 18 0.78 0.39
3 -10 18 1.36 0.67
4 -10 18 5.86 1.19
4 -10 18 5.74 0.86
4 -10 18 3.65 0.92
5 -10 18 -0.3 0.54
5 -10 18 0.63 0.72
5 -10 18 0.27 0.3
5 -10 18 0.29 0.92
6 -10 18 2.21 0.96
6 -10 18 1.42 0.32
6 -10 18 2.18 0.61
7 -10 18 0.01 0.57
7 -10 18 0.96 0.9
8 -10 18 0.15 0.48
-9 -9 18 3.19 0.51
-9 -9 18 2.1 0.58
-9 -9 18 3.36 0.52
-8 -9 18 -0.4 0.59
-8 -9 18 1.06 0.48
-8 -9 18 0.35 0.46
-7 -9 18 2.17 0.55
-7 -9 18 2.49 0.57
-7 -9 18 1.78 0.68
-6 -9 18 0.48 0.66
-6 -9 18 0.93 0.5
-6 -9 18 0.05 0.52
-5 -9 18 1.18 0.48
-5 -9 18 1.04 0.67
-5 -9 18 0.66 0.69
-5 -9 18 0.48 0.54
-4 -9 18 22.19 2.14
-4 -9 18 23.98 1.83
-4 -9 18 20.89 2.16
-4 -9 18 23.2 1.87
-3 -9 18 1.07 0.63
-3 -9 18 0.76 0.52
-3 -9 18 0.42 0.47
-3 -9 18 0.23 0.75
2 9 -18 3.59 0.98
-2 -9 18 4.29 0.92
-2 -9 18 4.01 0.57
-2 -9 18 4.45 0.76
-2 -9 18 3.73 1.19
-2 -9 18 5.24 0.66
1 9 -18 18.31 1.93
-1 -9 18 19.18 2.03
-1 -9 18 18.41 1.48
-1 -9 18 17.15 1.81
-1 -9 18 18.07 1.51
-1 -9 18 16.65 1.74
-1 -9 18 16.54 2.46
0 9 -18 1.52 0.88
0 -9 18 2.19 0.47
0 -9 18 4.18 0.96
0 -9 18 2 1.1
0 -9 18 2.48 0.5
0 -9 18 1.44 0.74
-1 9 -18 7.75 1.23
1 -9 18 10.13 1.63
1 -9 18 9.72 0.99
1 -9 18 11.67 1.44
1 -9 18 8.85 1.24
1 -9 18 10.2 1.01
1 -9 18 13.08 1.39
-2 9 -18 -0.01 0.74
2 -9 18 0.41 0.64
2 -9 18 -0.13 0.41
2 -9 18 1.22 0.73
2 -9 18 1.3 0.86
-3 9 -18 1.94 0.84
3 -9 18 2.66 0.48
3 -9 18 3.94 0.99
3 -9 18 1.41 0.8
3 -9 18 3.06 0.72
4 -9 18 12.04 1.45
4 -9 18 16.87 1.75
4 -9 18 8.36 1.29
5 -9 18 3.52 1.04
5 -9 18 2.17 0.38
5 -9 18 2.06 0.78
5 -9 18 2.3 0.61
6 -9 18 6.58 0.58
6 -9 18 6.19 0.89
6 -9 18 7.54 1.23
7 -9 18 0.56 0.55
7 -9 18 1.64 0.91
7 -9 18 0.46 0.28
8 -9 18 -0.03 0.47
9 -9 18 1.82 0.49
-9 -8 18 0.5 0.45
-9 -8 18 0.36 0.51
-8 -8 18 2.35 0.52
-8 -8 18 1.87 0.62
-8 -8 18 3.02 0.57
-7 -8 18 4.37 0.84
-7 -8 18 7.61 0.74
-7 -8 18 6.67 0.76
-6 -8 18 7.42 0.79
-6 -8 18 5.83 0.93
-6 -8 18 7.19 0.79
-5 -8 18 20.6 1.68
-5 -8 18 21.07 1.71
-5 -8 18 18.89 1.96
-4 -8 18 1.67 0.51
-4 -8 18 2.62 0.57
-4 -8 18 0.75 0.71
3 8 -18 2.18 0.91
-3 -8 18 0.87 0.73
-3 -8 18 0.4 0.46
-3 -8 18 0.85 0.52
-3 -8 18 2.3 0.62
2 8 -18 8.6 1.23
-2 -8 18 8.27 1.1
-2 -8 18 8.44 0.92
-2 -8 18 5.38 0.75
-2 -8 18 8.91 0.83
1 8 -18 2.1 0.94
-1 -8 18 3.18 0.53
-1 -8 18 1.9 0.77
-1 -8 18 3.39 0.86
-1 -8 18 2.02 0.5
0 8 -18 8.43 1.27
0 -8 18 9.94 0.9
0 -8 18 8.85 0.88
0 -8 18 11.18 1.37
0 -8 18 9.14 1.17
-1 8 -18 0.35 0.81
1 -8 18 0.12 0.4
1 -8 18 0.37 0.41
1 -8 18 -0.23 0.67
1 -8 18 0.41 0.83
-2 8 -18 2.2 0.86
2 -8 18 3.45 0.73
2 -8 18 3.63 0.94
2 -8 18 2.47 0.49
2 -8 18 2.68 0.78
3 -8 18 10.14 1.2
3 -8 18 8.16 1.15
3 -8 18 11.1 1.45
3 -8 18 9.62 0.97
4 -8 18 18.81 2.08
4 -8 18 15.08 1.71
4 -8 18 16.69 1.83
5 -8 18 15.61 1.59
5 -8 18 16.05 1.87
5 -8 18 11.84 1.09
6 -8 18 0.64 0.9
6 -8 18 0.3 0.29
6 -8 18 0.73 0.52
7 -8 18 0.46 0.29
7 -8 18 0.59 0.86
7 -8 18 0.54 0.55
8 -8 18 0.14 0.46
-9 -7 18 0.92 0.51
-8 -7 18 0.68 0.53
-8 -7 18 0.23 0.45
-7 -7 18 -0.15 0.61
-7 -7 18 0.54 0.51
-7 -7 18 0.45 0.53
-6 -7 18 3.67 0.6
-6 -7 18 1.57 0.67
-6 -7 18 2.63 0.6
-5 -7 18 2.44 0.56
-5 -7 18 2.51 0.59
-5 -7 18 1.19 0.67
-4 -7 18 23.29 1.84
-4 -7 18 18.65 1.88
-4 -7 18 16.09 1.59
-4 -7 18 17.62 1.64
3 7 -18 1.37 0.82
-3 -7 18 1.41 0.52
-3 -7 18 0.03 0.58
-3 -7 18 0.49 0.46
-3 -7 18 -0.26 0.73
2 7 -18 -0.02 0.8
-2 -7 18 0.25 0.45
-2 -7 18 0.72 0.69
-2 -7 18 0.88 0.56
-2 -7 18 0.24 0.45
1 7 -18 3.3 0.97
-1 -7 18 4.2 0.87
-1 -7 18 3.63 0.55
-1 -7 18 4.24 0.58
0 7 -18 0.68 0.81
0 -7 18 -0.05 0.4
0 -7 18 0.26 0.77
0 -7 18 1.17 0.7
0 -7 18 -0.6 0.4
-1 7 -18 2.83 0.88
1 -7 18 2.35 0.48
1 -7 18 2.37 0.45
1 -7 18 2.6 0.76
1 -7 18 2.84 0.9
2 -7 18 0.12 0.6
2 -7 18 -0.1 0.68
2 -7 18 0.35 0.4
2 -7 18 1.32 0.89
3 -7 18 2.8 0.79
3 -7 18 4.18 0.95
3 -7 18 2.33 0.49
3 -7 18 3.6 0.69
4 -7 18 37 3.52
4 -7 18 32.97 3.44
5 -7 18 0.66 0.35
5 -7 18 0.5 0.71
5 -7 18 1.38 0.98
5 -7 18 -0.03 0.49
6 -7 18 -0.15 0.3
6 -7 18 0.81 0.93
6 -7 18 -0.16 0.49
6 -7 18 0.3 0.71
7 -7 18 -0.12 0.89
7 -7 18 -0.78 0.49
7 -7 18 0.1 0.29
8 -7 18 2.78 0.35
-9 -6 18 0.73 0.5
-8 -6 18 0.16 0.55
-7 -6 18 6.45 0.81
-7 -6 18 7.09 0.75
-6 -6 18 5.38 0.7
-6 -6 18 5.5 0.74
-5 -6 18 1.49 0.54
-5 -6 18 0.64 0.53
-4 -6 18 -0.03 0.66
-4 -6 18 0.49 0.47
-4 -6 18 0.79 0.51
3 6 -18 6.94 1.1
-3 -6 18 7.2 0.76
-3 -6 18 6.18 1.02
-3 -6 18 6.46 0.86
-3 -6 18 8.27 0.8
2 6 -18 1.69 0.82
-2 -6 18 0.71 0.47
-2 -6 18 1.75 0.94
-2 -6 18 1.59 0.73
-2 -6 18 1.2 0.46
-2 -6 18 1.66 0.6
1 6 -18 0.09 0.77
-1 -6 18 0.55 0.84
-1 -6 18 0.85 0.69
-1 -6 18 0.35 0.42
-1 -6 18 0.53 0.42
0 6 -18 0.87 0.79
0 -6 18 0.39 0.7
0 -6 18 0.18 0.85
0 -6 18 0 0.4
0 -6 18 0.44 0.41
-1 6 -18 5.04 1.01
1 -6 18 5.65 1.2
1 -6 18 6.05 1.05
1 -6 18 4.57 0.61
1 -6 18 6.45 0.96
2 -6 18 3.49 0.72
2 -6 18 3.59 0.94
2 -6 18 2.21 0.49
2 -6 18 3.22 1.04
2 -6 18 1.88 0.78
3 -6 18 1.75 0.91
3 -6 18 0.29 0.4
3 -6 18 0.87 0.56
3 -6 18 0.15 0.71
4 -6 18 0.8 0.83
4 -6 18 -0.48 0.7
4 -6 18 0.37 0.35
4 -6 18 0.14 0.52
5 -6 18 1.47 0.38
5 -6 18 1.63 0.53
5 -6 18 1.29 0.88
5 -6 18 2.13 0.79
6 -6 18 -0.58 0.91
6 -6 18 -0.06 0.72
6 -6 18 -0.08 0.33
7 -6 18 1.88 0.36
7 -6 18 1.91 0.96
8 -6 18 0.32 0.27
-9 -5 18 -0.19 0.5
-8 -5 18 0.81 0.56
-7 -5 18 0.1 0.56
-7 -5 18 0.63 0.47
-6 -5 18 7.15 0.82
-6 -5 18 7.02 0.77
-5 -5 18 0.99 0.54
-5 -5 18 1.76 0.51
-4 -5 18 -0.05 0.47
-4 -5 18 -0.46 0.45
3 5 -18 3.03 0.89
-3 -5 18 3.82 0.81
-3 -5 18 3.32 0.55
-3 -5 18 2.69 0.56
-3 -5 18 3.69 1.02
2 5 -18 0.19 0.75
-2 -5 18 -0.02 0.44
-2 -5 18 0.37 0.44
-2 -5 18 -0.53 0.8
-2 -5 18 1.46 0.69
1 5 -18 8.41 1.2
-1 -5 18 9 0.95
-1 -5 18 11.02 0.99
-1 -5 18 9.65 1.18
-1 -5 18 9.44 1.6
0 5 -18 4.99 0.95
0 -5 18 4.61 0.58
0 -5 18 4.9 1.13
0 -5 18 5.47 0.91
1 -5 18 1.6 0.79
1 -5 18 0.34 0.4
1 -5 18 1.06 0.71
1 -5 18 0.93 0.81
2 -5 18 1.08 0.81
2 -5 18 0.17 0.8
2 -5 18 1 0.59
2 -5 18 -0.35 0.69
2 -5 18 0.68 0.41
3 -5 18 0.53 0.78
3 -5 18 -0.42 0.38
3 -5 18 -0.14 0.82
3 -5 18 -0.86 0.7
4 -5 18 7.27 1.2
4 -5 18 6.86 1.05
4 -5 18 8.86 1.38
4 -5 18 6.62 0.65
5 -5 18 23.08 1.59
5 -5 18 20.63 2.42
5 -5 18 21.15 2.11
6 -5 18 2.58 0.85
6 -5 18 4.99 1.1
6 -5 18 4.68 0.5
7 -5 18 -0.22 0.84
7 -5 18 0.12 0.32
-9 -4 18 1.7 0.54
-8 -4 18 0.32 0.55
-7 -4 18 2.86 0.63
-6 -4 18 12.07 1.15
-6 -4 18 12.71 1.25
-5 -4 18 6.79 0.77
-5 -4 18 6.37 0.73
4 4 -18 3.51 0.83
-4 -4 18 4.37 0.61
-4 -4 18 3.51 1
-4 -4 18 4.14 0.58
3 4 -18 0.01 0.73
-3 -4 18 1.66 0.7
-3 -4 18 1.42 0.87
-3 -4 18 1.51 0.5
-3 -4 18 0.58 0.44
2 4 -18 0.16 0.73
-2 -4 18 0.29 0.44
-2 -4 18 -0.05 0.79
-2 -4 18 -0.22 0.44
-2 -4 18 0.14 0.66
1 4 -18 0.73 0.72
-1 -4 18 1.09 0.69
-1 -4 18 0.64 0.83
-1 -4 18 1.66 0.46
0 4 -18 2.45 0.84
0 -4 18 3.31 0.51
0 -4 18 3.24 0.81
0 -4 18 2.81 0.99
1 -4 18 8.33 1.58
1 -4 18 10.83 0.99
1 -4 18 11.24 1.24
2 -4 18 4.92 0.88
2 -4 18 3.75 0.55
2 -4 18 3.47 1.05
2 -4 18 4.71 0.97
3 -4 18 3.06 0.5
3 -4 18 2.54 0.94
3 -4 18 3.05 0.45
3 -4 18 2.19 0.84
3 -4 18 4.44 0.94
4 -4 18 2.01 0.85
4 -4 18 1.68 0.4
4 -4 18 1.93 0.88
4 -4 18 1.47 0.8
5 -4 18 48.14 3.09
5 -4 18 44.86 3.86
5 -4 18 42.23 4.42
6 -4 18 4.28 0.96
6 -4 18 3.95 0.48
6 -4 18 1.22 0.88
7 -4 18 0.47 0.75
7 -4 18 2.42 0.95
7 -4 18 2.38 0.39
-9 -3 18 0.02 0.5
-8 -3 18 8.54 0.9
-7 -3 18 -0.28 0.54
-6 -3 18 3.7 0.64
-5 -3 18 2.02 0.81
-5 -3 18 0.8 0.51
4 3 -18 0.07 0.64
-4 -3 18 -0.21 0.46
-4 -3 18 0.81 0.81
3 3 -18 3.67 0.85
-3 -3 18 3.59 1.07
-3 -3 18 5.2 0.62
-3 -3 18 5 0.83
2 3 -18 4.92 0.94
-2 -3 18 6.69 0.95
-2 -3 18 6.49 1.26
-2 -3 18 5.94 0.67
1 3 -18 6.07 1.03
-1 -3 18 7.23 1.36
-1 -3 18 9.53 1.07
-1 -3 18 7.55 0.76
0 3 -18 3.15 0.89
0 -3 18 5.28 0.9
0 -3 18 3.61 1
0 -3 18 3.69 0.56
1 -3 18 8.9 1.1
1 -3 18 7.05 0.74
1 -3 18 6.82 1.33
2 -3 18 0.71 0.8
2 -3 18 0.17 0.74
2 -3 18 0.71 0.76
2 -3 18 0.3 0.4
3 -3 18 10.12 1.34
3 -3 18 8.29 0.84
3 -3 18 9.4 1.58
3 -3 18 10.22 1.22
3 -3 18 8.52 0.76
4 -3 18 18.29 2.65
4 -3 18 17.22 1.29
4 -3 18 15.68 1.98
4 -3 18 15.93 1.8
5 -3 18 9.99 1.43
5 -3 18 11.16 1.33
5 -3 18 9.94 0.93
6 -3 18 0.97 0.78
6 -3 18 0.63 0.37
6 -3 18 0.67 0.86
7 -3 18 0.02 0.33
7 -3 18 0.06 0.79
7 -3 18 1.11 0.82
-9 -2 18 0.99 0.5
-8 -2 18 0.71 0.51
-7 -2 18 3.34 0.62
-6 -2 18 0 0.51
-5 -2 18 31.53 2.28
-5 -2 18 26.94 3.93
-4 -2 18 6.1 0.7
-4 -2 18 5.56 1.24
3 2 -18 1.49 0.74
-3 -2 18 2.1 0.5
-3 -2 18 2.36 0.87
2 2 -18 1.72 0.69
-2 -2 18 0.35 0.63
-2 -2 18 0.98 0.83
-2 -2 18 0.21 0.42
1 2 -18 0.95 0.71
-1 -2 18 1.39 0.85
-1 -2 18 1.76 0.72
-1 -2 18 1.27 0.44
0 -2 18 4.86 0.63
0 -2 18 5.55 1.21
0 -2 18 7.22 0.97
1 -2 18 2.05 0.77
1 -2 18 1.22 0.86
1 -2 18 2.33 0.45
2 -2 18 8.08 1.44
2 -2 18 8.47 0.78
2 -2 18 7.49 0.77
2 -2 18 9.15 1.15
3 -2 18 2.83 0.5
3 -2 18 4.81 0.97
3 -2 18 4.26 0.48
3 -2 18 2.79 0.89
3 -2 18 2.74 1
4 -2 18 19.73 1.38
4 -2 18 18.18 2.79
4 -2 18 18.06 1.92
4 -2 18 16.83 2.09
5 -2 18 8.14 1.23
5 -2 18 7.54 0.71
5 -2 18 8.4 1.18
6 -2 18 16.5 2.09
6 -2 18 18.54 1.37
6 -2 18 19.17 1.92
7 -2 18 -1.14 0.8
7 -2 18 0.11 0.34
7 -2 18 1.31 0.84
-9 -1 18 0.28 0.45
-8 -1 18 0.87 0.48
-7 -1 18 2.2 0.54
-6 -1 18 16.17 1.41
-5 -1 18 17.44 2.64
-5 -1 18 17.08 1.47
-4 -1 18 21.61 3.24
-4 -1 18 23.02 1.8
-3 -1 18 0.55 0.79
-3 -1 18 0.94 0.46
2 1 -18 0.56 0.65
-2 -1 18 0.29 0.64
-2 -1 18 0.39 0.8
-2 -1 18 0.69 0.41
1 1 -18 -0.69 0.66
-1 -1 18 0.28 0.41
-1 -1 18 -0.11 0.66
-1 -1 18 0.32 0.8
0 -1 18 0.62 0.68
0 -1 18 0.17 0.39
0 -1 18 0.61 0.84
1 -1 18 1.26 0.42
1 -1 18 1.59 0.35
1 -1 18 1.34 0.91
1 -1 18 1.75 0.76
2 -1 18 0.29 0.38
2 -1 18 0.31 0.84
2 -1 18 0.57 0.35
2 -1 18 0.55 0.75
3 -1 18 3.99 1.1
3 -1 18 4.84 0.94
3 -1 18 3.71 0.49
4 -1 18 6.94 0.64
4 -1 18 6.48 1.08
4 -1 18 6.8 1.12
4 -1 18 5.51 1.27
5 -1 18 13.99 1.89
5 -1 18 15.46 1.2
5 -1 18 15.79 1.65
6 -1 18 0.94 0.37
6 -1 18 1.49 0.85
6 -1 18 0.57 0.86
7 -1 18 -1.06 0.9
7 -1 18 0.44 0.78
-9 0 18 -0.42 0.4
-8 0 18 0.52 0.46
-7 0 18 4.49 0.62
-6 0 18 15.52 1.35
-5 0 18 3.95 0.61
-4 0 18 1.26 0.47
-4 0 18 0.49 0.85
-3 0 18 -0.17 0.78
-3 0 18 -0.01 0.44
-2 0 18 1 0.44
-2 0 18 1.27 0.87
-2 0 18 1.67 0.69
-1 0 18 0.07 0.66
-1 0 18 -0.27 0.3
-1 0 18 -0.06 0.39
-1 0 18 -0.73 0.81
0 0 18 0.09 0.32
0 0 18 0.24 0.7
0 0 18 0.27 0.4
0 0 18 -0.33 0.79
1 0 18 0.98 0.81
1 0 18 0.64 0.34
1 0 18 0.99 0.41
1 0 18 1.33 0.75
2 0 18 0.13 0.84
2 0 18 -0.26 0.31
2 0 18 0.23 0.79
2 0 18 -0.01 0.38
3 0 18 0.64 0.36
3 0 18 -0.45 0.78
3 0 18 0.32 0.85
4 0 18 0.12 0.84
4 0 18 -0.14 0.82
4 0 18 0.66 0.38
5 0 18 1.3 0.39
5 0 18 1.27 0.87
5 0 18 0.99 0.77
6 0 18 -0.2 0.34
6 0 18 0.93 0.83
6 0 18 0.93 0.8
-8 1 18 0.94 0.46
-7 1 18 -0.43 0.43
-6 1 18 0.56 0.45
-5 1 18 0.4 0.45
-4 1 18 7.21 1.42
-4 1 18 8.31 0.79
-3 1 18 2.73 0.96
-3 1 18 5.02 0.56
-2 1 18 0.28 0.77
-2 1 18 -0.01 0.4
-1 1 18 2.09 0.97
-1 1 18 3.18 0.79
-1 1 18 4.07 0.51
0 1 18 0.47 0.4
0 1 18 0.62 0.72
0 1 18 0.57 0.32
0 1 18 0.14 0.79
1 1 18 0.95 0.75
1 1 18 0.38 0.81
1 1 18 1.17 0.33
1 1 18 0.43 0.38
2 1 18 7.21 1.04
2 1 18 5.46 0.6
2 1 18 5.8 0.56
2 1 18 4.43 1.16
3 1 18 14.77 1.47
3 1 18 12.52 1.01
3 1 18 10.4 1.87
4 1 18 -0.67 0.82
4 1 18 -0.19 0.36
4 1 18 -1.43 0.79
5 1 18 2.92 0.44
5 1 18 2.62 0.95
6 1 18 1.2 0.89
6 1 18 3.18 0.84
8 -2 -18 0.66 0.6
-4 2 18 3.6 1.02
-3 2 18 0.55 0.77
-2 2 18 0.54 0.77
-1 2 18 0.17 0.66
-1 2 18 -0.28 0.77
0 2 18 0.42 0.83
0 2 18 2.64 0.79
1 2 18 5.04 0.5
1 2 18 2.92 1.06
1 2 18 5.5 0.9
2 2 18 2.29 0.38
2 2 18 1.94 0.83
2 2 18 0.93 0.88
3 2 18 1.6 0.97
3 2 18 3.32 0.91
3 2 18 2.69 0.42
4 2 18 6.84 1.07
4 2 18 4.85 1.24
4 2 18 6.85 0.6
5 2 18 -1.18 0.85
7 -3 -18 -0.26 0.59
6 -3 -18 0.93 0.61
5 -3 -18 0.36 0.57
-4 3 18 3.9 1.06
-3 3 18 0.08 0.75
-2 3 18 -0.02 0.75
-1 3 18 -0.07 0.77
0 3 18 1.98 0.76
0 3 18 0.15 0.8
1 3 18 -0.91 0.77
1 3 18 -1.02 0.72
2 3 18 5.9 0.55
2 3 18 5.09 1.19
3 3 18 0.94 0.33
3 3 18 -1.04 0.81
7 -4 -18 1.66 0.59
6 -4 -18 0.28 0.53
-2 4 18 -0.89 0.73
-1 4 18 0.14 0.83
0 4 18 6.92 0.94
0 4 18 3.18 1.03
1 4 18 3.81 1.1
1 4 18 7.53 1
-4 -4 -18 0.38 0.7
6 -5 -18 3.61 0.68
1 5 18 -0.41 0.73
-4 -5 -18 0.31 0.67
-5 -5 -18 0.38 0.68
-2 -6 -18 0.56 0.67
-3 -6 -18 0.66 0.69
-4 -6 -18 1.39 0.66
-1 -7 -18 -0.04 0.69
-2 -7 -18 1 0.71
-3 -7 -18 3.49 0.81
-3 -17 19 0.09 0.85
-3 -17 19 0.96 0.44
-3 -17 19 -0.24 0.5
-2 -17 19 8.43 1.3
-2 -17 19 13.34 1.05
-2 -17 19 13.37 1.87
-1 -17 19 2.63 0.66
-1 -17 19 2.9 1.04
0 -17 19 1.56 0.6
0 -17 19 2.29 1.03
1 -17 19 1.31 0.61
1 -17 19 3.89 1.04
2 -17 19 10.13 1.34
2 -17 19 15.45 1.98
3 -17 19 0.37 0.54
3 -17 19 1.17 0.95
-4 -16 19 -0.3 0.88
-4 -16 19 1.27 0.57
-4 -16 19 1 0.48
-4 -16 19 1.54 0.61
-3 -16 19 -0.47 0.92
-3 -16 19 0.81 0.6
-3 -16 19 0.08 0.58
-3 -16 19 0.36 0.47
-2 -16 19 0.7 0.98
-2 -16 19 0.41 0.6
-2 -16 19 0.53 0.46
-1 -16 19 3.22 0.59
-1 -16 19 5 1.16
-1 -16 19 5.2 0.79
0 -16 19 0.79 0.66
0 -16 19 3.47 1.07
1 -16 19 13.14 1.55
2 -16 19 -0.15 0.58
2 -16 19 0.73 1.02
3 -16 19 -0.2 0.53
3 -16 19 0.32 0.97
4 -16 19 1.3 0.61
4 -16 19 2.45 0.97
-5 -15 19 0.53 0.51
-5 -15 19 0.58 0.6
-4 -15 19 0.25 0.59
-4 -15 19 0.4 0.59
-4 -15 19 -0.15 0.49
-3 -15 19 1.73 0.67
-3 -15 19 0.27 0.98
-3 -15 19 1.3 0.53
-3 -15 19 0.89 0.64
-2 -15 19 2.34 0.84
-2 -15 19 2.59 0.54
-2 -15 19 2.86 1.09
-2 -15 19 2.3 0.74
-1 -15 19 12.03 1.12
-1 -15 19 11.12 1.39
-1 -15 19 10.2 1.48
-1 -15 19 15.39 2.09
0 -15 19 1.01 1.07
0 -15 19 0.99 0.77
0 -15 19 0.19 0.45
0 -15 19 0.1 0.66
0 -15 19 -1.07 0.79
1 -15 19 10.27 1.26
1 -15 19 10.18 1.37
1 -15 19 8.5 1.63
1 -15 19 13.06 1.5
2 -15 19 4.68 0.89
2 -15 19 6.65 1.29
3 -15 19 1.42 0.62
3 -15 19 2.58 1.07
4 -15 19 1.5 0.58
4 -15 19 1.94 0.99
5 -15 19 -0.07 0.53
-6 -14 19 0.62 0.51
-6 -14 19 1.5 0.61
-5 -14 19 1.69 0.65
-5 -14 19 0.5 0.54
-4 -14 19 2.7 0.72
-4 -14 19 1.75 0.56
-3 -14 19 2.29 0.77
-3 -14 19 1.78 0.67
-3 -14 19 1.08 0.56
-3 -14 19 0.24 1.03
-2 -14 19 3.85 0.82
-2 -14 19 3.46 0.77
-2 -14 19 2.73 0.58
-2 -14 19 2.06 0.85
-2 -14 19 2.28 1.16
-1 -14 19 3.96 0.6
-1 -14 19 4.69 1.22
-1 -14 19 4.1 0.89
-1 -14 19 2.2 0.97
-1 -14 19 2.52 0.79
0 -14 19 0.75 1.14
0 -14 19 -0.71 0.46
0 -14 19 -0.09 0.7
0 -14 19 -0.17 0.87
0 -14 19 0.75 0.75
1 -14 19 1.68 1.14
1 -14 19 1.32 0.76
1 -14 19 0.57 0.7
1 -14 19 1.66 0.87
2 -14 19 5.49 1.28
2 -14 19 4.45 0.88
2 -14 19 4.88 1.06
2 -14 19 4.19 0.88
3 -14 19 1.13 0.85
3 -14 19 1.57 0.74
3 -14 19 1.33 0.66
3 -14 19 1.07 1.08
4 -14 19 -0.11 0.56
5 -14 19 -0.08 0.54
6 -14 19 0.77 0.53
-7 -13 19 6.68 0.88
-7 -13 19 6.53 0.74
-6 -13 19 0.16 0.6
-6 -13 19 0.13 0.5
-6 -13 19 0.31 0.42
-5 -13 19 0.56 0.43
-5 -13 19 1.02 0.54
-5 -13 19 0.75 0.67
-4 -13 19 -0.35 0.67
-4 -13 19 -0.29 0.53
-4 -13 19 1.11 0.69
-4 -13 19 0.22 0.42
-3 -13 19 0.11 1.04
-3 -13 19 -0.22 0.56
-3 -13 19 0.32 0.74
-3 -13 19 0.03 0.67
-2 -13 19 4.67 1
-2 -13 19 5.51 0.91
-2 -13 19 5.08 1.35
-2 -13 19 6.83 0.76
-1 -13 19 0.35 0.72
-1 -13 19 0.69 0.88
-1 -13 19 -0.32 0.53
-1 -13 19 0.42 0.76
-1 -13 19 0.81 1.14
0 -13 19 0.45 0.87
0 -13 19 1.65 1.16
0 -13 19 0.39 0.49
0 -13 19 -0.37 0.76
0 -13 19 0.47 0.72
1 -13 19 2.49 0.8
1 -13 19 3.14 0.93
1 -13 19 2.51 1.2
1 -13 19 3.05 0.52
1 -13 19 2.88 0.86
2 -13 19 1.86 0.75
2 -13 19 1.95 0.89
2 -13 19 1.2 0.77
2 -13 19 1.62 1.15
3 -13 19 -0.79 0.79
3 -13 19 0.51 1.09
3 -13 19 1.94 0.76
3 -13 19 0.09 0.65
4 -13 19 1.09 0.72
4 -13 19 0.63 0.89
4 -13 19 0.48 0.6
5 -13 19 0.93 0.57
6 -13 19 4.48 0.74
7 -13 19 -0.08 0.49
-7 -12 19 -0.61 0.61
-7 -12 19 -0.46 0.37
-7 -12 19 0.3 0.49
-6 -12 19 1.39 0.45
-6 -12 19 1.39 0.56
-6 -12 19 1.67 0.69
-5 -12 19 -0.38 0.41
-5 -12 19 0.3 0.64
-5 -12 19 -0.17 0.54
-5 -12 19 -0.12 0.67
-4 -12 19 1.92 0.73
-4 -12 19 1.49 0.47
-4 -12 19 1.35 0.75
-4 -12 19 1.86 0.61
-3 -12 19 0.97 0.75
-3 -12 19 0.26 0.55
-3 -12 19 1.29 0.7
-3 -12 19 0.49 0.44
-3 -12 19 0.38 1.09
-2 -12 19 2.27 0.57
-2 -12 19 1.2 0.45
-2 -12 19 2.37 0.82
-2 -12 19 1.45 0.71
-2 -12 19 0.22 0.88
-2 -12 19 2.18 1.16
-1 -12 19 1.35 1.18
-1 -12 19 1.5 0.54
-1 -12 19 1.47 0.92
-1 -12 19 1.69 0.84
-1 -12 19 1.42 0.45
0 -12 19 0.75 0.79
0 -12 19 1.76 0.94
0 -12 19 0.27 0.43
0 -12 19 0.34 0.48
0 -12 19 0.6 1.15
0 -12 19 -0.12 0.71
1 -12 19 1.33 1.16
1 -12 19 1.26 0.74
1 -12 19 0.68 0.45
1 -12 19 2.39 0.86
1 -12 19 0.45 0.41
1 -12 19 0.49 0.76
2 -12 19 2.54 0.76
2 -12 19 3.12 1.04
2 -12 19 4.15 1.22
2 -12 19 3.33 0.85
2 -12 19 2.87 0.47
3 -12 19 0.63 0.81
3 -12 19 3.49 1.01
3 -12 19 2.81 1.15
3 -12 19 2.31 0.73
4 -12 19 0.15 0.74
4 -12 19 -0.43 0.87
4 -12 19 -0.12 0.59
5 -12 19 0.41 0.54
5 -12 19 1.35 0.87
6 -12 19 0.55 0.54
7 -12 19 2.98 0.66
-8 -11 19 -0.23 0.37
-8 -11 19 0.7 0.45
-8 -11 19 0.36 0.56
-7 -11 19 2.56 0.48
-7 -11 19 1.98 0.69
-7 -11 19 2.9 0.56
-6 -11 19 1.28 0.49
-6 -11 19 3.16 0.6
-6 -11 19 2.43 0.72
-5 -11 19 0.63 0.46
-5 -11 19 0.55 0.59
-5 -11 19 0.12 0.67
-5 -11 19 1.24 0.68
-4 -11 19 3.04 0.55
-4 -11 19 3.07 0.76
-4 -11 19 4.05 0.84
-4 -11 19 3.73 0.65
-3 -11 19 1.86 0.72
-3 -11 19 1.2 0.47
-3 -11 19 1.41 1.14
-3 -11 19 0.98 0.73
-3 -11 19 2.27 0.61
-2 -11 19 3.14 0.65
-2 -11 19 3.64 0.78
-2 -11 19 2.1 0.5
-2 -11 19 3.07 1.22
-2 -11 19 3.22 0.87
-1 -11 19 0.07 0.8
-1 -11 19 0.4 0.81
-1 -11 19 0.8 0.42
-1 -11 19 0.38 0.55
-1 -11 19 1.19 1.18
0 -11 19 -0.17 1.15
0 -11 19 0.6 0.78
0 -11 19 0.32 0.42
0 -11 19 0.58 0.68
0 -11 19 -0.07 0.48
0 -11 19 0.23 0.85
1 -11 19 0.3 0.41
1 -11 19 -0.73 0.7
1 -11 19 0.34 0.44
1 -11 19 0.06 0.73
1 -11 19 -0.05 1.15
1 -11 19 1.39 0.9
2 -11 19 3.13 1.01
2 -11 19 2.1 1.19
2 -11 19 2.38 0.47
2 -11 19 1.49 0.81
2 -11 19 2.13 0.76
3 -11 19 3.47 0.87
3 -11 19 3.64 1.05
3 -11 19 4.38 0.84
4 -11 19 1.97 0.8
4 -11 19 2.7 0.99
4 -11 19 1.73 0.67
5 -11 19 -0.16 0.29
5 -11 19 -0.04 0.54
5 -11 19 0.8 0.91
6 -11 19 0.01 0.54
7 -11 19 -0.56 0.51
-8 -10 19 -0.33 0.55
-8 -10 19 0.45 0.47
-8 -10 19 0.47 0.41
-7 -10 19 1.45 0.46
-7 -10 19 1.71 0.55
-7 -10 19 2.66 0.66
-6 -10 19 -0.43 0.53
-6 -10 19 -0.1 0.45
-6 -10 19 -0.31 0.66
-5 -10 19 -0.14 0.67
-5 -10 19 -0.61 0.48
-5 -10 19 -0.22 0.55
-4 -10 19 10.89 1.16
-4 -10 19 9.68 0.94
-4 -10 19 10.5 1.01
-4 -10 19 7.26 1.17
-3 -10 19 -0.04 0.45
-3 -10 19 0.05 0.67
-3 -10 19 -0.43 0.71
-3 -10 19 0.68 0.56
-2 -10 19 1.22 0.77
-2 -10 19 0.63 0.68
-2 -10 19 0.02 0.55
-2 -10 19 -0.01 0.44
-1 -10 19 3.81 0.63
-1 -10 19 3.49 1.24
-1 -10 19 3.86 0.9
-1 -10 19 2.93 0.54
-1 -10 19 3.18 0.91
0 -10 19 0.94 0.83
0 -10 19 0.87 0.75
0 -10 19 -0.85 0.41
0 -10 19 -0.15 0.47
0 -10 19 0.55 1.17
1 -10 19 1.54 0.46
1 -10 19 1.32 0.47
1 -10 19 0.95 0.73
1 -10 19 1.4 0.93
1 -10 19 2.02 0.78
2 -10 19 3.12 0.76
2 -10 19 1.07 0.8
2 -10 19 2.14 0.46
2 -10 19 3.03 1.01
3 -10 19 2.52 0.47
3 -10 19 3 0.75
3 -10 19 2.52 0.95
3 -10 19 1.23 0.8
4 -10 19 3.92 0.79
4 -10 19 5.48 1.06
4 -10 19 2.65 0.87
5 -10 19 0.3 0.31
5 -10 19 1.87 0.95
5 -10 19 0.65 0.74
5 -10 19 0.57 0.55
6 -10 19 1.11 0.9
6 -10 19 1.45 0.31
6 -10 19 0.68 0.55
7 -10 19 -0.38 0.52
8 -10 19 -0.55 0.43
-8 -9 19 0.41 0.43
-8 -9 19 0.02 0.44
-8 -9 19 0.09 0.54
-7 -9 19 -0.02 0.5
-7 -9 19 -0.64 0.44
-7 -9 19 -0.14 0.61
-6 -9 19 3.11 0.57
-6 -9 19 2.24 0.71
-6 -9 19 3.66 0.63
-5 -9 19 0.63 0.67
-5 -9 19 -0.52 0.55
-5 -9 19 0.5 0.48
-4 -9 19 0.65 0.66
-4 -9 19 1.74 0.5
-4 -9 19 0.68 0.72
-4 -9 19 0.7 0.58
-3 -9 19 2.14 0.55
-3 -9 19 3.01 0.7
-3 -9 19 3.47 0.64
-3 -9 19 3.39 0.89
-2 -9 19 0.1 0.66
-2 -9 19 -0.25 0.45
-2 -9 19 -0.42 0.52
-2 -9 19 -0.41 0.73
-1 -9 19 2.82 0.58
-1 -9 19 3.28 0.55
-1 -9 19 2.6 0.87
0 -9 19 0.64 0.9
0 -9 19 0.94 0.75
0 -9 19 0.66 0.47
0 -9 19 0.42 0.45
1 -9 19 0.55 0.44
1 -9 19 1.11 0.74
1 -9 19 0.04 0.87
1 -9 19 -0.01 0.67
1 -9 19 0.39 0.43
2 -9 19 0.19 0.86
2 -9 19 1.12 0.69
2 -9 19 -0.34 0.74
2 -9 19 -0.11 0.42
3 -9 19 6.22 0.93
3 -9 19 6.17 0.66
3 -9 19 6.92 1.15
3 -9 19 3.42 0.92
4 -9 19 0.46 0.61
4 -9 19 0.66 0.9
4 -9 19 0.52 0.75
5 -9 19 -0.08 0.94
5 -9 19 0.67 0.33
5 -9 19 1.27 0.74
5 -9 19 0.87 0.55
6 -9 19 5.8 1.27
6 -9 19 7.91 0.99
6 -9 19 8.39 0.71
7 -9 19 -0.6 0.49
7 -9 19 0.2 0.26
8 -9 19 -0.27 0.44
-9 -8 19 0.76 0.43
-8 -8 19 -0.23 0.43
-8 -8 19 0.2 0.46
-8 -8 19 0.27 0.53
-7 -8 19 5.67 0.84
-7 -8 19 6.9 0.75
-7 -8 19 6.97 0.76
-6 -8 19 3.49 0.62
-6 -8 19 1.57 0.67
-6 -8 19 2.77 0.57
-5 -8 19 3.11 0.72
-5 -8 19 2.71 0.61
-5 -8 19 4.62 0.66
-4 -8 19 2.99 0.85
-4 -8 19 5.89 0.74
-4 -8 19 4.43 0.65
-4 -8 19 3.44 0.78
-3 -8 19 1.78 0.83
-3 -8 19 2.05 0.55
-3 -8 19 2.25 0.68
-3 -8 19 3.67 0.62
-2 -8 19 1.56 0.5
-2 -8 19 2.92 0.86
-2 -8 19 2.36 0.56
-2 -8 19 1.75 0.69
-1 -8 19 0.54 0.75
-1 -8 19 0.29 0.5
-1 -8 19 0.21 0.43
0 8 -19 3.84 0.97
0 -8 19 1.02 0.75
0 -8 19 0.82 0.86
0 -8 19 -0.23 0.43
0 -8 19 1.27 0.49
1 -8 19 1.4 0.89
1 -8 19 0.33 0.65
1 -8 19 -0.71 0.71
1 -8 19 -0.41 0.42
2 -8 19 1.31 0.69
2 -8 19 1.35 0.88
2 -8 19 0.79 0.76
2 -8 19 0.85 0.45
3 -8 19 0.58 0.43
3 -8 19 0.37 0.59
3 -8 19 1.03 0.75
3 -8 19 0.89 0.85
4 -8 19 0.83 0.36
4 -8 19 0.24 0.56
4 -8 19 -0.53 0.82
4 -8 19 -0.26 0.72
5 -8 19 0.5 0.52
5 -8 19 0.18 0.34
5 -8 19 0.98 0.95
5 -8 19 1.66 0.77
6 -8 19 1.69 0.35
6 -8 19 1.23 0.54
6 -8 19 -0.23 0.79
6 -8 19 1.76 0.95
7 -8 19 0.91 0.29
7 -8 19 0.46 0.5
8 -8 19 0.15 0.23
-9 -7 19 0.01 0.44
-8 -7 19 1.22 0.44
-8 -7 19 0.05 0.49
-7 -7 19 1.13 0.5
-7 -7 19 0.39 0.53
-6 -7 19 2.07 0.57
-6 -7 19 3.23 0.59
-5 -7 19 6.71 0.82
-5 -7 19 8.03 0.94
-5 -7 19 7.8 0.83
-4 -7 19 0.68 0.61
-4 -7 19 0.49 0.55
-4 -7 19 1.27 0.72
-4 -7 19 0.62 0.52
-3 -7 19 4.53 0.89
-3 -7 19 3.89 0.64
-3 -7 19 2.75 0.61
-3 -7 19 5.09 0.71
-2 -7 19 6.37 0.73
-2 -7 19 4.81 0.67
-2 -7 19 5.97 0.98
1 7 -19 -0.86 0.87
-1 -7 19 0.11 0.72
-1 -7 19 0.22 0.44
-1 -7 19 0.48 0.47
0 7 -19 -0.61 0.82
0 -7 19 -0.76 0.41
0 -7 19 1.26 0.73
0 -7 19 -0.26 0.43
-1 7 -19 -0.11 0.84
1 -7 19 0.17 0.44
1 -7 19 0.31 0.81
1 -7 19 0.22 0.69
1 -7 19 0.08 0.61
2 -7 19 15.09 1.24
2 -7 19 12.04 1.63
2 -7 19 13.95 1.73
2 -7 19 14.74 1.56
3 -7 19 16.04 1.98
3 -7 19 16.53 1.71
3 -7 19 15.05 1.79
3 -7 19 17.1 1.38
4 -7 19 9.14 1.27
4 -7 19 11.45 1.51
4 -7 19 7.46 1.16
4 -7 19 10.69 0.87
5 -7 19 0.98 0.92
5 -7 19 -0.36 0.49
5 -7 19 0.74 0.75
5 -7 19 -0.04 0.34
6 -7 19 0.48 0.73
6 -7 19 1.18 0.35
6 -7 19 1.82 0.54
6 -7 19 2.29 1
7 -7 19 0.39 0.93
7 -7 19 0.84 0.3
8 -7 19 2.26 0.32
-9 -6 19 -0.12 0.44
-8 -6 19 2.03 0.53
-7 -6 19 0.95 0.49
-7 -6 19 0.87 0.53
-6 -6 19 1.58 0.56
-6 -6 19 2.03 0.52
-5 -6 19 3.44 0.62
-5 -6 19 3.77 0.62
-4 -6 19 2.48 0.56
-4 -6 19 3.04 0.59
-3 -6 19 10.46 1.25
-3 -6 19 9.17 0.94
-3 -6 19 9.61 0.93
2 6 -19 9.81 1.37
-2 -6 19 11.21 1.12
-2 -6 19 11.03 1.11
-2 -6 19 12.18 1.33
1 6 -19 0.75 0.85
-1 -6 19 0.65 0.7
-1 -6 19 0.56 0.46
-1 -6 19 0.69 0.44
-1 -6 19 -0.29 0.9
0 6 -19 1.05 0.83
0 -6 19 0.42 0.71
0 -6 19 1.16 0.87
0 -6 19 0.63 0.46
-1 6 -19 0.72 0.86
1 -6 19 1.11 0.89
1 -6 19 0.29 0.8
1 -6 19 -0.24 0.43
1 -6 19 -0.46 0.73
2 -6 19 2.61 0.97
2 -6 19 3.43 0.88
2 -6 19 3.33 0.95
2 -6 19 2.96 0.69
2 -6 19 2.55 0.52
3 -6 19 0.07 0.54
3 -6 19 0.96 0.75
3 -6 19 -0.26 0.81
3 -6 19 0.27 0.43
4 -6 19 15.19 1.82
4 -6 19 18.02 1.77
4 -6 19 15.57 2.04
4 -6 19 18.42 1.28
5 -6 19 10.07 0.87
5 -6 19 11.44 1.49
5 -6 19 7.24 1.19
6 -6 19 -0.12 0.34
6 -6 19 -0.48 0.74
6 -6 19 -0.04 0.88
7 -6 19 -0.07 0.3
7 -6 19 0.87 0.89
-9 -5 19 1.65 0.51
-8 -5 19 1.91 0.54
-7 -5 19 0.85 0.46
-7 -5 19 0.82 0.55
-6 -5 19 0.49 0.48
-6 -5 19 0.73 0.54
-5 -5 19 0.29 0.52
-5 -5 19 0.76 0.48
-4 -5 19 1.29 0.55
-4 -5 19 1.43 0.51
-3 -5 19 1.7 0.54
-3 -5 19 3.1 0.78
-3 -5 19 1.7 0.5
-3 -5 19 2.24 0.84
2 5 -19 5.12 0.95
-2 -5 19 3.72 1.08
-2 -5 19 4.63 0.88
-2 -5 19 5.05 0.63
-2 -5 19 4.6 0.63
1 5 -19 0.52 0.78
-1 -5 19 1.49 0.73
-1 -5 19 0.98 0.91
-1 -5 19 1.22 0.47
0 5 -19 0.81 0.82
0 -5 19 2.19 0.93
0 -5 19 2.18 0.5
0 -5 19 2.83 0.8
-1 5 -19 1 0.92
1 -5 19 1.45 0.48
1 -5 19 2.35 0.88
1 -5 19 3.19 0.83
2 -5 19 18.07 1.94
2 -5 19 22.25 1.59
2 -5 19 21.35 2.94
2 -5 19 17.58 2.2
2 -5 19 16.87 2.13
3 -5 19 5.53 1
3 -5 19 7.33 1.32
3 -5 19 7.39 1.21
3 -5 19 6.02 0.68
3 -5 19 5.97 0.61
4 -5 19 16.45 1.79
4 -5 19 10.67 1.47
4 -5 19 14.96 1.12
5 -5 19 3.4 0.99
5 -5 19 7.6 0.64
5 -5 19 8.56 1.24
6 -5 19 1.87 0.79
6 -5 19 2.05 0.88
6 -5 19 1.31 0.39
7 -5 19 0.18 0.32
7 -5 19 0.65 0.9
-9 -4 19 0.63 0.47
-8 -4 19 0.61 0.51
-7 -4 19 0.58 0.53
-6 -4 19 4.04 0.62
-5 -4 19 25.61 2.05
-4 -4 19 0.73 0.53
-4 -4 19 1.48 0.79
-3 -4 19 -0.77 0.65
-3 -4 19 0.42 0.5
-3 -4 19 0.47 0.76
2 4 -19 9.95 1.42
-2 -4 19 12.6 2.02
-2 -4 19 13.29 1.18
-2 -4 19 15.35 1.47
1 4 -19 3.41 0.85
-1 -4 19 4.02 0.6
-1 -4 19 5.67 1.19
-1 -4 19 4.91 0.9
0 4 -19 1.61 0.79
0 -4 19 1.73 0.48
0 -4 19 1.61 0.77
0 -4 19 2.26 0.97
1 -4 19 18.72 2.9
1 -4 19 18.45 1.93
1 -4 19 20.36 1.59
2 -4 19 0.09 0.43
2 -4 19 -0.11 0.84
2 -4 19 0.8 0.81
2 -4 19 0.65 0.86
3 -4 19 8.21 1.28
3 -4 19 7.98 1.14
3 -4 19 7.15 1.39
3 -4 19 7.69 0.69
3 -4 19 7.77 0.77
4 -4 19 11.25 1.36
4 -4 19 10.88 0.97
4 -4 19 11.56 1.51
5 -4 19 13.88 1.09
5 -4 19 14.21 1.81
5 -4 19 12.12 1.48
6 -4 19 0.03 0.78
6 -4 19 0.77 0.37
6 -4 19 0.59 0.79
7 -4 19 -0.02 0.32
7 -4 19 0.83 0.88
-9 -3 19 0.75 0.47
-8 -3 19 0.84 0.5
-7 -3 19 2.55 0.56
-6 -3 19 5.04 0.69
-5 -3 19 11.37 1.14
-4 -3 19 -0.27 0.49
-4 -3 19 0.66 0.8
-3 -3 19 3.57 1.08
-3 -3 19 5.38 0.66
-3 -3 19 5.68 0.91
2 3 -19 5.28 1.16
-2 -3 19 11.78 1.2
-2 -3 19 9.67 0.9
-2 -3 19 10.79 1.68
-1 -3 19 19.99 1.56
-1 -3 19 16.85 1.86
-1 -3 19 18.57 2.84
0 3 -19 0.2 0.75
0 -3 19 0.67 0.8
0 -3 19 -0.16 0.43
0 -3 19 0.88 0.74
1 -3 19 9.28 1.14
1 -3 19 7.03 1.4
1 -3 19 8.1 0.8
2 -3 19 0.14 0.43
2 -3 19 2.12 0.83
2 -3 19 0.81 0.36
2 -3 19 0.88 0.79
3 -3 19 1.8 0.87
3 -3 19 3.29 0.88
3 -3 19 2.14 0.43
3 -3 19 1.52 0.45
3 -3 19 1.79 0.9
4 -3 19 3.53 0.48
4 -3 19 3.79 1.04
4 -3 19 2.72 0.93
4 -3 19 4.06 0.97
5 -3 19 2.36 0.43
5 -3 19 1.93 0.89
5 -3 19 2.11 0.88
6 -3 19 1.12 0.76
6 -3 19 0.98 0.38
6 -3 19 -0.75 0.82
7 -3 19 2.98 0.43
-8 -2 19 -0.06 0.46
-7 -2 19 0.29 0.48
-6 -2 19 16.27 1.43
-5 -2 19 0.08 0.49
-5 -2 19 1.94 0.81
-4 -2 19 1.25 0.83
-4 -2 19 0.66 0.49
-3 -2 19 5.39 1.23
-3 -2 19 6.36 0.7
-2 -2 19 2.98 0.96
-2 -2 19 3.79 0.56
-2 -2 19 2.89 0.76
1 2 -19 -0.07 0.75
-1 -2 19 1.03 0.46
-1 -2 19 0.93 0.7
-1 -2 19 0.74 0.81
0 -2 19 -0.35 0.41
0 -2 19 -0.3 0.69
0 -2 19 0.34 0.84
1 -2 19 14.87 1.18
1 -2 19 14.85 1.72
1 -2 19 17.53 2.53
1 -2 19 15.59 1.34
2 -2 19 1.18 0.39
2 -2 19 1.19 0.85
2 -2 19 0.55 0.42
2 -2 19 2.23 0.83
3 -2 19 0.64 0.82
3 -2 19 0.85 0.84
3 -2 19 -0.14 0.4
3 -2 19 0.18 0.36
4 -2 19 3.23 0.99
4 -2 19 4.29 0.95
4 -2 19 3.7 0.9
4 -2 19 2.88 0.47
5 -2 19 0.36 0.38
5 -2 19 -0.43 0.81
5 -2 19 1.27 0.82
6 -2 19 0.76 0.86
6 -2 19 0.23 0.75
6 -2 19 0.56 0.37
-8 -1 19 0.09 0.44
-7 -1 19 3.23 0.56
-6 -1 19 2.75 0.55
-5 -1 19 7.47 0.8
-5 -1 19 7.03 1.39
-4 -1 19 9.13 0.87
-4 -1 19 8.52 1.57
-3 -1 19 2.69 0.93
-3 -1 19 3.35 0.54
-2 -1 19 0.79 0.67
-2 -1 19 -0.34 0.8
-2 -1 19 -0.22 0.42
-1 -1 19 7.95 1.54
-1 -1 19 8.25 0.83
-1 -1 19 11.42 1.18
0 -1 19 -0.08 0.32
0 -1 19 -0.11 0.42
0 -1 19 -0.51 0.68
0 -1 19 -0.28 0.8
1 -1 19 3.53 0.46
1 -1 19 4.93 0.91
1 -1 19 3.49 0.52
1 -1 19 2.51 0.98
2 -1 19 -1.16 0.76
2 -1 19 0.53 0.35
2 -1 19 0.31 0.4
2 -1 19 0.03 0.83
3 -1 19 0.39 0.35
3 -1 19 0.48 0.87
3 -1 19 0.87 0.86
4 -1 19 15.75 2.67
4 -1 19 16.91 1.3
4 -1 19 18.27 1.87
5 -1 19 3.97 0.5
5 -1 19 3.87 0.96
5 -1 19 4.42 0.93
6 -1 19 1.67 0.39
6 -1 19 2 0.79
6 -1 19 2.31 0.88
-8 0 19 0.38 0.43
-7 0 19 5.36 0.65
-6 0 19 2.64 0.53
-5 0 19 2.15 0.51
-4 0 19 1.14 0.84
-4 0 19 0.86 0.47
-3 0 19 -0.18 0.42
-3 0 19 -0.26 0.75
-2 0 19 5.1 1.21
-2 0 19 5.03 0.62
-1 0 19 0.19 0.41
-1 0 19 1.27 0.71
-1 0 19 0.08 0.83
0 0 19 12.16 1.32
0 0 19 11.1 0.91
0 0 19 9.78 1.71
0 0 19 10.88 1.03
1 0 19 3.04 0.42
1 0 19 2.97 0.5
1 0 19 2.32 0.96
1 0 19 3.61 0.86
2 0 19 1.69 0.43
2 0 19 2.9 0.88
2 0 19 3.12 0.95
2 0 19 1.77 0.39
3 0 19 3.16 0.45
3 0 19 4.19 0.93
3 0 19 2.06 1.03
4 0 19 3.94 0.49
4 0 19 3.3 1.07
4 0 19 5.15 0.98
5 0 19 7.22 0.66
-4 1 19 -0.03 0.75
-4 1 19 -0.17 0.42
-3 1 19 1.91 0.46
-3 1 19 0.78 0.83
-2 1 19 0.22 0.78
-2 1 19 0.84 0.41
-1 1 19 14.15 1.23
-1 1 19 13.74 2.4
-1 1 19 14.84 1.52
0 1 19 1.25 0.91
0 1 19 0.59 0.75
0 1 19 0.03 0.31
0 1 19 0.5 0.4
1 1 19 0.65 0.39
1 1 19 0.89 0.88
1 1 19 1.64 0.77
1 1 19 1.64 0.36
2 1 19 0.56 0.8
2 1 19 0.51 0.35
2 1 19 0.46 0.87
3 1 19 0.19 0.34
3 1 19 0.15 0.82
3 1 19 0.38 0.83
4 1 19 -0.57 0.8
4 1 19 0.17 0.35
5 1 19 1.83 0.88
5 1 19 0.13 0.34
7 -2 -19 3.4 0.73
6 -2 -19 0.45 0.56
-3 2 19 -0.22 0.76
-2 2 19 3.62 0.99
-1 2 19 -1.59 0.63
-1 2 19 -0.63 0.8
0 2 19 8.58 1.58
0 2 19 12.28 1.27
1 2 19 -0.28 0.71
1 2 19 -0.53 0.8
1 2 19 0.45 0.32
2 2 19 -0.15 0.83
2 2 19 0.57 0.77
2 2 19 0.17 0.32
3 2 19 0.14 0.32
3 2 19 -0.33 0.83
4 2 19 0.01 0.81
6 -3 -19 0.19 0.52
-1 3 19 6.41 1.25
0 3 19 0.31 0.88
0 3 19 1.45 0.78
1 3 19 1.65 0.81
2 3 19 0.19 0.3
2 3 19 -0.51 0.77
3 3 19 5.61 1.05
0 4 19 -1 0.71
1 4 19 -0.01 0.73
-4 -4 -19 0.26 0.65
-3 -5 -19 1.99 0.69
-4 -5 -19 1.05 0.66
-2 -6 -19 1.06 0.69
-3 -6 -19 0.29 0.6
-2 -17 20 2.11 0.47
-2 -17 20 0.5 0.88
-1 -17 20 0.61 0.58
-1 -17 20 0.67 0.94
0 -17 20 1.05 0.57
0 -17 20 1.16 1
1 -17 20 -0.64 0.52
1 -17 20 0.34 0.97
-4 -16 20 5.02 0.75
-4 -16 20 4.54 0.63
-3 -16 20 -0.63 0.45
-3 -16 20 0.62 0.58
-3 -16 20 -0.23 0.86
-2 -16 20 -0.2 0.47
-2 -16 20 0.61 0.97
-2 -16 20 0.3 0.59
-1 -16 20 0.05 0.62
-1 -16 20 0.26 0.44
-1 -16 20 1.08 1.03
0 -16 20 2.26 0.69
0 -16 20 2.09 1.11
1 -16 20 3.73 0.77
1 -16 20 5.67 1.23
2 -16 20 -0.11 0.53
2 -16 20 1.7 1.06
3 -16 20 1.1 0.99
3 -16 20 0.32 0.54
-5 -15 20 2.48 0.52
-5 -15 20 1.4 0.58
-5 -15 20 2.36 0.61
-4 -15 20 0.37 0.5
-4 -15 20 0.5 0.6
-4 -15 20 0.18 0.61
-3 -15 20 -0.49 0.6
-3 -15 20 -0.05 0.48
-3 -15 20 -0.16 0.92
-2 -15 20 -0.05 0.64
-2 -15 20 0.08 0.51
-2 -15 20 -0.44 1.01
-1 -15 20 2.39 0.76
-1 -15 20 2.56 0.54
-1 -15 20 2.34 1.12
0 -15 20 2.81 0.77
0 -15 20 4.2 1.22
0 -15 20 3.52 0.53
1 -15 20 1.86 0.71
1 -15 20 2.65 1.17
2 -15 20 -0.34 1.08
2 -15 20 0.69 0.63
3 -15 20 0.32 1.03
3 -15 20 0.17 0.56
4 -15 20 -0.24 0.51
-6 -14 20 0.14 0.57
-6 -14 20 -0.13 0.46
-5 -14 20 0.99 0.5
-5 -14 20 -0.24 0.59
-4 -14 20 -0.23 0.52
-4 -14 20 0.34 0.61
-3 -14 20 2.11 0.7
-3 -14 20 0.96 1
-3 -14 20 2.05 0.56
-2 -14 20 -0.09 0.73
-2 -14 20 -0.54 0.51
-2 -14 20 0.7 0.69
-2 -14 20 0.06 1.06
-1 -14 20 0.77 1.14
-1 -14 20 0.52 0.53
-1 -14 20 0.06 0.72
-1 -14 20 0.42 0.71
-1 -14 20 -2.77 0.82
0 -14 20 1.27 0.77
0 -14 20 0.4 0.8
0 -14 20 1.42 0.73
0 -14 20 1.23 1.17
0 -14 20 0.58 0.46
1 -14 20 -0.22 0.71
1 -14 20 0.05 0.82
1 -14 20 0.4 1.14
1 -14 20 0.38 0.7
2 -14 20 2.09 0.85
2 -14 20 2.01 1.14
2 -14 20 1.3 0.7
2 -14 20 1.96 0.85
3 -14 20 2.43 0.68
4 -14 20 -0.04 0.53
5 -14 20 -0.08 0.52
-6 -13 20 3.56 0.68
-6 -13 20 2.47 0.45
-6 -13 20 3.6 0.59
-5 -13 20 0.88 0.64
-5 -13 20 -0.24 0.52
-5 -13 20 0.9 0.39
-4 -13 20 0.23 0.39
-4 -13 20 0 0.55
-4 -13 20 0.71 0.66
-3 -13 20 -0.73 1.02
-3 -13 20 -0.48 0.54
-3 -13 20 -0.37 0.39
-3 -13 20 0.87 0.69
-3 -13 20 0.64 0.68
-2 -13 20 4.98 0.95
-2 -13 20 5.28 0.68
-2 -13 20 4.26 1.27
-2 -13 20 3.6 0.54
-1 -13 20 -0.35 0.72
-1 -13 20 -0.26 0.49
-1 -13 20 0.04 1.17
-1 -13 20 -0.69 0.83
-1 -13 20 0.05 0.4
-1 -13 20 0.11 0.72
0 -13 20 -0.74 0.45
0 -13 20 0.21 0.72
0 -13 20 -0.07 1.14
0 -13 20 -0.94 0.91
0 -13 20 -0.33 0.39
0 -13 20 0.17 0.77
1 -13 20 0.72 0.38
1 -13 20 1.11 0.82
1 -13 20 -0.06 0.42
1 -13 20 0.06 1.17
1 -13 20 -0.38 0.68
1 -13 20 -0.53 0.71
2 -13 20 2.87 1.22
2 -13 20 2.85 0.78
2 -13 20 2.88 0.95
2 -13 20 2.29 0.78
3 -13 20 0.36 0.65
3 -13 20 -0.02 0.83
3 -13 20 0.4 0.75
4 -13 20 -0.24 0.26
4 -13 20 0.07 0.56
5 -13 20 -0.56 0.52
6 -13 20 0.6 0.53
-7 -12 20 2.6 0.54
-7 -12 20 1.75 0.42
-7 -12 20 2.26 0.61
-6 -12 20 0.21 0.39
-6 -12 20 0.4 0.59
-6 -12 20 0.26 0.52
-5 -12 20 4.4 0.68
-5 -12 20 3.89 0.56
-5 -12 20 3.48 0.78
-4 -12 20 1.63 0.46
-4 -12 20 1.26 0.74
-4 -12 20 1.47 0.6
-4 -12 20 4 0.74
-3 -12 20 1.83 0.74
-3 -12 20 1.69 0.62
-3 -12 20 1.41 0.72
-3 -12 20 1.59 0.46
-2 -12 20 0.12 0.43
-2 -12 20 0.4 0.75
-2 -12 20 0.33 1.15
-2 -12 20 0.78 0.59
-1 -12 20 0.91 0.73
-1 -12 20 3 0.86
-1 -12 20 1.64 0.46
-1 -12 20 0.88 1.21
-1 -12 20 3.18 0.6
-1 -12 20 0.34 0.86
0 -12 20 0.56 1.18
0 -12 20 -0.53 0.47
0 -12 20 -0.44 0.89
0 -12 20 -0.35 0.42
0 -12 20 0.23 0.8
0 -12 20 0.91 0.72
1 -12 20 0.95 0.86
1 -12 20 0.07 0.43
1 -12 20 1.95 1.22
1 -12 20 0.17 0.77
1 -12 20 0.43 0.73
1 -12 20 0.72 0.41
2 -12 20 2.51 0.76
2 -12 20 1.49 0.8
2 -12 20 2.62 0.46
2 -12 20 2.06 0.91
3 -12 20 -0.74 0.88
3 -12 20 0.26 0.66
3 -12 20 -0.34 0.71
4 -12 20 0.78 0.72
4 -12 20 1.4 0.91
4 -12 20 -0.29 0.58
5 -12 20 2.14 0.59
5 -12 20 1.01 0.31
6 -12 20 2.13 0.6
-7 -11 20 0.85 0.5
-7 -11 20 0.96 0.43
-7 -11 20 1.18 0.57
-6 -11 20 2.23 0.67
-6 -11 20 1.9 0.48
-6 -11 20 1.48 0.57
-5 -11 20 1.96 0.69
-5 -11 20 1.66 0.48
-5 -11 20 2.25 0.6
-4 -11 20 2.5 0.52
-4 -11 20 1.26 0.7
-4 -11 20 2.62 0.63
-4 -11 20 2.58 0.77
-3 -11 20 0.46 0.46
-3 -11 20 0.11 0.66
-3 -11 20 -0.07 0.57
-3 -11 20 -0.58 0.64
-2 -11 20 0.69 0.58
-2 -11 20 0.61 0.77
-2 -11 20 0.49 0.45
-1 -11 20 -0.2 0.74
-1 -11 20 0.23 0.51
-1 -11 20 0.69 0.45
-1 -11 20 -0.88 0.75
0 -11 20 -0.14 0.72
0 -11 20 -0.11 0.84
0 -11 20 0.09 0.44
0 -11 20 -0.43 0.49
0 -11 20 -1.24 0.73
1 -11 20 1.85 0.8
1 -11 20 1.83 0.49
1 -11 20 1.96 0.96
1 -11 20 1.39 0.74
1 -11 20 1.36 0.46
2 -11 20 0.33 0.41
2 -11 20 0.61 0.85
2 -11 20 0.27 0.68
2 -11 20 0.27 0.73
3 -11 20 0.61 0.72
3 -11 20 1.08 0.91
3 -11 20 0.61 0.65
4 -11 20 1.12 0.72
4 -11 20 0.4 0.59
4 -11 20 0.61 0.89
5 -11 20 1.43 0.93
5 -11 20 2.28 0.6
5 -11 20 2.12 0.36
6 -11 20 -0.01 0.5
7 -11 20 0.41 0.5
-8 -10 20 -0.2 0.4
-8 -10 20 0.34 0.5
-7 -10 20 0.26 0.49
-7 -10 20 -0.18 0.43
-7 -10 20 0.43 0.56
-6 -10 20 4.02 0.65
-6 -10 20 2.79 0.56
-6 -10 20 3.29 0.69
-5 -10 20 -0.22 0.63
-5 -10 20 -0.07 0.57
-5 -10 20 0.27 0.46
-4 -10 20 -0.28 0.64
-4 -10 20 0.17 0.47
-4 -10 20 0.03 0.57
-4 -10 20 0.05 0.66
-3 -10 20 0.16 0.47
-3 -10 20 0.33 0.67
-3 -10 20 -0.05 0.74
-3 -10 20 1.24 0.62
-2 -10 20 0.67 0.46
-2 -10 20 -0.41 0.55
-2 -10 20 0.75 0.76
-1 -10 20 0.51 0.8
-1 -10 20 0.57 0.45
-1 -10 20 0.54 0.51
0 -10 20 -0.32 0.48
0 -10 20 -0.29 0.79
0 -10 20 0.33 0.76
0 -10 20 1.04 0.73
0 -10 20 -0.06 0.43
1 -10 20 1.21 0.46
1 -10 20 1.42 0.93
1 -10 20 1.36 0.73
1 -10 20 1.71 0.49
1 -10 20 0.58 0.76
2 -10 20 7.69 1.27
2 -10 20 7.04 0.71
2 -10 20 5.24 1.02
2 -10 20 6.14 1
3 -10 20 0.05 0.75
3 -10 20 1.93 0.89
3 -10 20 0.62 0.64
4 -10 20 0.62 0.58
4 -10 20 0.06 0.32
4 -10 20 -0.54 0.86
4 -10 20 0.37 0.75
5 -10 20 0.98 0.74
5 -10 20 2.15 0.95
5 -10 20 0.44 0.52
5 -10 20 1.14 0.33
6 -10 20 1.02 0.52
6 -10 20 1.09 0.31
7 -10 20 -0.1 0.48
-8 -9 20 0.62 0.42
-8 -9 20 0.58 0.43
-8 -9 20 1.24 0.49
-7 -9 20 0.15 0.45
-7 -9 20 0.72 0.53
-7 -9 20 -0.01 0.47
-6 -9 20 0.38 0.49
-6 -9 20 0.74 0.58
-6 -9 20 0.5 0.53
-5 -9 20 0.33 0.49
-5 -9 20 0.19 0.62
-5 -9 20 0.73 0.57
-4 -9 20 0.37 0.67
-4 -9 20 1.55 0.61
-4 -9 20 0.88 0.52
-4 -9 20 1.62 0.64
-3 -9 20 9.06 0.9
-3 -9 20 8.14 1
-3 -9 20 8.06 1.15
-3 -9 20 7.15 0.83
-2 -9 20 13.63 1.27
-2 -9 20 12.64 1.46
-2 -9 20 12.2 1.22
-1 -9 20 -0.75 0.45
-1 -9 20 0.17 0.5
-1 -9 20 0.23 0.81
0 -9 20 0.48 0.46
0 -9 20 0.48 0.47
0 -9 20 1.12 0.8
0 -9 20 0.06 0.76
1 -9 20 1.25 0.89
1 -9 20 0.36 0.46
1 -9 20 0.03 0.77
1 -9 20 0.22 0.69
2 -9 20 10.06 1.26
2 -9 20 9.42 0.9
2 -9 20 10.63 1.43
2 -9 20 8.35 1.24
3 -9 20 4.84 1.12
3 -9 20 5.37 0.64
3 -9 20 4.2 0.95
3 -9 20 6.6 0.92
4 -9 20 1.05 0.87
4 -9 20 0.22 0.35
4 -9 20 0.21 0.58
4 -9 20 2.41 0.79
5 -9 20 0.06 0.5
5 -9 20 -0.16 0.31
5 -9 20 0.44 0.71
5 -9 20 0.63 0.89
6 -9 20 0.16 0.49
6 -9 20 -0.49 0.29
7 -9 20 0.9 0.27
7 -9 20 0.47 0.46
-8 -8 20 0.45 0.41
-8 -8 20 0.58 0.42
-7 -8 20 1.64 0.49
-7 -8 20 1.16 0.49
-6 -8 20 4.65 0.64
-6 -8 20 4.59 0.64
-6 -8 20 3.11 0.67
-5 -8 20 0.23 0.51
-5 -8 20 0.26 0.59
-5 -8 20 0.12 0.52
-4 -8 20 2.22 0.75
-4 -8 20 2.24 0.6
-4 -8 20 1.54 0.57
-4 -8 20 1.35 0.63
-3 -8 20 -0.53 0.65
-3 -8 20 0.86 0.51
-3 -8 20 -0.71 0.54
-3 -8 20 0.1 0.78
-2 -8 20 6.84 0.8
-2 -8 20 7.36 1.07
-2 -8 20 6.15 0.75
-1 -8 20 4.19 0.65
-1 -8 20 4.33 0.91
-1 -8 20 3.83 0.62
0 -8 20 0.09 0.49
0 -8 20 -0.17 0.45
0 -8 20 1.08 0.8
1 -8 20 7.56 0.83
1 -8 20 8.29 1.29
1 -8 20 8.82 1.12
1 -8 20 7.61 1.13
2 -8 20 1.3 0.68
2 -8 20 2.12 0.92
2 -8 20 1.59 0.5
2 -8 20 1.7 0.77
3 -8 20 0.17 0.74
3 -8 20 0.77 0.85
3 -8 20 -0.62 0.43
3 -8 20 0.33 0.61
4 -8 20 0.01 0.82
4 -8 20 0.26 0.36
4 -8 20 0.28 0.7
4 -8 20 0.63 0.56
5 -8 20 1.34 0.78
5 -8 20 0.86 0.96
5 -8 20 0.31 0.48
5 -8 20 0.53 0.34
6 -8 20 0.18 0.47
6 -8 20 0.08 0.31
6 -8 20 1.49 0.91
7 -8 20 1.68 0.32
-8 -7 20 0.96 0.47
-8 -7 20 0.77 0.42
-7 -7 20 1.65 0.47
-7 -7 20 0.97 0.49
-6 -7 20 0.94 0.53
-6 -7 20 1.18 0.52
-5 -7 20 1.13 0.54
-5 -7 20 0.29 0.51
-4 -7 20 10.86 1.02
-4 -7 20 10.29 1.02
-3 -7 20 22.27 2.13
-3 -7 20 21.41 1.82
-3 -7 20 22.14 1.81
-2 -7 20 1.23 0.77
-2 -7 20 1.42 0.51
-2 -7 20 1.06 0.54
-1 -7 20 1.4 0.79
-1 -7 20 -0.11 0.48
-1 -7 20 -0.24 0.46
0 -7 20 3.41 0.56
0 -7 20 3.69 0.9
1 -7 20 4.37 0.95
1 -7 20 6.56 0.94
1 -7 20 5.14 0.69
1 -7 20 6.26 1.21
2 -7 20 7.83 1.18
2 -7 20 3.65 0.95
2 -7 20 6.03 0.92
2 -7 20 6.68 0.72
3 -7 20 20.69 1.97
3 -7 20 18.43 2.1
3 -7 20 21.73 1.61
3 -7 20 17.7 2.26
4 -7 20 -0.5 0.72
4 -7 20 0.07 0.36
4 -7 20 1.1 0.83
4 -7 20 0.08 0.53
5 -7 20 0.26 0.35
5 -7 20 0.71 0.93
5 -7 20 0.14 0.73
5 -7 20 0.04 0.46
6 -7 20 3.34 1.05
6 -7 20 1.41 0.79
6 -7 20 5.61 0.49
7 -7 20 1.9 0.33
-8 -6 20 0.38 0.45
-7 -6 20 0.83 0.51
-7 -6 20 0.67 0.44
-6 -6 20 2.71 0.54
-6 -6 20 2.52 0.59
-5 -6 20 3.7 0.61
-5 -6 20 3.32 0.65
-4 -6 20 4.99 0.72
-4 -6 20 5.18 0.69
-3 -6 20 46.92 3.35
-3 -6 20 40.57 3.78
-3 -6 20 45.5 3.35
-2 -6 20 0.6 0.5
-2 -6 20 0.73 0.76
-2 -6 20 0.87 0.5
-1 -6 20 18.11 1.54
-1 -6 20 18.5 2.76
-1 -6 20 16.83 1.84
0 -6 20 3.09 0.84
0 -6 20 2.36 0.52
0 -6 20 1.66 0.9
1 -6 20 18.04 2.07
1 -6 20 18.71 1.59
1 -6 20 19.35 1.95
1 -6 20 20.66 2.89
2 -6 20 6.95 0.76
2 -6 20 9.63 1.27
2 -6 20 6.65 1
2 -6 20 7.09 1.12
3 -6 20 14.76 1.15
3 -6 20 12.09 1.67
3 -6 20 17.39 1.87
3 -6 20 15.28 1.31
3 -6 20 16.23 1.68
4 -6 20 0.46 0.8
4 -6 20 0.04 0.89
4 -6 20 0.04 0.37
5 -6 20 1.38 0.9
5 -6 20 1.87 0.39
5 -6 20 1.06 0.81
6 -6 20 1.18 0.36
6 -6 20 1.71 0.99
6 -6 20 -0.04 0.69
7 -6 20 0.15 0.3
-8 -5 20 2.21 0.51
-7 -5 20 3.49 0.6
-6 -5 20 0.4 0.5
-5 -5 20 -0.26 0.53
-4 -5 20 3.29 0.62
-3 -5 20 22.85 2.32
-3 -5 20 26.75 2.01
-2 -5 20 23.19 1.92
-2 -5 20 23.27 2.25
-2 -5 20 25.07 3.38
-1 -5 20 0.8 0.49
-1 -5 20 1.38 0.75
-1 -5 20 0.94 0.87
0 -5 20 10.9 1.89
0 -5 20 13.38 1.17
0 -5 20 13.33 1.44
1 -5 20 1.28 0.84
1 -5 20 -0.99 0.75
1 -5 20 0.53 0.61
1 -5 20 -0.72 0.43
2 -5 20 41.73 5.19
2 -5 20 39.63 2.95
2 -5 20 36.74 3.4
3 -5 20 0.99 0.83
3 -5 20 -0.13 0.43
3 -5 20 1.12 0.81
3 -5 20 0.11 0.38
3 -5 20 1.82 0.87
4 -5 20 1.08 0.89
4 -5 20 -1.74 0.75
4 -5 20 0.37 0.38
5 -5 20 -0.32 0.73
5 -5 20 0.41 0.35
5 -5 20 0.26 0.83
6 -5 20 4.98 0.53
6 -5 20 3.58 0.91
6 -5 20 5.56 1.1
7 -5 20 1.24 0.34
-8 -4 20 0.31 0.47
-7 -4 20 2.79 0.56
-6 -4 20 -0.08 0.5
-5 -4 20 0.6 0.53
-4 -4 20 3.45 0.63
-3 -4 20 23.35 2.27
-3 -4 20 24.92 3.41
-3 -4 20 24.62 1.94
-2 -4 20 15.88 1.58
-2 -4 20 13.63 1.32
-2 -4 20 14.33 2.44
-1 -4 20 5.13 1.19
-1 -4 20 4.57 0.66
-1 -4 20 4.71 0.92
0 -4 20 21.98 2.3
0 -4 20 24.71 3.48
0 -4 20 26.47 1.95
1 -4 20 1.76 0.51
1 -4 20 2.46 0.82
1 -4 20 2.19 0.96
2 -4 20 4.17 1.07
2 -4 20 3.83 0.59
2 -4 20 6.15 0.98
2 -4 20 4.44 0.51
3 -4 20 2.18 0.86
3 -4 20 1.52 0.41
3 -4 20 1.43 0.81
3 -4 20 1.23 0.82
3 -4 20 0.15 0.44
4 -4 20 2.05 0.86
4 -4 20 1.68 0.4
4 -4 20 2.24 0.87
5 -4 20 3.19 0.95
5 -4 20 2.89 0.87
5 -4 20 1.69 0.43
6 -4 20 1.15 0.81
6 -4 20 0.83 0.36
6 -4 20 0.17 0.79
7 -4 20 0.29 0.31
-8 -3 20 0.07 0.46
-7 -3 20 1.05 0.5
-6 -3 20 2.49 0.57
-5 -3 20 0.21 0.52
-4 -3 20 6.64 0.75
-4 -3 20 5.86 1.28
-3 -3 20 1.3 0.81
-3 -3 20 0.1 0.49
-2 -3 20 0.96 0.48
-2 -3 20 1.78 0.69
-2 -3 20 -0.47 0.79
-1 -3 20 1.17 0.74
-1 -3 20 0.54 0.49
-1 -3 20 0.77 0.83
0 -3 20 4.77 1.14
0 -3 20 4.64 0.64
0 -3 20 6.59 0.97
1 -3 20 8.79 1.61
1 -3 20 9.18 0.83
1 -3 20 8.52 0.86
1 -3 20 10.81 1.27
2 -3 20 10.86 0.99
2 -3 20 12.74 1.44
2 -3 20 12.52 1.11
2 -3 20 11.68 1.85
3 -3 20 7.37 1.13
3 -3 20 6.99 1.37
3 -3 20 7.87 0.68
4 -3 20 -0.08 0.35
4 -3 20 -0.14 0.74
4 -3 20 0.82 0.84
5 -3 20 0.62 0.84
5 -3 20 0 0.36
5 -3 20 1.14 0.81
6 -3 20 0.4 0.34
7 -3 20 2.25 0.38
-8 -2 20 -0.09 0.43
-7 -2 20 2.2 0.52
-6 -2 20 1.22 0.5
-5 -2 20 0.05 0.48
-4 -2 20 3.78 1.01
-4 -2 20 2.81 0.57
-3 -2 20 -0.15 0.46
-3 -2 20 0.31 0.82
-2 -2 20 -0.38 0.67
-2 -2 20 -0.25 0.78
-2 -2 20 0.94 0.48
-1 -2 20 12.67 1.14
-1 -2 20 11.14 1.9
-1 -2 20 14.03 1.43
0 -2 20 8.74 1.58
0 -2 20 9.57 0.92
0 -2 20 10.9 1.24
0 -2 20 10.25 0.86
1 -2 20 2.8 0.44
1 -2 20 4.69 0.92
1 -2 20 2.42 0.51
1 -2 20 2.59 1.03
2 -2 20 0.21 0.82
2 -2 20 1.06 0.43
2 -2 20 0.21 0.37
2 -2 20 1.1 0.84
3 -2 20 5.29 1.02
3 -2 20 4.7 1.11
3 -2 20 4.29 0.51
4 -2 20 2.25 0.9
4 -2 20 1.84 0.41
5 -2 20 -0.14 0.86
5 -2 20 0.27 0.74
5 -2 20 -0.15 0.34
6 -2 20 5.45 0.55
-7 -1 20 2.2 0.5
-6 -1 20 0.39 0.46
-5 -1 20 1.11 0.47
-4 -1 20 3.29 0.99
-4 -1 20 3.16 0.56
-3 -1 20 0.39 0.45
-3 -1 20 1.05 0.86
-2 -1 20 -0.14 0.43
-2 -1 20 -0.3 0.74
-1 -1 20 9.58 1.12
-1 -1 20 7.37 0.77
-1 -1 20 7.66 1.4
-1 -1 20 7.85 0.68
0 -1 20 1.21 0.75
0 -1 20 0.48 0.43
0 -1 20 0.16 0.34
0 -1 20 0.67 0.86
1 -1 20 4.6 0.94
1 -1 20 3.56 0.45
1 -1 20 3.3 1.03
1 -1 20 4.17 0.56
2 -1 20 3.15 0.43
2 -1 20 2.53 0.97
2 -1 20 4.05 0.96
2 -1 20 3.76 0.52
3 -1 20 1.64 0.86
3 -1 20 1.66 0.9
3 -1 20 2.14 0.41
4 -1 20 0.86 0.84
4 -1 20 1.3 0.37
5 -1 20 0.31 0.35
5 -1 20 0.5 0.82
6 -1 20 0.11 0.33
-7 0 20 0.05 0.39
-6 0 20 0.19 0.42
-5 0 20 3.72 0.54
-4 0 20 5.64 0.64
-3 0 20 0.8 0.78
-3 0 20 1.63 0.46
-2 0 20 5.15 0.61
-2 0 20 4.68 1.18
-1 0 20 1.55 0.71
-1 0 20 0.99 0.91
-1 0 20 -0.25 0.42
0 0 20 4.3 0.55
0 0 20 3.77 1.06
0 0 20 3.92 0.46
0 0 20 4.7 0.92
1 0 20 6.04 0.59
1 0 20 8 1.07
1 0 20 6.13 0.67
1 0 20 6.5 1.36
2 0 20 8.8 1.13
2 0 20 6.6 0.62
2 0 20 5.73 1.34
3 0 20 0.86 0.36
3 0 20 1.57 0.85
4 0 20 2.51 0.87
4 0 20 1.82 0.39
5 0 20 4.32 0.49
7 -1 -20 0.19 0.52
-2 1 20 1.71 0.92
-1 1 20 0.63 0.72
-1 1 20 -0.42 0.84
0 1 20 5 1.25
0 1 20 7.91 1.04
1 1 20 0.87 0.34
1 1 20 0.55 0.91
1 1 20 -0.43 0.75
2 1 20 1.12 0.34
2 1 20 -0.57 0.76
3 1 20 0.78 0.34
3 1 20 -0.38 0.8
4 1 20 1.03 0.34
6 -2 -20 0.48 0.55
0 2 20 -0.06 0.72
1 2 20 -0.46 0.73
2 2 20 -0.15 0.78
2 2 20 0.32 0.3
3 2 20 1.07 0.33
-4 -4 -20 0.98 0.57
-2 -5 -20 1.55 0.63
-2 -16 21 1.11 0.44
-2 -16 21 0.39 0.59
-2 -16 21 0.57 0.92
-1 -16 21 -0.05 0.99
-1 -16 21 0 0.59
-1 -16 21 0 0.42
0 -16 21 0.44 1.03
0 -16 21 1.12 0.62
1 -16 21 0 0.59
1 -16 21 0.32 1.04
2 -16 21 1.09 0.56
-4 -15 21 5.02 0.61
-4 -15 21 2.42 0.68
-3 -15 21 0.81 0.64
-3 -15 21 1.24 0.53
-2 -15 21 -0.21 0.46
-2 -15 21 0.23 0.61
-2 -15 21 0.03 0.97
-1 -15 21 2.9 0.76
-1 -15 21 3.29 1.14
-1 -15 21 3.59 0.54
0 -15 21 -0.78 0.61
0 -15 21 0.14 1.09
0 -15 21 0.37 0.42
1 -15 21 4.31 1.27
1 -15 21 5.38 0.86
2 -15 21 0.06 0.59
3 -15 21 -0.44 0.52
-5 -14 21 1.09 0.54
-5 -14 21 1.7 0.59
-4 -14 21 0.23 0.6
-4 -14 21 -0.22 0.52
-3 -14 21 0.42 0.63
-3 -14 21 0.82 0.56
-2 -14 21 1.96 0.71
-2 -14 21 1.57 0.55
-1 -14 21 2.71 0.77
-1 -14 21 2.21 0.53
-1 -14 21 1.5 1.16
0 -14 21 -0.02 0.68
0 -14 21 -0.89 1.12
0 -14 21 0.18 0.44
1 -14 21 0.4 0.67
2 -14 21 -0.03 0.64
3 -14 21 0.11 0.57
4 -14 21 -0.14 0.52
-5 -13 21 1.41 0.56
-5 -13 21 1.41 0.6
-5 -13 21 -0.23 0.35
-4 -13 21 -0.06 0.38
-4 -13 21 0.54 0.55
-4 -13 21 -0.11 0.63
-3 -13 21 1.77 0.6
-3 -13 21 1.33 0.42
-2 -13 21 -0.28 0.54
-2 -13 21 0.13 0.38
-2 -13 21 -0.27 0.66
-2 -13 21 -0.36 0.68
-1 -13 21 0.31 0.71
-1 -13 21 0.87 0.51
-1 -13 21 0.5 0.72
-1 -13 21 -0.6 0.86
-1 -13 21 1.07 0.41
0 -13 21 0.13 0.44
0 -13 21 1.05 0.73
0 -13 21 -0.55 0.86
0 -13 21 0.6 0.76
0 -13 21 0.41 0.39
1 -13 21 0.6 0.79
1 -13 21 0.34 0.68
1 -13 21 0.58 0.38
1 -13 21 0.67 0.81
2 -13 21 0.66 0.69
3 -13 21 0.1 0.62
4 -13 21 0.96 0.57
4 -13 21 0.53 0.28
5 -13 21 0.33 0.53
-6 -12 21 0.26 0.52
-6 -12 21 0.41 0.56
-6 -12 21 -0.34 0.37
-5 -12 21 -0.16 0.55
-5 -12 21 0.18 0.6
-5 -12 21 0.31 0.39
-4 -12 21 0.14 0.42
-4 -12 21 0.47 0.65
-4 -12 21 0.12 0.56
-3 -12 21 2.44 0.75
-3 -12 21 2.69 0.51
-3 -12 21 3.56 0.68
-3 -12 21 3.76 0.77
-2 -12 21 0.12 0.42
-2 -12 21 -0.16 0.68
-2 -12 21 0.21 0.55
-1 -12 21 0.28 0.5
-1 -12 21 0.65 0.43
-1 -12 21 0.76 0.71
-1 -12 21 0.87 0.76
0 -12 21 1.57 0.51
0 -12 21 0.8 0.88
0 -12 21 0.8 0.43
0 -12 21 0.98 0.79
0 -12 21 1.03 0.73
1 -12 21 -0.03 0.4
1 -12 21 -0.25 0.77
1 -12 21 0.72 0.71
1 -12 21 -0.28 0.84
2 -12 21 1.35 0.83
2 -12 21 0.04 0.68
2 -12 21 0.39 0.73
3 -12 21 2.59 0.71
3 -12 21 2.23 0.8
3 -12 21 1.8 0.93
4 -12 21 1.81 0.34
4 -12 21 2.11 0.62
5 -12 21 -0.39 0.5
5 -12 21 -0.1 0.26
6 -12 21 0.03 0.5
-6 -11 21 1.48 0.59
-6 -11 21 1.9 0.55
-6 -11 21 0.63 0.44
-5 -11 21 2.43 0.65
-5 -11 21 3.02 0.62
-5 -11 21 2.01 0.5
-4 -11 21 1.17 0.45
-4 -11 21 0.49 0.65
-4 -11 21 1.07 0.59
-4 -11 21 2.13 0.74
-3 -11 21 1.37 0.69
-3 -11 21 0.77 0.72
-3 -11 21 0.51 0.46
-3 -11 21 1.36 0.56
-2 -11 21 0.6 0.74
-2 -11 21 -0.13 0.43
-2 -11 21 -0.21 0.54
-1 -11 21 0.53 0.45
-1 -11 21 1.33 0.55
-1 -11 21 0.79 0.77
0 -11 21 1.45 0.51
0 -11 21 0.56 0.46
0 -11 21 0.32 0.78
0 -11 21 1.12 0.81
0 -11 21 0.28 0.72
1 -11 21 1.25 0.89
1 -11 21 0.72 0.72
1 -11 21 1 0.46
1 -11 21 1.04 0.76
2 -11 21 0.49 0.42
2 -11 21 0.92 0.89
2 -11 21 0.31 0.75
2 -11 21 0.94 0.67
3 -11 21 -0.23 0.86
3 -11 21 0.88 0.73
3 -11 21 0.89 0.65
4 -11 21 5.61 1.22
4 -11 21 6.71 0.59
4 -11 21 6.23 0.9
5 -11 21 2.05 0.35
5 -11 21 2.71 0.58
6 -11 21 1.41 0.54
6 -11 21 1.82 0.32
-7 -10 21 0.22 0.49
-7 -10 21 0.22 0.42
-7 -10 21 0.37 0.45
-6 -10 21 -0.38 0.43
-6 -10 21 0.22 0.52
-6 -10 21 -0.37 0.48
-5 -10 21 0.54 0.57
-5 -10 21 -0.58 0.54
-5 -10 21 -0.36 0.45
-4 -10 21 0.5 0.64
-4 -10 21 -1.31 0.45
-4 -10 21 0.21 0.55
-4 -10 21 1.25 0.65
-3 -10 21 12.23 1.15
-3 -10 21 11.83 1.3
-3 -10 21 8.34 0.92
-2 -10 21 0.94 0.56
-2 -10 21 1.31 0.78
-2 -10 21 1.24 0.49
-1 -10 21 1.47 0.56
-1 -10 21 1.36 0.48
-1 -10 21 1.06 0.82
0 -10 21 5.08 0.96
0 -10 21 5.35 0.68
0 -10 21 5.23 0.93
0 -10 21 3.75 0.61
1 -10 21 11.41 1.25
1 -10 21 7.77 1.19
1 -10 21 6.87 1.29
1 -10 21 8.58 0.86
2 -10 21 0.48 0.44
2 -10 21 0.68 0.67
2 -10 21 0.27 0.75
2 -10 21 1.38 0.87
3 -10 21 0.58 0.62
3 -10 21 2.52 0.91
3 -10 21 2.07 0.77
4 -10 21 2.56 0.96
4 -10 21 0.67 0.76
4 -10 21 2.02 0.6
4 -10 21 1.83 0.37
5 -10 21 2.2 0.36
5 -10 21 2.16 0.57
6 -10 21 1.27 0.31
6 -10 21 0.95 0.5
-7 -9 21 0.87 0.46
-7 -9 21 0.76 0.46
-7 -9 21 0.56 0.48
-6 -9 21 0.28 0.48
-6 -9 21 0.63 0.5
-6 -9 21 -0.2 0.5
-5 -9 21 4.35 0.65
-5 -9 21 5.72 0.68
-5 -9 21 3.69 0.7
-4 -9 21 1.23 0.52
-4 -9 21 1.81 0.58
-4 -9 21 1.69 0.71
-4 -9 21 2.55 0.66
-3 -9 21 2.25 0.6
-3 -9 21 1.3 0.81
-3 -9 21 1.38 0.53
-2 -9 21 2.33 0.59
-2 -9 21 2.07 0.81
-2 -9 21 1.55 0.53
-1 -9 21 5.69 0.74
-1 -9 21 7.16 0.77
-1 -9 21 6.65 1.08
0 -9 21 3.07 0.8
0 -9 21 2.77 0.87
0 -9 21 2.93 0.57
1 -9 21 1.16 0.48
1 -9 21 0.61 0.8
1 -9 21 0.79 0.71
1 -9 21 3.28 0.91
2 -9 21 5.11 1.1
2 -9 21 5.37 0.89
2 -9 21 6.14 0.67
2 -9 21 4.71 0.96
3 -9 21 3.73 1.01
3 -9 21 3.24 0.75
3 -9 21 3.46 0.85
4 -9 21 1.69 0.75
4 -9 21 2.43 0.6
4 -9 21 1.97 0.4
4 -9 21 2.25 0.88
5 -9 21 5.01 0.73
5 -9 21 4.74 0.51
6 -9 21 -0.46 0.44
6 -9 21 -0.04 0.29
7 -9 21 -0.04 0.41
7 -9 21 0.59 0.25
-7 -8 21 0.76 0.46
-7 -8 21 1.12 0.45
-6 -8 21 3.41 0.59
-6 -8 21 3.4 0.6
-5 -8 21 0.76 0.57
-5 -8 21 -0.23 0.49
-5 -8 21 -0.08 0.51
-4 -8 21 -0.15 0.53
-4 -8 21 -0.36 0.49
-4 -8 21 -0.31 0.56
-3 -8 21 1.99 0.58
-3 -8 21 1.99 0.82
-3 -8 21 1.68 0.54
-2 -8 21 0.11 0.5
-2 -8 21 0.56 0.54
-2 -8 21 1.53 0.79
-1 -8 21 4.89 0.68
-1 -8 21 4.29 0.67
-1 -8 21 5.7 0.97
0 -8 21 23.1 2.2
0 -8 21 22.08 1.83
1 -8 21 15.53 1.35
1 -8 21 15.73 1.71
1 -8 21 14.22 1.78
2 -8 21 10.28 0.9
2 -8 21 8.29 1.31
2 -8 21 7.83 1.19
2 -8 21 9.62 1.19
3 -8 21 0.16 0.58
3 -8 21 0.38 0.76
3 -8 21 0.02 0.44
3 -8 21 0.94 0.84
4 -8 21 0.28 0.36
4 -8 21 0.17 0.74
4 -8 21 0.17 0.51
4 -8 21 0.12 0.84
5 -8 21 0.06 0.75
5 -8 21 1.59 0.88
5 -8 21 1.1 0.48
5 -8 21 1.33 0.35
6 -8 21 0.36 0.32
7 -8 21 -0.14 0.25
-7 -7 21 2.12 0.52
-7 -7 21 2.2 0.48
-6 -7 21 0.45 0.51
-6 -7 21 0.19 0.48
-5 -7 21 -0.1 0.49
-5 -7 21 -0.4 0.51
-4 -7 21 0.22 0.51
-4 -7 21 0.41 0.51
-3 -7 21 0.03 0.5
-3 -7 21 0.23 0.73
-3 -7 21 0.11 0.51
-2 -7 21 15.67 1.4
-2 -7 21 14.98 1.39
-2 -7 21 16.56 1.77
-1 -7 21 5.92 0.99
-1 -7 21 4.92 0.69
0 -7 21 15.08 1.71
0 -7 21 15.26 1.36
1 -7 21 2.28 0.82
1 -7 21 2.49 0.71
1 -7 21 0.49 0.5
2 -7 21 38.81 2.55
2 -7 21 29.92 3.39
2 -7 21 31.77 3.35
2 -7 21 32.24 2.96
3 -7 21 5.96 0.88
3 -7 21 5.64 0.68
3 -7 21 6.36 1.16
3 -7 21 4.66 0.97
3 -7 21 6.69 0.61
4 -7 21 5.57 1.07
4 -7 21 8.27 1.31
4 -7 21 9.45 0.74
4 -7 21 7.99 0.99
5 -7 21 -0.41 0.83
5 -7 21 0.07 0.33
5 -7 21 0.53 0.73
6 -7 21 0.31 0.33
7 -7 21 1.52 0.32
-7 -6 21 -0.41 0.46
-6 -6 21 0.76 0.52
-5 -6 21 -0.06 0.53
-4 -6 21 2.81 0.59
-3 -6 21 9.6 1.22
-3 -6 21 9.33 0.93
-2 -6 21 1.71 0.55
-2 -6 21 2.32 0.8
-1 -6 21 0.78 0.72
-1 -6 21 1.35 0.53
0 -6 21 0.47 0.75
0 -6 21 0.96 0.49
1 -6 21 9.33 0.9
1 -6 21 9.01 1.17
1 -6 21 8.8 1.23
2 -6 21 1.17 0.46
2 -6 21 1.08 0.58
2 -6 21 0.24 0.84
3 -6 21 1.43 0.46
3 -6 21 2.07 0.87
3 -6 21 0.26 0.78
3 -6 21 0.79 0.4
4 -6 21 5.92 0.56
4 -6 21 3.34 0.93
4 -6 21 4.42 1.02
5 -6 21 -0.12 0.71
5 -6 21 1.54 0.37
5 -6 21 0.48 0.86
6 -6 21 1.07 0.34
7 -6 21 2.81 0.38
-7 -5 21 2.26 0.53
-6 -5 21 0.12 0.5
-5 -5 21 2.98 0.6
-4 -5 21 3.65 0.6
-3 -5 21 1.16 0.53
-2 -5 21 2.3 0.84
-2 -5 21 1.48 0.53
-2 -5 21 0.24 0.72
-1 -5 21 -0.51 0.47
-1 -5 21 -0.76 0.7
-1 -5 21 0.76 0.82
0 -5 21 7.56 0.79
0 -5 21 7.07 1.41
0 -5 21 7.52 1.11
1 -5 21 3.47 1.02
1 -5 21 2.67 0.9
1 -5 21 2.62 0.54
2 -5 21 2.03 0.84
2 -5 21 2.8 0.99
2 -5 21 1.35 0.48
2 -5 21 1.78 0.42
3 -5 21 0.82 0.45
3 -5 21 3.84 0.88
3 -5 21 1.65 0.81
3 -5 21 0.9 0.41
4 -5 21 0.73 0.37
4 -5 21 0.84 0.77
4 -5 21 0.77 0.86
5 -5 21 8.88 1.31
5 -5 21 9.13 0.82
5 -5 21 6.69 1.1
6 -5 21 1.47 0.36
7 -5 21 0.91 0.31
-7 -4 21 0.01 0.46
-6 -4 21 -0.22 0.48
-5 -4 21 6.86 0.79
-4 -4 21 -0.38 0.49
-3 -4 21 8.14 1.37
-3 -4 21 7.12 0.8
-2 -4 21 1.17 0.72
-2 -4 21 1.19 0.86
-2 -4 21 -0.29 0.47
-1 -4 21 5.71 0.96
-1 -4 21 5.2 0.68
-1 -4 21 5.36 1.18
0 -4 21 1.46 0.51
0 -4 21 1.19 0.88
0 -4 21 2.3 0.79
1 -4 21 1.32 0.81
1 -4 21 0.96 0.48
1 -4 21 1.47 0.8
2 -4 21 16.6 1.43
2 -4 21 15.46 1.29
2 -4 21 18.91 1.84
2 -4 21 18.78 2.66
3 -4 21 0.3 0.37
3 -4 21 1.68 0.82
3 -4 21 0.76 0.8
4 -4 21 5.5 0.56
4 -4 21 4.52 0.99
5 -4 21 0 0.35
5 -4 21 0.24 0.8
6 -4 21 3.53 0.45
7 -4 21 -0.32 0.28
-7 -3 21 0.49 0.48
-6 -3 21 2.28 0.54
-5 -3 21 0.87 0.51
-4 -3 21 5.67 0.7
-3 -3 21 22.09 1.78
-3 -3 21 22.03 3.15
-2 -3 21 -0.44 0.67
-2 -3 21 1.37 0.85
-2 -3 21 0.07 0.47
-1 -3 21 2.23 0.78
-1 -3 21 2.56 0.53
-1 -3 21 2.6 0.96
0 -3 21 8.33 0.82
0 -3 21 9.61 1.13
0 -3 21 6.97 1.44
1 -3 21 2.48 0.43
1 -3 21 2.51 0.95
1 -3 21 2.05 0.52
1 -3 21 3.79 0.9
2 -3 21 2.57 0.5
2 -3 21 2.88 0.44
2 -3 21 1.46 0.87
2 -3 21 3.35 0.93
3 -3 21 11.38 1
3 -3 21 13.25 2.16
3 -3 21 12.24 1.42
4 -3 21 0.09 0.8
4 -3 21 0.58 0.37
5 -3 21 3.69 0.47
6 -3 21 0.22 0.32
-7 -2 21 0.49 0.45
-6 -2 21 0.72 0.45
-5 -2 21 9.19 0.88
-4 -2 21 3.3 0.55
-3 -2 21 0.44 0.46
-3 -2 21 1.8 0.83
-2 -2 21 2.54 0.52
-2 -2 21 2.39 0.97
-1 -2 21 2.19 0.76
-1 -2 21 1.65 0.95
-1 -2 21 1.4 0.48
-1 -2 21 1.44 0.35
0 -2 21 8.19 1.51
0 -2 21 7.28 0.68
0 -2 21 8.31 1.11
0 -2 21 8.04 0.79
1 -2 21 0.14 0.78
1 -2 21 0.07 0.78
1 -2 21 0.23 0.36
1 -2 21 0.28 0.42
2 -2 21 1.37 0.86
2 -2 21 0.25 0.36
2 -2 21 0.7 0.4
2 -2 21 0.22 0.81
3 -2 21 0.76 0.37
3 -2 21 1.95 0.84
4 -2 21 1.71 0.83
4 -2 21 0.55 0.37
5 -2 21 0.75 0.34
6 -2 21 1.49 0.34
-6 -1 21 1.03 0.44
-5 -1 21 3.68 0.53
-4 -1 21 0.17 0.43
-3 -1 21 0.71 0.44
-2 -1 21 1.64 0.46
-2 -1 21 2.44 0.97
-1 -1 21 -0.3 0.41
-1 -1 21 0.06 0.32
-1 -1 21 0.8 0.78
-1 -1 21 0.53 0.71
0 -1 21 1.71 0.35
0 -1 21 1.33 0.45
0 -1 21 2.65 0.82
0 -1 21 1.53 0.89
1 -1 21 4.52 0.56
1 -1 21 5.51 0.96
1 -1 21 4.18 1.07
1 -1 21 4.51 0.49
2 -1 21 0.03 0.79
2 -1 21 -0.61 0.33
3 -1 21 1.59 0.38
3 -1 21 1.85 0.84
4 -1 21 -0.3 0.33
5 -1 21 1.21 0.35
-6 0 21 0.7 0.39
-5 0 21 -0.11 0.39
-4 0 21 0.49 0.4
-3 0 21 0.73 0.41
-2 0 21 0.38 0.4
-1 0 21 -0.85 0.68
-1 0 21 0.15 0.39
0 0 21 2.09 0.37
0 0 21 2.43 0.44
0 0 21 1.44 0.8
1 0 21 0.06 0.32
1 0 21 0.12 0.72
1 0 21 0.11 0.36
2 0 21 1.9 0.38
2 0 21 2.21 0.87
3 0 21 3.53 0.46
3 0 21 4.22 1.01
4 0 21 -0.3 0.31
0 1 21 -0.15 0.7
1 1 21 0.17 0.3
1 1 21 -0.8 0.74
2 1 21 0.51 0.31
3 1 21 1 0.33
-2 -15 22 0 0.45
-2 -15 22 -0.44 0.6
-1 -15 22 0.41 0.44
-1 -15 22 0.38 0.59
0 -15 22 0.07 0.4
0 -15 22 0.71 0.63
1 -15 22 -0.19 0.6
2 -15 22 1.37 0.6
-4 -14 22 1.09 0.5
-4 -14 22 0.66 0.59
-3 -14 22 0.48 0.61
-3 -14 22 0.07 0.5
-2 -14 22 0.15 0.49
-2 -14 22 1.39 0.67
-1 -14 22 0.42 0.45
-1 -14 22 -0.68 0.64
0 -14 22 1.68 0.47
0 -14 22 2.61 0.72
1 -14 22 0.6 0.64
2 -14 22 1.46 0.63
3 -14 22 0.76 0.54
-5 -13 22 1.06 0.52
-5 -13 22 0.04 0.58
-5 -13 22 0.64 0.36
-4 -13 22 1.88 0.54
-4 -13 22 2.01 0.41
-3 -13 22 0.1 0.52
-3 -13 22 0.71 0.37
-2 -13 22 0.97 0.52
-2 -13 22 1.31 0.41
-2 -13 22 0.53 0.69
-1 -13 22 0.29 0.39
-1 -13 22 0.54 0.67
-1 -13 22 0.35 0.47
0 -13 22 1.28 0.69
0 -13 22 1.02 0.4
0 -13 22 1.25 0.47
1 -13 22 0.53 0.65
1 -13 22 -0.18 0.35
2 -13 22 2.28 0.7
3 -13 22 1.07 0.62
4 -13 22 -0.15 0.26
4 -13 22 0.58 0.53
-5 -12 22 0.64 0.58
-5 -12 22 0.18 0.38
-5 -12 22 -0.38 0.49
-4 -12 22 5.8 0.69
-4 -12 22 9.08 0.81
-3 -12 22 0.76 0.53
-3 -12 22 0.12 0.41
-2 -12 22 1.3 0.44
-2 -12 22 1.36 0.54
-1 -12 22 0.46 0.76
-1 -12 22 -0.24 0.43
-1 -12 22 0.04 0.5
-1 -12 22 0.46 0.7
0 -12 22 13.86 1.22
0 -12 22 15.23 1.69
0 -12 22 11.16 1.46
0 -12 22 13.7 1.2
1 -12 22 1.5 0.44
1 -12 22 1.68 0.7
2 -12 22 0.55 0.66
3 -12 22 0.48 0.6
4 -12 22 3.31 0.63
4 -12 22 2.18 0.36
5 -12 22 0.92 0.28
5 -12 22 0.65 0.5
-6 -11 22 0.04 0.47
-6 -11 22 -0.03 0.49
-6 -11 22 -0.17 0.38
-5 -11 22 -0.35 0.49
-5 -11 22 -0.06 0.56
-5 -11 22 0.2 0.4
-4 -11 22 0.06 0.54
-4 -11 22 0.06 0.42
-3 -11 22 -0.2 0.54
-3 -11 22 0.68 0.46
-2 -11 22 0.4 0.45
-2 -11 22 0.94 0.7
-2 -11 22 0.84 0.56
-1 -11 22 17.76 1.38
-1 -11 22 13.41 1.8
-1 -11 22 15.94 1.7
-1 -11 22 15.07 1.34
0 -11 22 0.06 0.68
0 -11 22 0.42 0.73
0 -11 22 -0.69 0.43
1 -11 22 3.89 0.59
1 -11 22 5.58 1.03
1 -11 22 3.68 0.87
1 -11 22 5.1 0.88
2 -11 22 1.78 0.71
2 -11 22 1.45 0.77
2 -11 22 1.43 0.45
2 -11 22 2.23 0.9
3 -11 22 2.78 0.7
4 -11 22 -0.56 0.29
4 -11 22 1.02 0.53
5 -11 22 0.37 0.47
5 -11 22 0.23 0.28
-6 -10 22 0.26 0.48
-6 -10 22 -0.2 0.41
-6 -10 22 0.03 0.47
-5 -10 22 -0.3 0.53
-5 -10 22 0.49 0.44
-5 -10 22 -0.31 0.5
-4 -10 22 0.25 0.52
-4 -10 22 0 0.44
-3 -10 22 -0.68 0.67
-3 -10 22 0.3 0.53
-3 -10 22 -0.26 0.45
-2 -10 22 14.98 1.66
-2 -10 22 14.68 1.32
-2 -10 22 15.32 1.39
-1 -10 22 0.94 0.53
-1 -10 22 0.9 0.47
-1 -10 22 -0.15 0.75
0 -10 22 10.92 1.07
0 -10 22 9.91 1.33
0 -10 22 11.28 1.3
1 -10 22 1.64 0.71
1 -10 22 0.83 0.74
1 -10 22 0.5 0.47
2 -10 22 2.32 0.87
2 -10 22 1.5 0.76
2 -10 22 0.27 0.44
2 -10 22 1.09 0.63
3 -10 22 0.46 0.88
3 -10 22 1.21 0.76
3 -10 22 1.23 0.61
4 -10 22 6.84 0.9
4 -10 22 6.94 0.62
5 -10 22 0.34 0.46
5 -10 22 -0.26 0.29
6 -10 22 0.34 0.28
6 -10 22 -0.64 0.42
-6 -9 22 0.07 0.44
-6 -9 22 0.13 0.47
-5 -9 22 6.99 0.79
-5 -9 22 8 0.81
-4 -9 22 4.7 0.68
-4 -9 22 4.35 0.63
-3 -9 22 0.44 0.72
-3 -9 22 0.45 0.47
-3 -9 22 -0.19 0.5
-2 -9 22 3.13 0.83
-2 -9 22 1.83 0.54
-2 -9 22 1.46 0.58
-1 -9 22 8.84 1.13
-1 -9 22 7.05 0.79
0 -9 22 0.36 0.77
0 -9 22 -0.42 0.48
0 -9 22 1.19 0.72
1 -9 22 1.36 0.69
1 -9 22 -0.06 0.78
1 -9 22 0.93 0.48
2 -9 22 1.83 0.79
2 -9 22 1.51 0.87
2 -9 22 1.23 0.62
2 -9 22 1.35 0.47
3 -9 22 0.08 0.74
3 -9 22 0.73 0.85
3 -9 22 0.17 0.56
4 -9 22 1.03 0.5
4 -9 22 1.27 0.37
5 -9 22 3.32 0.61
5 -9 22 3.87 0.43
6 -9 22 -0.52 0.28
6 -9 22 0 0.43
-6 -8 22 0.39 0.45
-6 -8 22 0.25 0.46
-5 -8 22 0.66 0.49
-5 -8 22 2.13 0.52
-4 -8 22 5.9 0.7
-4 -8 22 5.22 0.69
-3 -8 22 1.8 0.78
-3 -8 22 1.57 0.53
-3 -8 22 1.99 0.55
-2 -8 22 1.55 0.78
-2 -8 22 1.37 0.51
-1 -8 22 0.01 0.5
-1 -8 22 1.19 0.8
0 -8 22 20.47 2.31
0 -8 22 21.32 2.11
0 -8 22 22.26 1.76
1 -8 22 3.04 0.88
1 -8 22 2.06 0.7
1 -8 22 2.51 0.53
2 -8 22 1.99 0.49
2 -8 22 1.24 0.82
2 -8 22 1.79 0.63
3 -8 22 13.93 0.98
3 -8 22 12.58 1.37
3 -8 22 7.78 1.28
3 -8 22 10.11 1.48
4 -8 22 -0.09 0.35
4 -8 22 0.47 0.46
5 -8 22 0.03 0.31
6 -8 22 5.27 0.51
-7 -7 22 0.32 0.45
-6 -7 22 1.12 0.5
-5 -7 22 0.42 0.48
-4 -7 22 14.74 1.33
-3 -7 22 0.72 0.5
-3 -7 22 1.25 0.75
-2 -7 22 10.08 1.01
-2 -7 22 11.52 1.34
-1 -7 22 12.46 1.34
-1 -7 22 9.56 0.97
0 -7 22 0.26 0.77
0 -7 22 -0.63 0.48
0 -7 22 0.79 0.66
1 -7 22 2.09 0.83
1 -7 22 1.8 0.67
1 -7 22 0.76 0.46
2 -7 22 0.87 0.55
2 -7 22 0.27 0.78
2 -7 22 -0.09 0.45
3 -7 22 5.13 0.81
3 -7 22 3.27 0.94
3 -7 22 7.76 1.15
3 -7 22 5.88 0.57
4 -7 22 0.91 0.79
4 -7 22 1.99 0.41
5 -7 22 1.56 0.37
6 -7 22 0.89 0.31
-7 -6 22 0.63 0.45
-6 -6 22 -0.17 0.48
-5 -6 22 1.69 0.53
-4 -6 22 2.24 0.54
-3 -6 22 0.17 0.5
-2 -6 22 0.18 0.49
-2 -6 22 0.97 0.76
-1 -6 22 1.13 0.76
-1 -6 22 1.87 0.53
0 -6 22 0.87 0.47
0 -6 22 1.63 0.65
0 -6 22 1.01 0.77
1 -6 22 -0.03 0.46
1 -6 22 0.88 0.59
1 -6 22 -0.05 0.77
2 -6 22 4.82 0.63
2 -6 22 4.95 0.94
2 -6 22 4.85 0.54
3 -6 22 0.64 0.78
3 -6 22 0.24 0.37
4 -6 22 2.83 0.44
4 -6 22 1.94 0.83
5 -6 22 16.65 1.27
6 -6 22 -0.35 0.3
-7 -5 22 0.55 0.44
-6 -5 22 -0.36 0.46
-5 -5 22 1.72 0.52
-4 -5 22 0.23 0.47
-3 -5 22 5.4 0.69
-2 -5 22 10.98 1.24
-2 -5 22 8.5 0.89
-1 -5 22 2.48 0.8
-1 -5 22 0.88 0.49
-1 -5 22 0.63 0.75
0 -5 22 -0.78 0.45
0 -5 22 1.22 0.88
0 -5 22 0.06 0.74
1 -5 22 -0.15 0.79
1 -5 22 0.93 0.84
1 -5 22 0.06 0.45
2 -5 22 0.43 0.8
2 -5 22 0.09 0.38
2 -5 22 0.12 0.43
3 -5 22 0.03 0.37
3 -5 22 -0.67 0.79
4 -5 22 7.6 0.67
5 -5 22 -0.01 0.34
6 -5 22 2.46 0.38
-6 -4 22 0.58 0.45
-5 -4 22 3 0.55
-4 -4 22 2.97 0.56
-3 -4 22 9.47 0.91
-2 -4 22 2.53 0.75
-2 -4 22 1.26 0.49
-1 -4 22 0.29 0.72
-1 -4 22 1.13 0.79
-1 -4 22 -0.21 0.45
0 -4 22 2.24 0.53
0 -4 22 2.8 0.82
0 -4 22 2.5 0.93
1 -4 22 0.59 0.45
1 -4 22 0.89 0.38
1 -4 22 1.22 0.79
1 -4 22 0.36 0.78
2 -4 22 5.06 0.61
2 -4 22 4.67 0.54
2 -4 22 4.96 0.99
3 -4 22 0.96 0.81
3 -4 22 -0.07 0.34
4 -4 22 -0.11 0.34
5 -4 22 0.97 0.35
6 -4 22 0.16 0.3
-6 -3 22 3.03 0.52
-5 -3 22 1.57 0.48
-4 -3 22 0.24 0.46
-3 -3 22 2.08 0.5
-2 -3 22 0.33 0.45
-1 -3 22 1.66 0.74
-1 -3 22 1.05 0.47
-1 -3 22 1.01 0.34
0 -3 22 -0.62 0.33
0 -3 22 0.3 0.44
0 -3 22 0.41 0.71
1 -3 22 -0.2 0.35
1 -3 22 1.36 0.76
1 -3 22 0.1 0.42
2 -3 22 0.26 0.41
2 -3 22 0.03 0.34
2 -3 22 -1.07 0.79
3 -3 22 1.78 0.83
3 -3 22 1.61 0.38
4 -3 22 -0.32 0.34
5 -3 22 0.13 0.31
6 -3 22 0.92 0.31
-6 -2 22 3.27 0.5
-5 -2 22 0.12 0.42
-4 -2 22 -0.24 0.41
-3 -2 22 1.22 0.46
-2 -2 22 -0.33 0.41
-1 -2 22 0.76 0.72
-1 -2 22 1.11 0.43
-1 -2 22 0.73 0.32
0 -2 22 -0.13 0.32
0 -2 22 -0.33 0.39
0 -2 22 0.55 0.72
1 -2 22 0.52 0.4
1 -2 22 0.4 0.32
1 -2 22 1.39 0.79
2 -2 22 2.4 0.41
2 -2 22 3.1 0.87
3 -2 22 0.8 0.36
4 -2 22 8.43 0.78
5 -2 22 0.17 0.3
-5 -1 22 0.29 0.39
-4 -1 22 2.94 0.49
-3 -1 22 0.27 0.39
-2 -1 22 2.13 0.46
-1 -1 22 0.8 0.71
-1 -1 22 0.89 0.41
0 -1 22 3.37 0.41
0 -1 22 3.57 0.51
0 -1 22 3.73 0.86
1 -1 22 0.02 0.71
1 -1 22 -0.01 0.31
1 -1 22 0.42 0.38
2 -1 22 2.93 0.43
3 -1 22 0.37 0.33
4 -1 22 0.35 0.31
5 -1 22 2.7 0.39
-3 0 22 -0.09 0.37
-2 0 22 1.4 0.4
-1 0 22 0.59 0.37
0 0 22 0.36 0.35
1 0 22 -0.01 0.29
2 0 22 2.24 0.36
3 0 22 0.43 0.3
4 0 22 0.39 0.3
2 1 22 1.11 0.31
-2 -14 23 0.44 0.45
-2 -14 23 1.76 0.63
-1 -14 23 1.36 0.45
-1 -14 23 0.98 0.65
0 -14 23 1.81 0.66
1 -14 23 1.72 0.64
2 -14 23 3.73 0.73
-3 -13 23 -0.4 0.59
-3 -13 23 0.1 0.35
-3 -13 23 0.06 0.48
-2 -13 23 0.33 0.37
-2 -13 23 0.47 0.63
-2 -13 23 0.26 0.47
-1 -13 23 2.22 0.7
-1 -13 23 2.36 0.52
-1 -13 23 1.22 0.43
0 -13 23 4.42 0.55
0 -13 23 4.93 0.85
1 -13 23 1.96 0.68
2 -13 23 5.37 0.86
3 -13 23 1.72 0.33
3 -13 23 2.36 0.58
-4 -12 23 -0.09 0.36
-4 -12 23 -0.19 0.48
-3 -12 23 0.35 0.49
-3 -12 23 0.71 0.4
-2 -12 23 1.35 0.42
-2 -12 23 1.28 0.67
-2 -12 23 0.98 0.52
-1 -12 23 1.44 0.45
-1 -12 23 1.71 0.72
0 -12 23 3.24 0.5
0 -12 23 2.17 0.75
1 -12 23 2.54 0.7
1 -12 23 1.88 0.45
2 -12 23 -0.58 0.6
3 -12 23 4.24 0.44
3 -12 23 3.63 0.72
4 -12 23 2.52 0.34
4 -12 23 1.75 0.55
-5 -11 23 7.55 0.78
-5 -11 23 9.38 0.86
-4 -11 23 1.21 0.45
-4 -11 23 1.8 0.54
-3 -11 23 2.16 0.5
-3 -11 23 3.3 0.61
-2 -11 23 0.86 0.5
-2 -11 23 0.68 0.44
-1 -11 23 2.34 0.75
-1 -11 23 2.15 0.49
0 -11 23 -0.03 0.42
0 -11 23 -0.04 0.67
1 -11 23 0.77 0.63
1 -11 23 0.21 0.41
2 -11 23 2.03 0.68
3 -11 23 0.69 0.33
3 -11 23 -0.26 0.54
4 -11 23 2.66 0.37
4 -11 23 2.45 0.57
-5 -10 23 8.3 0.86
-5 -10 23 10.45 0.9
-4 -10 23 2.05 0.53
-4 -10 23 2.5 0.48
-3 -10 23 0.66 0.5
-3 -10 23 0.57 0.44
-2 -10 23 1.01 0.46
-1 -10 23 6.47 0.7
-1 -10 23 5.56 0.96
0 -10 23 2.49 0.76
0 -10 23 2 0.5
1 -10 23 0.03 0.44
1 -10 23 1.44 0.66
2 -10 23 2.26 0.66
2 -10 23 1.41 0.45
3 -10 23 0.77 0.53
3 -10 23 0.56 0.35
4 -10 23 1.2 0.34
4 -10 23 1.08 0.48
5 -10 23 4.04 0.43
5 -10 23 3.61 0.61
-5 -9 23 1.31 0.46
-5 -9 23 1.3 0.48
-4 -9 23 1.08 0.5
-4 -9 23 0.55 0.46
-3 -9 23 0.83 0.48
-2 -9 23 5.26 0.65
-1 -9 23 0.98 0.49
-1 -9 23 2.51 0.73
-1 -9 23 2.09 0.8
0 -9 23 -0.72 0.44
0 -9 23 -0.32 0.64
0 -9 23 -0.35 0.72
1 -9 23 0.1 0.44
1 -9 23 0.81 0.74
1 -9 23 -0.2 0.6
2 -9 23 2.39 0.49
2 -9 23 2.17 0.65
3 -9 23 4.72 0.77
3 -9 23 5.56 0.54
4 -9 23 1.17 0.46
4 -9 23 1.56 0.36
5 -9 23 3.31 0.41
5 -9 23 2.86 0.55
-6 -8 23 3.08 0.52
-5 -8 23 -0.25 0.42
-4 -8 23 -0.24 0.46
-3 -8 23 0.3 0.48
-2 -8 23 1.6 0.51
-2 -8 23 1.08 0.8
-1 -8 23 4.2 0.61
-1 -8 23 5.25 0.94
0 -8 23 -0.12 0.59
0 -8 23 0.54 0.78
0 -8 23 -0.21 0.46
1 -8 23 0.44 0.6
1 -8 23 0.78 0.47
1 -8 23 1.68 0.77
2 -8 23 1.08 0.46
2 -8 23 1.74 0.58
2 -8 23 2.52 0.94
3 -8 23 0.72 0.5
3 -8 23 0.92 0.36
4 -8 23 0.75 0.35
5 -8 23 0.42 0.32
-6 -7 23 1.11 0.46
-5 -7 23 4.87 0.63
-4 -7 23 0.65 0.49
-3 -7 23 -0.35 0.47
-2 -7 23 2.79 0.86
-2 -7 23 2.88 0.57
-1 -7 23 0.87 0.73
-1 -7 23 -0.58 0.47
0 -7 23 4.27 0.59
0 -7 23 3.4 0.76
0 -7 23 4.43 0.9
1 -7 23 1.16 0.58
1 -7 23 0.83 0.47
1 -7 23 1 0.78
2 -7 23 1.08 0.77
2 -7 23 2.2 0.47
2 -7 23 2.09 0.42
2 -7 23 1.76 0.58
3 -7 23 0.65 0.36
4 -7 23 3.07 0.42
5 -7 23 4.9 0.51
-6 -6 23 2.97 0.53
-5 -6 23 10.29 1.03
-4 -6 23 0.88 0.48
-3 -6 23 0.05 0.46
-2 -6 23 -0.09 0.46
-2 -6 23 0.09 0.74
-1 -6 23 0.67 0.73
-1 -6 23 -0.12 0.46
0 -6 23 2.91 0.68
0 -6 23 3.07 0.55
0 -6 23 3.49 0.85
1 -6 23 -0.4 0.72
1 -6 23 -0.46 0.43
2 -6 23 0.19 0.43
2 -6 23 0.73 0.77
2 -6 23 0 0.37
3 -6 23 -0.12 0.35
4 -6 23 0.46 0.32
5 -6 23 1.03 0.35
-5 -5 23 0.22 0.45
-4 -5 23 0.25 0.46
-3 -5 23 1.47 0.5
-2 -5 23 -0.28 0.44
-1 -5 23 -0.68 0.45
-1 -5 23 0.9 0.71
0 -5 23 1.08 0.46
0 -5 23 2.3 0.78
1 -5 23 1.63 0.79
1 -5 23 2.1 0.4
1 -5 23 1.45 0.47
2 -5 23 2.43 0.48
2 -5 23 2.8 0.44
3 -5 23 0.72 0.35
4 -5 23 0.25 0.34
5 -5 23 1.74 0.36
-5 -4 23 0.48 0.43
-4 -4 23 0.28 0.45
-3 -4 23 0.33 0.45
-2 -4 23 -0.11 0.43
-1 -4 23 0.38 0.72
-1 -4 23 0.45 0.44
-1 -4 23 0.52 0.32
0 -4 23 -0.25 0.42
0 -4 23 -0.12 0.33
0 -4 23 0.22 0.67
1 -4 23 -0.17 0.34
1 -4 23 0.17 0.42
1 -4 23 -0.47 0.77
2 -4 23 0.65 0.34
2 -4 23 0.92 0.41
3 -4 23 0.31 0.33
4 -4 23 0.39 0.33
5 -4 23 0 0.3
-5 -3 23 0.7 0.42
-4 -3 23 0.01 0.43
-3 -3 23 -0.12 0.42
-2 -3 23 5.8 0.54
-2 -3 23 6.38 0.67
-1 -3 23 0.15 0.41
-1 -3 23 0.52 0.32
0 -3 23 1.57 0.45
0 -3 23 0.78 0.34
1 -3 23 0.07 0.31
1 -3 23 0.07 0.4
2 -3 23 0.38 0.32
3 -3 23 -0.68 0.33
4 -3 23 0.31 0.31
5 -3 23 0.6 0.3
-5 -2 23 0.84 0.41
-4 -2 23 -0.05 0.39
-3 -2 23 0.22 0.39
-2 -2 23 0.73 0.4
-1 -2 23 -0.1 0.37
-1 -2 23 -0.14 0.27
0 -2 23 0.76 0.3
0 -2 23 1.24 0.4
1 -2 23 0.23 0.3
1 -2 23 0.79 0.37
2 -2 23 -0.15 0.31
3 -2 23 0 0.31
4 -2 23 0.11 0.3
-4 -1 23 0.39 0.35
-3 -1 23 0.35 0.37
-2 -1 23 3.78 0.5
-1 -1 23 2.74 0.45
0 -1 23 -0.04 0.28
0 -1 23 -0.11 0.35
1 -1 23 0.58 0.31
2 -1 23 1.48 0.33
3 -1 23 0.71 0.31
1 0 23 -0.04 0.27
2 0 23 0.16 0.27
3 0 23 -0.02 0.26
-1 -13 24 0.19 0.34
-1 -13 24 0.7 0.62
0 -13 24 1.32 0.37
0 -13 24 0.67 0.61
-3 -12 24 0.55 0.46
-3 -12 24 0.16 0.36
-2 -12 24 0.41 0.59
-2 -12 24 0.16 0.38
-1 -12 24 0.23 0.39
-1 -12 24 0.17 0.63
0 -12 24 -0.17 0.59
0 -12 24 0.46 0.38
1 -12 24 -0.22 0.35
1 -12 24 0.13 0.6
2 -12 24 -0.18 0.54
-3 -11 24 1.42 0.43
-2 -11 24 0.33 0.42
-2 -11 24 0.84 0.64
-1 -11 24 0.44 0.63
-1 -11 24 -0.03 0.39
0 -11 24 1.31 0.43
0 -11 24 1.18 0.66
1 -11 24 -0.11 0.56
2 -11 24 -0.21 0.55
3 -11 24 0.73 0.5
3 -11 24 -0.51 0.3
-4 -10 24 4.35 0.58
-3 -10 24 1.01 0.43
-2 -10 24 1.38 0.64
-2 -10 24 0.57 0.45
-1 -10 24 -0.57 0.41
-1 -10 24 0.63 0.64
0 -10 24 2.02 0.68
0 -10 24 1.68 0.48
1 -10 24 0.3 0.55
1 -10 24 -0.04 0.42
2 -10 24 -0.1 0.53
3 -10 24 1.12 0.35
3 -10 24 0.68 0.47
-4 -9 24 4.62 0.61
-3 -9 24 -0.44 0.41
-2 -9 24 -0.2 0.43
-1 -9 24 0.24 0.63
-1 -9 24 1 0.45
0 -9 24 -0.53 0.59
0 -9 24 -0.2 0.42
1 -9 24 0.26 0.43
1 -9 24 -0.12 0.51
2 -9 24 3.29 0.44
2 -9 24 2.09 0.59
3 -9 24 0.24 0.44
3 -9 24 0.18 0.34
4 -9 24 0.24 0.31
4 -9 24 0.15 0.39
-4 -8 24 0.18 0.44
-3 -8 24 1.15 0.46
-2 -8 24 1.16 0.46
-1 -8 24 3.5 0.57
-1 -8 24 3.57 0.73
0 -8 24 1.34 0.47
0 -8 24 1.42 0.6
1 -8 24 4.54 0.59
1 -8 24 4.21 0.71
2 -8 24 3.65 0.45
2 -8 24 2.89 0.61
2 -8 24 3.08 0.51
3 -8 24 0.98 0.35
4 -8 24 0.43 0.31
-4 -7 24 -0.16 0.43
-3 -7 24 6.01 0.67
-2 -7 24 0.81 0.45
-1 -7 24 0.1 0.55
-1 -7 24 -0.17 0.45
0 -7 24 1.35 0.56
0 -7 24 0.49 0.45
1 -7 24 0.12 0.43
1 -7 24 0.04 0.34
1 -7 24 0.19 0.51
2 -7 24 0.73 0.42
2 -7 24 0.82 0.36
3 -7 24 0.65 0.35
4 -7 24 0.22 0.31
-4 -6 24 1.25 0.47
-3 -6 24 0.19 0.44
-2 -6 24 -0.37 0.43
-1 -6 24 0.85 0.54
-1 -6 24 -0.86 0.42
0 -6 24 8.82 0.86
1 -6 24 0.33 0.43
1 -6 24 0.68 0.36
2 -6 24 0.37 0.35
3 -6 24 0.55 0.32
4 -6 24 -0.09 0.31
-4 -5 24 0.43 0.42
-3 -5 24 0.2 0.43
-2 -5 24 0.63 0.44
-1 -5 24 0.24 0.3
-1 -5 24 0.18 0.43
0 -5 24 1.29 0.36
0 -5 24 2.01 0.46
1 -5 24 -0.28 0.33
1 -5 24 0.42 0.41
2 -5 24 -0.2 0.32
3 -5 24 0.69 0.33
4 -5 24 0.31 0.32
-4 -4 24 0.17 0.41
-3 -4 24 0.26 0.41
-2 -4 24 -0.22 0.29
-2 -4 24 0.31 0.42
-1 -4 24 1.54 0.43
-1 -4 24 0.55 0.31
0 -4 24 1.6 0.43
0 -4 24 0.69 0.33
1 -4 24 1.44 0.42
1 -4 24 1.33 0.33
2 -4 24 -0.1 0.3
3 -4 24 0.24 0.32
-3 -3 24 0.3 0.4
-2 -3 24 0.04 0.38
-1 -3 24 -0.41 0.38
-1 -3 24 -0.07 0.27
0 -3 24 1.4 0.32
0 -3 24 1.08 0.4
1 -3 24 0.82 0.31
1 -3 24 0.91 0.38
2 -3 24 3.33 0.43
3 -3 24 0.82 0.31
-3 -2 24 1.77 0.41
-2 -2 24 0.51 0.36
-1 -2 24 0.95 0.37
0 -2 24 0.25 0.34
0 -2 24 -0.17 0.27
1 -2 24 -0.58 0.28
2 -2 24 -0.02 0.29
-1 -1 24 -0.08 0.32
1 -1 24 0.53 0.27
0 -11 25 -0.36 0.37
-2 -10 25 0.67 0.41
-1 -10 25 0.05 0.4
-1 -10 25 -0.26 0.58
0 -10 25 2.2 0.62
0 -10 25 2.73 0.47
1 -10 25 1.73 0.56
1 -10 25 1.97 0.44
-2 -9 25 -0.08 0.57
-2 -9 25 -0.13 0.39
-1 -9 25 0.36 0.56
-1 -9 25 -0.76 0.37
0 -9 25 0.07 0.4
0 -9 25 -0.65 0.5
1 -9 25 0.64 0.4
1 -9 25 0.48 0.49
2 -9 25 0.12 0.32
-2 -8 25 0.59 0.43
-2 -8 25 0.77 0.55
-1 -8 25 3.06 0.66
-1 -8 25 3.81 0.53
0 -8 25 0.33 0.41
0 -8 25 0.56 0.5
1 -8 25 -0.05 0.33
1 -8 25 0.5 0.39
1 -8 25 0.25 0.46
2 -8 25 0.38 0.32
-3 -7 25 0.66 0.41
-2 -7 25 -0.48 0.4
-2 -7 25 0.42 0.53
-1 -7 25 0.62 0.52
-1 -7 25 0.44 0.4
0 -7 25 0.18 0.33
0 -7 25 0.22 0.39
1 -7 25 -0.17 0.37
1 -7 25 0.63 0.33
2 -7 25 0.21 0.32
-2 -6 25 0.23 0.41
-1 -6 25 0.47 0.31
-1 -6 25 0.22 0.4
0 -6 25 1.01 0.34
0 -6 25 1.21 0.41
1 -6 25 1.54 0.42
1 -6 25 1.22 0.36
2 -6 25 0.1 0.3
-2 -5 25 -0.56 0.26
-2 -5 25 0.21 0.39
-1 -5 25 1.58 0.44
-1 -5 25 1.83 0.34
0 -5 25 -0.01 0.3
0 -5 25 0.15 0.38
1 -5 25 0 0.3
1 -5 25 0.19 0.38
2 -5 25 0.22 0.29
-1 -4 25 0.64 0.39
-1 -4 25 0.51 0.26
0 -4 25 0.46 0.28
0 -4 25 0.2 0.36
1 -4 25 0.86 0.3
