#------------------------------------------------------------------------------
#$Date: 2016-03-22 22:15:30 +0200 (Tue, 22 Mar 2016) $
#$Revision: 179036 $
#$URL: svn://www.crystallography.net/cod/cif/4/12/34/4123476.cif $
#------------------------------------------------------------------------------
#
# This file is available in the Crystallography Open Database (COD),
# http://www.crystallography.net/
#
# All data on this site have been placed in the public domain by the
# contributors.
#
data_4123476
loop_
_publ_author_name
'Xue, Fei'
'Zhao, Jin'
'Hor, T. S. Andy'
'Hayashi, Tamio'
_publ_section_title
;
 Nickel-catalyzed three-component domino reactions of aryl grignard
 reagents, alkynes, and aryl halides producing tetrasubstituted alkenes.
;
_journal_issue                   9
_journal_name_full               'Journal of the American Chemical Society'
_journal_page_first              3189
_journal_page_last               3192
_journal_paper_doi               10.1021/ja513166w
_journal_volume                  137
_journal_year                    2015
_chemical_formula_sum            'C25 H26'
_chemical_formula_weight         326.46
_chemical_name_systematic
; 
 ? 
;
_space_group_crystal_system      triclinic
_space_group_IT_number           2
_space_group_name_Hall           '-P 1'
_space_group_name_H-M_alt        'P -1'
_symmetry_space_group_name_Hall  '-P 1'
_symmetry_space_group_name_H-M   'P -1'
_atom_sites_solution_hydrogens   geom
_audit_creation_method           SHELXL-2014
_cell_angle_alpha                73.008(4)
_cell_angle_beta                 81.053(4)
_cell_angle_gamma                83.534(5)
_cell_formula_units_Z            2
_cell_length_a                   9.382(3)
_cell_length_b                   9.530(3)
_cell_length_c                   11.262(4)
_cell_measurement_reflns_used    461
_cell_measurement_temperature    100(2)
_cell_measurement_theta_max      27.64
_cell_measurement_theta_min      2.71
_cell_volume                     948.9(5)
_computing_cell_refinement       'Bruker SAINT'
_computing_data_collection       'Bruker APEX2'
_computing_data_reduction        'Bruker SAINT'
_computing_molecular_graphics    'Bruker SHELXTL'
_computing_publication_material  'Bruker SHELXTL'
_computing_structure_refinement  'SHELXL-2014 (Sheldrick, 2014)'
_computing_structure_solution    'SHELXS-97 (Sheldrick 2008)'
_diffrn_ambient_temperature      100(2)
_diffrn_measured_fraction_theta_full 1.000
_diffrn_measured_fraction_theta_max 0.994
_diffrn_measurement_device_type  'Bruker APEX-II CCD'
_diffrn_measurement_method       '\f and \w scans'
_diffrn_radiation_type           MoK\a
_diffrn_radiation_wavelength     0.71073
_diffrn_reflns_av_R_equivalents  0.0501
_diffrn_reflns_av_unetI/netI     0.0634
_diffrn_reflns_Laue_measured_fraction_full 1.000
_diffrn_reflns_Laue_measured_fraction_max 0.994
_diffrn_reflns_limit_h_max       12
_diffrn_reflns_limit_h_min       -12
_diffrn_reflns_limit_k_max       12
_diffrn_reflns_limit_k_min       -12
_diffrn_reflns_limit_l_max       15
_diffrn_reflns_limit_l_min       -15
_diffrn_reflns_number            12070
_diffrn_reflns_point_group_measured_fraction_full 1.000
_diffrn_reflns_point_group_measured_fraction_max 0.994
_diffrn_reflns_theta_full        25.242
_diffrn_reflns_theta_max         28.370
_diffrn_reflns_theta_min         1.907
_exptl_absorpt_coefficient_mu    0.064
_exptl_absorpt_correction_T_max  0.7457
_exptl_absorpt_correction_T_min  0.6292
_exptl_absorpt_correction_type   multi-scan
_exptl_absorpt_process_details   'Sadabs, (Sheldrick 2012)'
_exptl_crystal_colour            Colourless
_exptl_crystal_density_diffrn    1.143
_exptl_crystal_density_meas      ?
_exptl_crystal_density_method    'Not Measured'
_exptl_crystal_description       Block
_exptl_crystal_F_000             352
_exptl_crystal_size_max          0.60
_exptl_crystal_size_mid          0.20
_exptl_crystal_size_min          0.12
_refine_diff_density_max         0.302
_refine_diff_density_min         -0.262
_refine_diff_density_rms         0.050
_refine_ls_extinction_method     none
_refine_ls_goodness_of_fit_ref   1.003
_refine_ls_hydrogen_treatment    constr
_refine_ls_matrix_type           full
_refine_ls_number_parameters     228
_refine_ls_number_reflns         4724
_refine_ls_number_restraints     0
_refine_ls_restrained_S_all      1.003
_refine_ls_R_factor_all          0.0836
_refine_ls_R_factor_gt           0.0560
_refine_ls_shift/su_max          0.000
_refine_ls_shift/su_mean         0.000
_refine_ls_structure_factor_coef Fsqd
_refine_ls_weighting_details
'w=1/[\s^2^(Fo^2^)+(0.0645P)^2^+0.2245P] where P=(Fo^2^+2Fc^2^)/3'
_refine_ls_weighting_scheme      calc
_refine_ls_wR_factor_gt          0.1273
_refine_ls_wR_factor_ref         0.1398
_reflns_Friedel_coverage         0.000
_reflns_number_gt                3391
_reflns_number_total             4724
_reflns_threshold_expression     'I > 2\s(I)'
_cod_data_source_file            ja513166w_si_001.cif
_cod_data_source_block           E440
_cod_depositor_comments
;
The following automatic conversions were performed:

'_exptl_absorpt_correction_type' value 'Multi-scan' changed to
'multi-scan' according to
/usr/data/users/saulius/crontab/automatic-downloads/rss-feeds/ACS/lib/dictionaries/cif_core.dic
dictionary named 'cif_core.dic' version 2.4.2 from 2011-04-26.

'_exptl_crystal_density_meas' value 'Not Measured' was changed to '?'
- the value is perceived as not measured.

Automatic conversion script
Id: cif_fix_values 3086 2015-02-26 13:12:21Z robertas 

 Adding full bibliography for 4123475--4123478.cif.
;
_cod_original_cell_volume        948.8(5)
_cod_database_code               4123476
#BEGIN Tags that were not found in dictionaries:
_shelx_space_group_comment
; 
The symmetry employed for this shelxl refinement is uniquely defined 
by the following loop, which should always be used as a source of 
symmetry information in preference to the above space-group names. 
They are only intended as comments. 
;
_shelxl_version_number           2014-3
_shelx_res_file
; 
TITL E440 in P-1 
CELL  0.71073   9.3816   9.5304  11.2615   73.008   81.053   83.534 
ZERR    2.00   0.00300   0.00300   0.00360   0.0042   0.0044   0.0047 
LATT 1 
SFAC C  H 
UNIT 50  52 
L.S. 10 
ACTA 
BOND 
BOND $H 
FMAP 2 
PLAN 20 
TEMP -173 
WGHT    0.064500    0.224500 
FVAR       0.35737 
C1    1    0.421469    0.478030    0.710703    11.00000    0.01349    0.01430 = 
         0.01233   -0.00300   -0.00450   -0.00026 
C2    1    0.277551    0.420206    0.769714    11.00000    0.01243    0.00876 = 
         0.01909   -0.00311   -0.00062    0.00005 
C3    1    0.192519    0.380337    0.695141    11.00000    0.01742    0.01353 = 
         0.02225   -0.00669   -0.00237   -0.00164 
AFIX  43 
H3    2    0.227632    0.389992    0.609539    11.00000   -1.20000 
AFIX   0 
C4    1    0.058359    0.327140    0.743431    11.00000    0.01956    0.01398 = 
         0.03193   -0.00886   -0.00623   -0.00231 
AFIX  43 
H4    2    0.001379    0.301602    0.691155    11.00000   -1.20000 
AFIX   0 
C5    1    0.007568    0.311298    0.867959    11.00000    0.01510    0.01831 = 
         0.03573   -0.00512    0.00272   -0.00404 
AFIX  43 
H5    2   -0.085262    0.276242    0.901590    11.00000   -1.20000 
AFIX   0 
C6    1    0.091856    0.346457    0.943286    11.00000    0.02373    0.01524 = 
         0.02277   -0.00185    0.00560   -0.00111 
AFIX  43 
H6    2    0.056534    0.333571    1.029276    11.00000   -1.20000 
AFIX   0 
C7    1    0.227828    0.400538    0.896999    11.00000    0.01861    0.01100 = 
         0.01901   -0.00335    0.00052   -0.00005 
C8    1    0.315263    0.435576    0.983839    11.00000    0.02958    0.02543 = 
         0.01558   -0.00313   -0.00194   -0.00598 
AFIX 137 
H8A   2    0.418086    0.411523    0.960087    11.00000   -1.50000 
H8B   2    0.285409    0.377564    1.069884    11.00000   -1.50000 
H8C   2    0.299511    0.540569    0.978373    11.00000   -1.50000 
AFIX   0 
C9    1    0.451637    0.616710    0.700185    11.00000    0.01211    0.01336 = 
         0.01132   -0.00309   -0.00307   -0.00134 
C10   1    0.342943    0.725232    0.741424    11.00000    0.01379    0.00954 = 
         0.01347   -0.00109    0.00100   -0.00255 
C11   1    0.202273    0.747813    0.711165    11.00000    0.01474    0.01222 = 
         0.01882   -0.00256   -0.00086   -0.00386 
AFIX  43 
H11   2    0.173502    0.693303    0.661584    11.00000   -1.20000 
AFIX   0 
C12   1    0.103744    0.848363    0.752155    11.00000    0.01408    0.01611 = 
         0.02651   -0.00143    0.00268   -0.00131 
AFIX  43 
H12   2    0.007846    0.861494    0.731421    11.00000   -1.20000 
AFIX   0 
C13   1    0.144166    0.929764    0.823101    11.00000    0.02319    0.01472 = 
         0.02421   -0.00551    0.00738    0.00030 
AFIX  43 
H13   2    0.075956    0.997763    0.852216    11.00000   -1.20000 
AFIX   0 
C14   1    0.284197    0.911825    0.851502    11.00000    0.03012    0.01752 = 
         0.02160   -0.00871    0.00119   -0.00632 
AFIX  43 
H14   2    0.313038    0.968812    0.899017    11.00000   -1.20000 
AFIX   0 
C15   1    0.382617    0.810778    0.810738    11.00000    0.01766    0.01727 = 
         0.01856   -0.00515   -0.00183   -0.00340 
AFIX  43 
H15   2    0.478892    0.799545    0.830353    11.00000   -1.20000 
AFIX   0 
C16   1    0.594476    0.676825    0.643736    11.00000    0.01433    0.01265 = 
         0.01137   -0.00574   -0.00118   -0.00307 
C17   1    0.597948    0.813222    0.554164    11.00000    0.01587    0.01346 = 
         0.01529   -0.00579   -0.00264    0.00051 
AFIX  43 
H17   2    0.509598    0.864365    0.529622    11.00000   -1.20000 
AFIX   0 
C18   1    0.726552    0.875794    0.500262    11.00000    0.02238    0.01321 = 
         0.01782   -0.00430    0.00068   -0.00408 
AFIX  43 
H18   2    0.726409    0.968123    0.438285    11.00000   -1.20000 
AFIX   0 
C19   1    0.855873    0.803512    0.536834    11.00000    0.01540    0.02116 = 
         0.02291   -0.00855    0.00311   -0.00646 
AFIX  43 
H19   2    0.944767    0.846425    0.500659    11.00000   -1.20000 
AFIX   0 
C20   1    0.854935    0.669003    0.625981    11.00000    0.01260    0.02088 = 
         0.02871   -0.00845   -0.00547   -0.00064 
AFIX  43 
H20   2    0.943568    0.619256    0.651148    11.00000   -1.20000 
AFIX   0 
C21   1    0.725811    0.605814    0.679145    11.00000    0.01623    0.01400 = 
         0.01889   -0.00308   -0.00473   -0.00184 
AFIX  43 
H21   2    0.726736    0.512996    0.740459    11.00000   -1.20000 
AFIX   0 
C22   1    0.525337    0.367596    0.663981    11.00000    0.01472    0.01426 = 
         0.01647   -0.00655   -0.00145   -0.00142 
AFIX  23 
H22A  2    0.610179    0.417980    0.612496    11.00000   -1.20000 
H22B  2    0.477449    0.327907    0.609550    11.00000   -1.20000 
AFIX   0 
C23   1    0.577349    0.239921    0.769873    11.00000    0.01682    0.01348 = 
         0.01878   -0.00579   -0.00182   -0.00132 
AFIX  23 
H23A  2    0.642491    0.276553    0.813606    11.00000   -1.20000 
H23B  2    0.492887    0.202702    0.831153    11.00000   -1.20000 
AFIX   0 
C24   1    0.656864    0.113909    0.723793    11.00000    0.02100    0.01685 = 
         0.02659   -0.00853    0.00041    0.00106 
AFIX  23 
H24A  2    0.590870    0.075601    0.682000    11.00000   -1.20000 
H24B  2    0.739803    0.151712    0.660843    11.00000   -1.20000 
AFIX   0 
C25   1    0.711920   -0.011212    0.828305    11.00000    0.02239    0.01892 = 
         0.03576   -0.01041   -0.00753    0.00312 
AFIX 137 
H25A  2    0.787289    0.022531    0.862533    11.00000   -1.50000 
H25B  2    0.752210   -0.093684    0.795180    11.00000   -1.50000 
H25C  2    0.631807   -0.043264    0.894676    11.00000   -1.50000 
AFIX   0 
HKLF 4 
  
REM  E440 in P-1 
REM R1 =  0.0560 for    3391 Fo > 4sig(Fo)  and  0.0836 for all    4724 data 
REM    228 parameters refined using      0 restraints 
  
END 
  
WGHT      0.0562      0.2082 
  
REM Highest difference peak  0.302,  deepest hole -0.262,  1-sigma level  0.050 
Q1    1   0.4117  0.5599  0.6938  11.00000  0.05    0.30 
Q2    1   0.2568  0.3605  0.7460  11.00000  0.05    0.28 
Q3    1   0.3456  0.4569  0.7475  11.00000  0.05    0.28 
Q4    1   0.0372  0.3550  0.8071  11.00000  0.05    0.27 
Q5    1   0.7955  0.8214  0.4984  11.00000  0.05    0.26 
Q6    1   0.5641  0.3162  0.7167  11.00000  0.05    0.26 
Q7    1   0.1628  0.7676  0.7769  11.00000  0.05    0.26 
Q8    1   0.5894  0.7579  0.6250  11.00000  0.05    0.26 
Q9    1   0.2478  0.4413  0.9410  11.00000  0.05    0.24 
Q10   1   0.4324  0.5254  0.7781  11.00000  0.05    0.23 
Q11   1   0.3383  0.7358  0.8186  11.00000  0.05    0.22 
Q12   1   0.1271  0.8510  0.8114  11.00000  0.05    0.22 
Q13   1   0.1430  0.3279  0.7244  11.00000  0.05    0.22 
Q14   1   0.1975  0.4374  0.5982  11.00000  0.05    0.21 
Q15   1   0.2179  0.4362  0.7301  11.00000  0.05    0.21 
Q16   1   0.2539  0.4380  0.8371  11.00000  0.05    0.21 
Q17   1   0.2666  0.7203  0.7602  11.00000  0.05    0.21 
Q18   1   0.8409  0.7545  0.6005  11.00000  0.05    0.20 
Q19   1   0.5948  0.8975  0.6153  11.00000  0.05    0.20 
Q20   1   0.2851  0.7681  0.7011  11.00000  0.05    0.20 
;
_shelx_res_checksum              676
_shelx_hkl_file
; 
  -1   0   0  110.63    2.70 
  -1   0   0  112.09    2.66 
   1   0   0  113.02    2.72 
  -2   0   0  114.11    2.96 
  -2   0   0  116.75    2.88 
   2   0   0  110.98    2.96 
  -3   0   0   17.18    0.78 
   3   0   0   16.97    0.87 
  -4   0   0    2.98    0.45 
   4   0   0    3.11    0.54 
   4   0   0    2.61    0.49 
  -5   0   0    2.41    0.46 
   5   0   0    3.12    0.56 
   5   0   0    1.63    0.47 
  -6   0   0   12.51    0.93 
   6   0   0   14.09    1.09 
   6   0   0   13.41    1.05 
  -7   0   0   43.81    1.95 
   7   0   0   35.67    1.99 
   7   0   0   41.34    2.10 
  -8   0   0    0.03    0.40 
   8   0   0   -0.15    0.47 
   8   0   0    1.28    0.66 
  -9   0   0    4.00    0.83 
   9   0   0    3.51    0.89 
   9   0   0    4.67    0.99 
 -10   0   0    4.39    0.93 
  10   0   0    4.89    1.21 
  10   0   0    3.16    0.96 
 -11   0   0    0.40    0.82 
  11   0   0    0.05    0.92 
  11   0   0    0.54    0.92 
 -12   0   0    0.01    1.12 
  12   0   0    0.95    0.99 
  12   0   0   -0.09    1.30 
  12  -1   0   10.38    1.71 
 -12   1   0    8.94    1.67 
  11  -1   0    0.28    0.84 
  11  -1   0   -0.73    0.93 
 -11   1   0    0.20    0.80 
  10  -1   0   -0.84    0.70 
  10  -1   0    0.47    0.85 
 -10   1   0   -0.04    0.61 
   9  -1   0    5.98    1.14 
   9  -1   0    5.91    1.21 
  -9   1   0    5.28    0.96 
   8  -1   0   93.36    3.58 
   8  -1   0   89.48    3.70 
  -8   1   0   91.15    3.41 
   7  -1   0    3.98    0.86 
   7  -1   0    3.77    0.79 
  -7   1   0    4.85    0.78 
   6  -1   0    4.35    0.75 
   6  -1   0    5.50    0.85 
  -6   1   0    4.63    0.68 
   5  -1   0    0.11    0.30 
   5  -1   0    0.59    0.39 
  -5   1   0    0.76    0.32 
   4  -1   0    7.06    0.77 
   4  -1   0    5.80    0.69 
  -4   1   0    7.09    0.56 
   3  -1   0    0.71    0.25 
   3  -1   0    0.68    0.25 
  -3   1   0    0.44    0.18 
   2  -1   0   37.56    1.28 
   2  -1   0   40.02    1.33 
  -2   1   0   40.73    1.20 
  -2   1   0   38.62    1.16 
   1  -1   0   97.13    2.41 
   1  -1   0   92.12    2.37 
  -1   1   0   91.00    2.31 
  -1   1   0   91.52    2.24 
   0  -1   0  132.48    3.12 
   0  -1   0  129.04    3.13 
   0   1   0  129.78    3.07 
  -1  -1   0    5.14    0.24 
  -1  -1   0    5.72    0.34 
   1   1   0    5.45    0.33 
  -2  -1   0  345.28    8.05 
  -2  -1   0  349.17    8.26 
   2   1   0  345.88    8.23 
  -3  -1   0   44.28    1.60 
  -3  -1   0   44.51    1.45 
   3   1   0   43.47    1.60 
  -4  -1   0   81.22    2.72 
  -4  -1   0   83.07    2.51 
   4   1   0   88.27    2.79 
  -5  -1   0   57.85    2.28 
  -5  -1   0   58.33    2.07 
   5   1   0   59.67    2.32 
  -6  -1   0    4.86    0.84 
  -6  -1   0    5.88    0.76 
   6   1   0    6.68    0.94 
  -7  -1   0   11.10    1.16 
   7   1   0   12.96    1.47 
   7   1   0   10.85    1.33 
  -8  -1   0   17.31    1.37 
   8   1   0   19.85    1.57 
   8   1   0   19.02    1.56 
  -9  -1   0    1.16    0.59 
   9   1   0    2.97    0.88 
   9   1   0    2.00    0.89 
 -10  -1   0    0.39    0.69 
  10   1   0    0.30    0.77 
  10   1   0   -0.80    0.69 
 -11  -1   0   -0.13    0.72 
  11   1   0   -0.49    0.90 
  11   1   0    0.42    1.00 
 -12  -1   0    1.48    1.13 
  12   1   0    2.66    1.28 
  12   1   0    4.59    1.68 
 -12   2   0    4.82    1.32 
  11  -2   0    0.62    1.09 
  11  -2   0    2.04    1.00 
 -11   2   0    0.00    0.86 
  10  -2   0    1.42    0.87 
  10  -2   0    2.44    1.05 
 -10   2   0    1.79    0.80 
   9  -2   0    1.30    0.80 
   9  -2   0    0.95    0.70 
  -9   2   0    1.03    0.66 
   8  -2   0   12.40    1.49 
   8  -2   0   10.71    1.38 
  -8   2   0   11.10    1.32 
   7  -2   0   28.60    1.75 
   7  -2   0   31.55    1.83 
  -7   2   0   34.17    1.73 
   6  -2   0   11.91    1.04 
   6  -2   0    9.39    1.13 
  -6   2   0   10.40    1.05 
   5  -2   0   36.04    1.70 
   5  -2   0   37.27    1.76 
  -5   2   0   36.84    1.54 
   4  -2   0    1.54    0.41 
   4  -2   0    1.16    0.39 
  -4   2   0    0.87    0.27 
  -4   2   0    0.80    0.27 
   3  -2   0   10.71    0.70 
   3  -2   0   10.43    0.74 
  -3   2   0   10.09    0.59 
  -3   2   0    9.80    0.60 
   2  -2   0  408.96    9.62 
   2  -2   0  391.50    9.53 
  -2   2   0  409.24    9.30 
  -2   2   0  400.83    9.42 
   1  -2   0  826.05   18.45 
   1  -2   0  817.22   18.45 
  -1   2   0  785.08   18.33 
   0  -2   0  104.49    2.76 
   0  -2   0  102.45    2.75 
   0   2   0  103.76    2.65 
  -1  -2   0  413.72   10.05 
  -1  -2   0  444.38   10.08 
  -2  -2   0   42.99    1.55 
  -2  -2   0   44.15    1.29 
   2   2   0   43.43    1.53 
  -3  -2   0   12.01    0.78 
  -3  -2   0   11.40    0.60 
   3   2   0    9.55    0.70 
  -4  -2   0  240.37    6.35 
  -4  -2   0  235.14    5.98 
   4   2   0  238.38    6.37 
  -5  -2   0   76.63    2.78 
  -5  -2   0   73.11    2.46 
   5   2   0   76.53    2.79 
  -6  -2   0   -0.34    0.23 
  -6  -2   0    0.11    0.39 
   6   2   0    0.84    0.39 
  -7  -2   0    0.05    0.33 
  -7  -2   0    0.43    0.39 
   7   2   0    0.23    0.38 
  -8  -2   0   -0.15    0.38 
  -8  -2   0    0.24    0.45 
   8   2   0    0.55    0.54 
  -9  -2   0   14.46    1.53 
   9   2   0   12.36    1.66 
   9   2   0   14.04    1.69 
 -10  -2   0    0.51    0.70 
  10   2   0    0.34    0.73 
  10   2   0    0.52    0.79 
 -11  -2   0    2.67    1.01 
  11   2   0    2.27    1.04 
  11   2   0    0.34    1.00 
 -12  -2   0    1.85    1.12 
  12   2   0   -0.20    1.01 
  12   2   0   -1.15    1.24 
  11  -3   0    0.42    1.00 
 -11   3   0    3.64    1.14 
  10  -3   0    1.28    0.88 
  10  -3   0   -1.09    0.69 
 -10   3   0    1.48    0.88 
   9  -3   0   16.46    1.90 
   9  -3   0   15.87    1.83 
  -9   3   0   15.79    1.61 
   8  -3   0    1.51    0.74 
   8  -3   0    0.64    0.73 
  -8   3   0    2.10    0.68 
   7  -3   0    5.73    0.93 
   7  -3   0    5.83    0.96 
  -7   3   0    6.59    0.98 
   6  -3   0   26.60    1.65 
   6  -3   0   23.83    1.53 
  -6   3   0   23.82    1.34 
   5  -3   0   10.40    1.15 
   5  -3   0   10.04    1.09 
  -5   3   0    9.30    0.89 
  -5   3   0    9.83    0.77 
   4  -3   0   43.08    1.88 
   4  -3   0   40.53    1.79 
  -4   3   0   43.96    1.58 
  -4   3   0   43.15    1.65 
   3  -3   0  120.78    3.60 
   3  -3   0  126.32    3.75 
  -3   3   0  121.84    3.47 
  -3   3   0  127.32    3.30 
   2  -3   0    2.35    0.43 
   2  -3   0    1.77    0.37 
  -2   3   0    2.01    0.36 
   1  -3   0  490.35   11.58 
   1  -3   0  478.98   11.54 
  -1   3   0  492.32   11.42 
   0  -3   0   85.56    2.61 
   0  -3   0   93.07    2.64 
   0   3   0   88.19    2.47 
  -1  -3   0   22.63    1.07 
  -1  -3   0   23.75    1.09 
   1   3   0   23.88    0.90 
  -2  -3   0   46.21    1.76 
   2   3   0   48.42    1.77 
  -3  -3   0   69.16    2.06 
  -3  -3   0   74.19    2.52 
   3   3   0   69.28    2.45 
  -4  -3   0   22.02    1.28 
  -4  -3   0   18.49    0.95 
   4   3   0   21.25    1.24 
  -5  -3   0   26.17    1.54 
  -5  -3   0   25.80    1.25 
   5   3   0   26.03    1.52 
  -6  -3   0    2.08    0.59 
  -6  -3   0    2.18    0.51 
   6   3   0    1.62    0.56 
  -7  -3   0    1.10    0.42 
  -7  -3   0    0.79    0.44 
   7   3   0    0.15    0.44 
  -8  -3   0    1.99    0.61 
  -8  -3   0    2.09    0.67 
   8   3   0    1.41    0.66 
  -9  -3   0   14.65    1.53 
  -9  -3   0   15.86    1.84 
   9   3   0   13.97    1.75 
 -10  -3   0    0.62    0.72 
  10   3   0   -0.15    0.71 
 -11  -3   0    1.24    0.95 
  11   3   0   -0.37    1.04 
  11   3   0   -1.19    0.96 
 -12  -3   0   12.12    1.78 
  12   3   0    7.61    1.81 
  12   3   0   11.05    1.93 
 -11   4   0    4.69    1.24 
  10  -4   0    0.13    0.78 
 -10   4   0   -0.11    0.73 
   9  -4   0    0.22    0.70 
   9  -4   0   -0.14    0.85 
  -9   4   0   -0.05    0.59 
   8  -4   0   10.02    1.44 
   8  -4   0    9.92    1.34 
  -8   4   0    9.55    1.20 
   7  -4   0    0.02    0.45 
   7  -4   0   -0.14    0.57 
  -7   4   0    0.25    0.45 
  -7   4   0    1.07    0.50 
   6  -4   0   16.06    1.30 
   6  -4   0   16.60    1.36 
  -6   4   0   17.62    1.15 
  -6   4   0   14.76    1.13 
   5  -4   0   48.81    2.30 
   5  -4   0   46.88    2.15 
  -5   4   0   45.17    1.94 
  -5   4   0   49.83    1.88 
   4  -4   0   10.90    1.14 
   4  -4   0   13.37    1.00 
  -4   4   0   11.64    0.75 
  -4   4   0   11.75    0.88 
   3  -4   0  106.22    3.44 
   3  -4   0  110.26    3.50 
  -3   4   0  110.07    3.32 
  -3   4   0  109.40    2.96 
   2  -4   0   22.01    1.20 
   2  -4   0   22.23    1.21 
  -2   4   0   21.29    1.11 
   1  -4   0  101.55    3.14 
   1  -4   0  102.91    3.14 
  -1   4   0   97.82    2.97 
   0  -4   0  171.79    4.77 
   0  -4   0  173.78    4.77 
   0   4   0  175.37    4.57 
  -1  -4   0   25.97    1.28 
  -1  -4   0   24.05    1.26 
   1   4   0   25.83    1.08 
  -2  -4   0    3.79    0.66 
   2   4   0    4.63    0.67 
  -3  -4   0   36.53    1.26 
  -3  -4   0   34.45    1.70 
   3   4   0   38.68    1.71 
  -4  -4   0   21.57    1.02 
  -4  -4   0   23.00    1.41 
   4   4   0   24.75    1.43 
  -5  -4   0   12.33    1.34 
  -5  -4   0   13.40    0.89 
   5   4   0   14.15    1.46 
  -6  -4   0    9.06    0.96 
  -6  -4   0    6.52    1.01 
   6   4   0    7.70    1.13 
  -7  -4   0    7.36    0.92 
  -7  -4   0    5.43    1.00 
   7   4   0    6.79    1.14 
  -8  -4   0    0.54    0.54 
  -8  -4   0    1.15    0.61 
   8   4   0    1.26    0.69 
  -9  -4   0    1.44    0.73 
  -9  -4   0    2.55    0.84 
   9   4   0    2.67    1.00 
 -10  -4   0    2.16    0.99 
 -10  -4   0    2.86    1.01 
  10   4   0    1.87    1.00 
 -11  -4   0   15.27    1.76 
  11   4   0   18.82    2.33 
  10  -5   0    0.63    0.97 
 -10   5   0    1.99    0.87 
   9  -5   0   -0.14    1.15 
   9  -5   0   -0.69    0.76 
  -9   5   0   -0.51    0.64 
   8  -5   0    4.79    1.09 
   8  -5   0    8.37    1.38 
  -8   5   0    7.17    1.02 
  -8   5   0    5.87    1.03 
   7  -5   0    0.37    0.55 
   7  -5   0    1.04    0.64 
  -7   5   0    0.12    0.55 
  -7   5   0    0.87    0.57 
   6  -5   0   30.81    1.94 
   6  -5   0   31.86    1.84 
  -6   5   0   31.10    1.69 
  -6   5   0   33.68    1.62 
   5  -5   0    0.53    0.50 
   5  -5   0   -0.14    0.38 
  -5   5   0    0.90    0.45 
  -5   5   0    0.39    0.34 
   4  -5   0   22.07    1.48 
   4  -5   0   19.05    1.43 
  -4   5   0   23.61    1.33 
  -4   5   0   21.69    1.07 
   3  -5   0   41.18    1.97 
   3  -5   0   40.38    1.94 
  -3   5   0   39.77    1.79 
   2  -5   0   75.62    2.78 
   2  -5   0   74.46    2.76 
  -2   5   0   72.99    2.59 
   1  -5   0  114.14    3.62 
   1  -5   0  114.08    3.64 
  -1   5   0  112.22    3.45 
   0  -5   0   12.24    0.98 
   0  -5   0   14.24    1.05 
   0   5   0   14.05    0.90 
  -1  -5   0    1.57    0.49 
  -1  -5   0    1.25    0.43 
   1   5   0    1.68    0.39 
  -2  -5   0    0.59    0.39 
  -2  -5   0    0.61    0.40 
   2   5   0    0.63    0.27 
  -3  -5   0    8.82    1.10 
   3   5   0    9.10    1.03 
  -4  -5   0    0.09    0.28 
  -4  -5   0    0.41    0.28 
   4   5   0    1.00    0.46 
  -5  -5   0    1.40    0.41 
  -5  -5   0    0.46    0.36 
   5   5   0    0.73    0.47 
  -6  -5   0    1.31    0.51 
  -6  -5   0    1.02    0.46 
   6   5   0    1.06    0.56 
  -7  -5   0   -0.51    0.45 
  -7  -5   0    0.77    0.46 
   7   5   0   -0.66    0.47 
  -8  -5   0    5.88    0.98 
  -8  -5   0    6.41    1.23 
   8   5   0    5.97    1.20 
  -9  -5   0    9.34    1.22 
  -9  -5   0   10.83    1.66 
   9   5   0    7.01    1.36 
 -10  -5   0    3.72    1.13 
 -10  -5   0    2.23    0.84 
  10   5   0    2.42    1.17 
 -11  -5   0   -1.27    0.96 
 -11  -5   0    0.47    0.89 
  11   5   0    0.57    1.11 
   9  -6   0    2.48    1.10 
  -9   6   0    7.01    1.15 
   8  -6   0    1.38    0.76 
   8  -6   0    0.12    0.88 
  -8   6   0    0.18    0.57 
   7  -6   0    0.57    0.66 
   7  -6   0    0.14    0.80 
  -7   6   0    1.09    0.64 
  -7   6   0    0.46    0.61 
   6  -6   0   -0.34    0.65 
   6  -6   0    0.78    0.56 
  -6   6   0   -0.30    0.46 
  -6   6   0   -0.06    0.46 
   5  -6   0   12.17    1.43 
   5  -6   0   11.23    1.32 
  -5   6   0   13.45    0.98 
  -5   6   0   11.42    1.30 
   4  -6   0    3.71    0.81 
   4  -6   0    3.53    0.76 
  -4   6   0    3.39    0.70 
   3  -6   0   12.38    1.37 
   3  -6   0   12.22    1.30 
  -3   6   0   12.86    1.05 
   2  -6   0  161.65    5.05 
   2  -6   0  158.72    5.04 
  -2   6   0  163.07    4.80 
   1  -6   0   52.09    2.31 
   1  -6   0   53.46    2.33 
  -1   6   0   51.64    2.11 
   0  -6   0    1.45    0.52 
   0  -6   0    0.49    0.46 
   0   6   0    0.95    0.40 
  -1  -6   0   -0.10    0.37 
  -1  -6   0    0.09    0.38 
   1   6   0    0.27    0.32 
  -2  -6   0   27.67    1.73 
  -2  -6   0   33.65    1.74 
   2   6   0   34.77    1.51 
  -3  -6   0   11.26    1.33 
   3   6   0    6.65    1.01 
  -4  -6   0   57.12    2.64 
   4   6   0   53.50    2.54 
  -5  -6   0   24.19    1.26 
  -5  -6   0   22.87    1.63 
   5   6   0   22.03    1.66 
  -6  -6   0   19.35    1.55 
  -6  -6   0   16.21    1.16 
   6   6   0   20.60    1.65 
  -7  -6   0    0.98    0.55 
  -7  -6   0    0.66    0.61 
   7   6   0    1.69    0.84 
  -8  -6   0   19.26    2.17 
  -8  -6   0   19.51    1.47 
   8   6   0   13.79    1.82 
  -9  -6   0    0.57    0.74 
  -9  -6   0   -0.78    0.74 
   9   6   0    1.14    0.93 
 -10  -6   0    1.62    0.96 
 -10  -6   0    0.81    0.99 
  10   6   0    2.18    0.99 
 -11  -6   0    1.70    1.08 
 -11  -6   0    1.71    1.08 
  11   6   0    1.70    1.18 
   9  -7   0   -0.11    1.48 
  -9   7   0    2.07    0.95 
   8  -7   0    1.43    0.92 
  -8   7   0    0.95    0.81 
   7  -7   0    1.87    0.92 
   7  -7   0    2.64    1.09 
  -7   7   0    2.00    0.73 
   6  -7   0   -0.56    0.66 
   6  -7   0   -0.57    0.71 
  -6   7   0   -0.64    0.53 
   5  -7   0    9.50    1.45 
   5  -7   0    8.97    1.33 
  -5   7   0    8.93    1.16 
   4  -7   0    1.71    0.75 
   4  -7   0    1.11    0.63 
  -4   7   0    0.82    0.66 
   3  -7   0  216.65    6.60 
   3  -7   0  209.61    6.59 
  -3   7   0  222.13    6.39 
   2  -7   0   66.55    2.83 
   2  -7   0   62.24    2.76 
  -2   7   0   56.49    2.49 
   1  -7   0   15.84    1.29 
   1  -7   0   15.70    1.35 
  -1   7   0   15.44    1.15 
   0  -7   0    0.41    0.51 
   0  -7   0    1.61    0.51 
   0   7   0    1.36    0.44 
  -1  -7   0    5.48    0.90 
  -1  -7   0    5.57    0.99 
   1   7   0    6.49    0.80 
  -2  -7   0    4.79    0.92 
  -2  -7   0    3.27    0.68 
   2   7   0    4.26    0.76 
  -3  -7   0    4.49    0.94 
   3   7   0    3.76    0.88 
  -4  -7   0   27.83    1.90 
   4   7   0   27.45    1.88 
  -5  -7   0    5.21    1.04 
   5   7   0    4.95    0.96 
  -6  -7   0    2.30    0.76 
   6   7   0    1.85    0.85 
  -7  -7   0   14.65    1.77 
   7   7   0   12.13    1.75 
  -8  -7   0    1.63    0.78 
   8   7   0   -0.32    0.74 
  -9  -7   0    6.66    1.45 
   9   7   0    5.96    1.43 
 -10  -7   0    2.77    1.03 
  10   7   0    4.02    1.32 
   8  -8   0    1.99    1.09 
  -8   8   0    1.87    0.99 
   7  -8   0    3.02    1.08 
  -7   8   0    3.96    1.03 
   6  -8   0    1.45    0.82 
   6  -8   0    1.19    1.02 
  -6   8   0    2.73    0.83 
   5  -8   0   -0.13    0.69 
   5  -8   0    0.55    0.87 
  -5   8   0    0.95    0.72 
   4  -8   0   21.73    1.81 
   4  -8   0   22.08    1.89 
  -4   8   0   23.99    1.69 
   3  -8   0   79.57    3.49 
   3  -8   0   83.57    3.53 
  -3   8   0   77.15    3.30 
   2  -8   0   24.97    1.82 
   2  -8   0   22.63    1.70 
  -2   8   0   22.94    1.61 
   1  -8   0    4.53    1.00 
   1  -8   0    3.93    0.85 
  -1   8   0    3.09    0.74 
   0  -8   0    1.63    0.62 
   0  -8   0    0.78    0.62 
   0   8   0    0.86    0.57 
  -1  -8   0   18.17    1.53 
  -1  -8   0   23.03    1.73 
   1   8   0   18.64    1.36 
  -2  -8   0    0.57    0.48 
  -2  -8   0   -0.21    0.56 
   2   8   0    1.05    0.41 
  -3  -8   0   23.23    1.80 
   3   8   0   22.35    1.33 
   3   8   0   20.42    2.01 
  -4  -8   0   19.47    2.04 
   4   8   0   21.29    1.84 
  -5  -8   0   15.85    1.85 
   5   8   0   12.34    1.65 
  -6  -8   0   -0.12    0.78 
   6   8   0    0.01    0.64 
  -7  -8   0   11.00    1.66 
   7   8   0    9.31    1.64 
  -8  -8   0   24.86    2.18 
   8   8   0   25.15    2.55 
  -9  -8   0    6.00    1.31 
   9   8   0    3.73    1.37 
   7  -9   0    0.77    1.05 
  -7   9   0   -0.54    0.97 
   6  -9   0    0.25    0.89 
  -6   9   0    0.23    0.83 
   5  -9   0    9.94    1.56 
   5  -9   0    7.58    1.27 
  -5   9   0    9.62    1.40 
   4  -9   0    1.03    0.88 
   4  -9   0    1.18    1.01 
  -4   9   0    1.43    0.85 
   3  -9   0    5.56    1.17 
   3  -9   0    4.83    1.24 
  -3   9   0    5.08    1.00 
   2  -9   0    0.99    0.76 
   2  -9   0    0.28    0.83 
  -2   9   0    0.64    0.55 
   1  -9   0    0.28    0.66 
   1  -9   0    0.89    0.82 
  -1   9   0   -0.08    0.51 
   0  -9   0   -0.05    0.54 
   0  -9   0   -0.55    0.72 
   0   9   0    1.02    0.56 
  -1  -9   0    7.82    1.24 
  -1  -9   0    9.74    1.56 
   1   9   0    8.42    1.16 
  -2  -9   0    1.79    0.76 
   2   9   0    2.28    0.60 
  -3  -9   0   19.10    2.05 
   3   9   0   19.69    1.43 
   3   9   0   18.26    2.01 
  -4  -9   0    6.53    1.30 
   4   9   0    7.97    1.46 
  -5  -9   0    0.52    0.81 
   5   9   0   -0.13    0.90 
  -6  -9   0    1.27    1.03 
   6   9   0    0.28    0.83 
  -7  -9   0    7.57    1.60 
   7   9   0    6.30    1.40 
  -8  -9   0    1.35    1.06 
   8   9   0    2.11    1.12 
   6 -10   0    4.32    1.25 
  -6  10   0    7.02    1.43 
   5 -10   0    2.86    1.29 
  -5  10   0    4.27    1.22 
   4 -10   0   21.33    2.33 
   4 -10   0   18.81    2.11 
  -4  10   0   23.09    2.24 
   3 -10   0    7.62    1.49 
   3 -10   0    4.95    1.13 
  -3  10   0    7.12    1.15 
   2 -10   0    6.45    1.36 
   2 -10   0    5.80    1.48 
  -2  10   0    8.14    1.25 
   1 -10   0    5.97    1.24 
   1 -10   0    6.94    1.36 
  -1  10   0    5.34    1.03 
   0 -10   0    7.42    1.42 
   0 -10   0    4.96    1.15 
   0  10   0    7.34    1.13 
  -1 -10   0   34.46    2.49 
  -1 -10   0   28.15    2.25 
   1  10   0   38.84    2.15 
  -2 -10   0    3.38    1.22 
   2  10   0    5.06    0.96 
   2  10   0    3.34    1.29 
  -3 -10   0    9.88    1.69 
   3  10   0    6.43    1.42 
   3  10   0    7.55    1.10 
  -4 -10   0    0.61    0.95 
   4  10   0    1.74    1.06 
  -5 -10   0    0.64    1.10 
   5  10   0    0.38    1.15 
  -6 -10   0   11.47    1.92 
   6  10   0    7.40    1.58 
  -7 -10   0    3.79    1.57 
   7  10   0    1.66    1.03 
   4 -11   0   17.50    2.19 
  -4  11   0   17.50    2.02 
   3 -11   0    3.22    1.45 
   3 -11   0    3.63    1.19 
  -3  11   0    5.21    1.26 
   2 -11   0    1.88    1.26 
   2 -11   0    2.06    1.01 
  -2  11   0    4.15    1.16 
   1 -11   0    0.49    0.85 
   1 -11   0    1.61    1.12 
  -1  11   0    1.86    0.92 
   0 -11   0    1.05    1.15 
   0 -11   0    1.61    0.96 
   0  11   0    1.62    0.90 
  -1 -11   0   29.49    2.92 
  -1 -11   0   22.08    2.35 
   1  11   0   28.20    2.08 
  -2 -11   0    4.73    1.32 
   2  11   0    4.11    1.53 
   2  11   0    5.64    1.09 
  -3 -11   0    3.14    1.34 
   3  11   0    2.20    1.37 
   3  11   0    2.98    1.23 
  -4 -11   0    0.43    1.32 
   4  11   0    2.05    1.44 
  -5 -11   0    5.02    1.62 
   5  11   0    3.29    1.52 
  -6 -11   0    2.15    1.53 
   6  11   0    3.33    1.74 
   1 -12   0   -0.33    1.15 
   1 -12   0    2.28    1.50 
  -1  12   0    3.90    1.11 
   0 -12   0    2.59    1.26 
   0 -12   0    3.86    1.63 
   0  12   0    6.71    1.35 
  -1 -12   0    4.82    1.71 
   1  12   0    5.56    1.30 
   1  12   0    7.81    2.09 
  -2 -12   0   14.13    2.23 
   2  12   0   12.21    2.44 
   2  12   0   12.80    1.71 
  -3 -12   0   -0.93    1.43 
   5  11  -1    3.31    1.63 
  -5 -11   1    4.35    1.68 
   4  11  -1   12.40    2.17 
  -4 -11   1   12.07    2.23 
   3  11  -1    7.29    1.76 
  -3 -11   1    6.38    1.65 
   2  11  -1    2.58    1.35 
   2  11  -1    2.68    0.98 
  -2 -11   1    2.89    1.39 
   1  11  -1    2.50    1.08 
   1  11  -1   -1.19    1.33 
  -1 -11   1    2.41    1.50 
   0  11  -1    1.72    1.06 
   0 -11   1    1.41    0.95 
   0 -11   1    3.41    1.38 
  -1  11  -1    3.22    1.10 
   1 -11   1    2.06    1.06 
   1 -11   1   -0.17    1.25 
  -2  11  -1    5.57    1.27 
   2 -11   1    5.66    1.65 
   2 -11   1    5.54    1.28 
  -3  11  -1   15.98    1.90 
   3 -11   1   15.98    2.31 
   3 -11   1   12.20    1.67 
  -4  11  -1    0.51    1.03 
   7  10  -1    1.48    1.60 
  -7 -10   1    6.95    1.33 
   6  10  -1    0.57    1.49 
  -6 -10   1   -0.47    1.29 
   5  10  -1    8.00    1.88 
  -5 -10   1    6.05    1.58 
   4  10  -1   15.55    2.10 
  -4 -10   1   10.95    1.89 
   3  10  -1   14.10    1.99 
   3  10  -1   14.24    1.52 
  -3 -10   1   11.93    1.86 
   2  10  -1    8.28    1.73 
   2  10  -1    5.74    1.08 
  -2 -10   1    8.17    1.54 
   1  10  -1    0.58    0.74 
  -1 -10   1    0.78    0.90 
   0  10  -1   15.83    1.74 
   0 -10   1   16.41    2.03 
   0 -10   1   15.96    2.11 
  -1  10  -1    2.24    0.87 
   1 -10   1    0.07    0.78 
   1 -10   1    0.15    0.94 
  -2  10  -1    4.31    1.04 
   2 -10   1    4.80    1.17 
   2 -10   1    3.97    1.23 
  -3  10  -1    5.83    1.28 
   3 -10   1    3.65    1.16 
   3 -10   1    4.29    1.34 
  -4  10  -1    1.55    0.92 
   4 -10   1    0.47    0.96 
   4 -10   1   -0.57    1.09 
  -5  10  -1    5.85    1.24 
   5 -10   1    5.52    1.56 
   5 -10   1    3.63    1.27 
  -6  10  -1    0.24    1.13 
   8   9  -1   15.95    2.09 
  -8  -9   1   13.99    1.95 
   7   9  -1    0.34    1.06 
  -7  -9   1    1.62    0.83 
   6   9  -1    3.99    1.41 
  -6  -9   1    1.75    1.09 
   5   9  -1   12.81    1.89 
  -5  -9   1   15.80    2.12 
   4   9  -1    2.57    1.11 
  -4  -9   1    2.59    1.03 
   3   9  -1    3.20    1.19 
   3   9  -1    3.63    0.84 
  -3  -9   1    2.56    0.91 
   2   9  -1    8.00    1.52 
   2   9  -1    7.99    1.11 
  -2  -9   1   10.44    1.71 
   1   9  -1   31.00    1.90 
  -1  -9   1   34.69    2.36 
  -1  -9   1   30.94    2.06 
   0   9  -1    1.17    0.63 
   0  -9   1    0.24    0.76 
   0  -9   1    0.80    0.61 
  -1   9  -1    1.43    0.70 
   1  -9   1    0.60    0.69 
   1  -9   1    1.09    0.82 
  -2   9  -1    1.06    0.67 
   2  -9   1    2.22    0.96 
   2  -9   1    1.58    0.77 
  -3   9  -1    8.58    1.28 
   3  -9   1    6.75    1.31 
   3  -9   1    5.79    1.14 
  -4   9  -1   26.59    1.98 
   4  -9   1   28.23    2.27 
   4  -9   1   26.06    2.06 
  -5   9  -1   -0.09    0.73 
   5  -9   1    0.59    0.83 
   5  -9   1    2.11    1.22 
  -6   9  -1    2.27    0.85 
   6  -9   1   -0.04    0.88 
   6  -9   1    0.48    1.17 
  -7   9  -1    8.75    1.56 
   9   8  -1    8.70    1.76 
  -9  -8   1    8.18    1.50 
   8   8  -1   -0.77    1.00 
  -8  -8   1   -0.36    0.86 
   7   8  -1    3.99    1.19 
  -7  -8   1    3.74    1.15 
   6   8  -1   15.88    1.96 
  -6  -8   1   14.01    1.84 
   5   8  -1    1.34    0.89 
  -5  -8   1    2.01    0.85 
   4   8  -1    1.29    0.75 
  -4  -8   1    1.14    0.78 
   3   8  -1    1.65    0.81 
  -3  -8   1    0.25    0.77 
   2   8  -1    7.94    1.33 
   2   8  -1    7.42    0.97 
  -2  -8   1    9.10    1.39 
   1   8  -1    4.16    0.82 
  -1  -8   1    4.47    1.07 
  -1  -8   1    2.85    0.79 
   0   8  -1    1.61    0.54 
   0  -8   1    0.28    0.59 
   0  -8   1    1.36    0.60 
  -1   8  -1    1.13    0.51 
   1  -8   1    0.49    0.61 
   1  -8   1    0.55    0.52 
  -2   8  -1   21.94    1.57 
   2  -8   1   24.12    1.74 
   2  -8   1   24.72    1.91 
  -3   8  -1    0.47    0.55 
   3  -8   1    0.73    0.64 
   3  -8   1    1.41    0.86 
  -4   8  -1  101.61    3.89 
   4  -8   1  100.21    4.23 
   4  -8   1   95.72    4.01 
  -5   8  -1    1.04    0.70 
   5  -8   1    1.39    0.79 
   5  -8   1    1.42    0.91 
  -6   8  -1   -0.23    0.76 
   6  -8   1    1.60    0.79 
   6  -8   1    1.08    1.02 
  -7   8  -1    2.59    0.86 
   7  -8   1    0.50    1.10 
   7  -8   1   -0.83    0.85 
  -8   8  -1    4.65    1.16 
  10   7  -1    4.01    1.38 
 -10  -7   1    5.43    1.35 
   9   7  -1   -0.12    0.93 
  -9  -7   1    0.92    0.83 
   8   7  -1    9.50    1.63 
  -8  -7   1    9.84    1.60 
   7   7  -1   -0.24    0.69 
  -7  -7   1   -0.14    0.57 
   6   7  -1   11.25    1.58 
  -6  -7   1   13.42    1.76 
   5   7  -1    0.49    0.75 
  -5  -7   1    1.56    0.76 
   4   7  -1   83.32    3.57 
  -4  -7   1   85.96    3.70 
   3   7  -1    1.90    0.75 
  -3  -7   1    2.49    0.80 
   2   7  -1    4.52    0.69 
   2   7  -1    3.84    0.89 
  -2  -7   1    2.91    0.81 
   1   7  -1    6.17    0.82 
  -1  -7   1    5.54    0.98 
  -1  -7   1    7.66    1.15 
   0   7  -1    7.30    0.91 
   0  -7   1    6.87    1.08 
   0  -7   1    5.40    0.86 
  -1   7  -1   23.51    1.45 
   1  -7   1   26.65    1.78 
   1  -7   1   23.20    1.57 
  -2   7  -1    0.36    0.39 
   2  -7   1    0.39    0.51 
   2  -7   1    0.36    0.52 
  -3   7  -1   15.94    1.36 
   3  -7   1   17.71    1.58 
   3  -7   1   16.68    1.41 
  -4   7  -1    0.43    0.59 
   4  -7   1    0.58    0.55 
   4  -7   1    2.26    0.84 
  -5   7  -1   10.79    1.32 
   5  -7   1   10.16    1.51 
   5  -7   1    8.94    1.27 
  -6   7  -1   -0.07    0.57 
   6  -7   1   -0.67    0.63 
   6  -7   1    0.28    0.79 
  -7   7  -1    1.58    0.71 
   7  -7   1    1.76    0.78 
   7  -7   1    1.09    1.07 
  -8   7  -1    1.22    0.81 
   8  -7   1   -0.41    1.01 
  -9   7  -1    0.33    0.88 
  10   6  -1    1.11    1.12 
 -10  -6   1    1.93    0.95 
 -10  -6   1    0.40    0.91 
   9   6  -1    0.77    1.06 
  -9  -6   1    1.16    0.88 
  -9  -6   1   -0.62    0.78 
   8   6  -1    8.25    1.50 
  -8  -6   1   10.50    1.29 
  -8  -6   1   11.13    1.59 
   7   6  -1   14.57    1.83 
  -7  -6   1   13.03    1.76 
  -7  -6   1   14.35    1.32 
   6   6  -1    0.97    0.75 
  -6  -6   1    2.08    0.59 
  -6  -6   1    0.98    0.59 
   5   6  -1   27.81    1.93 
  -5  -6   1   26.20    1.81 
   4   6  -1    2.32    0.76 
  -4  -6   1    1.15    0.59 
   3   6  -1    1.53    0.54 
  -3  -6   1    0.89    0.52 
   2   6  -1   14.90    1.28 
   2   6  -1   12.14    0.93 
  -2  -6   1   15.34    1.26 
   1   6  -1   39.88    1.70 
  -1  -6   1   33.31    1.86 
  -1  -6   1   41.30    2.05 
   0   6  -1    3.12    0.58 
   0  -6   1    2.34    0.63 
   0  -6   1    1.46    0.56 
  -1   6  -1   19.66    1.19 
   1  -6   1   15.26    1.27 
   1  -6   1   19.74    1.38 
  -2   6  -1    4.94    0.77 
   2  -6   1    3.72    0.79 
   2  -6   1    4.03    0.86 
  -3   6  -1   94.08    3.32 
   3  -6   1   94.43    3.48 
   3  -6   1   95.71    3.64 
  -4   6  -1   10.81    1.21 
   4  -6   1    9.86    1.27 
   4  -6   1    9.28    1.15 
  -5   6  -1   15.83    1.30 
   5  -6   1   17.70    1.84 
   5  -6   1   15.86    1.36 
  -6   6  -1    0.62    0.56 
   6  -6   1   -0.61    0.72 
   6  -6   1   -0.53    0.52 
  -7   6  -1    0.94    0.62 
   7  -6   1    1.50    0.83 
   7  -6   1    0.09    0.63 
  -8   6  -1    5.71    1.09 
   8  -6   1    8.43    1.41 
   8  -6   1    6.26    1.26 
  -9   6  -1    2.74    0.90 
   9  -6   1    1.90    1.11 
  11   5  -1    2.12    1.18 
 -11  -5   1    2.84    1.08 
 -11  -5   1    1.29    1.04 
  10   5  -1    0.87    1.07 
 -10  -5   1    1.42    0.96 
 -10  -5   1    0.98    0.90 
   9   5  -1    0.79    0.74 
  -9  -5   1   -0.21    0.67 
  -9  -5   1   -0.33    0.69 
   8   5  -1    1.49    0.86 
  -8  -5   1    1.47    0.63 
  -8  -5   1    1.51    0.69 
   7   5  -1   28.65    2.11 
  -7  -5   1   30.66    1.65 
  -7  -5   1   27.08    1.95 
   6   5  -1    0.28    0.55 
  -6  -5   1    0.10    0.44 
  -6  -5   1    0.51    0.43 
   5   5  -1    2.38    0.66 
  -5  -5   1    1.43    0.54 
  -5  -5   1    2.73    0.51 
   4   5  -1   54.68    2.54 
  -4  -5   1   57.18    2.54 
   3   5  -1   11.18    1.25 
  -3  -5   1   13.72    1.13 
   2   5  -1    6.30    0.66 
   2   5  -1    7.19    0.96 
  -2  -5   1    7.56    1.02 
   1   5  -1    2.73    0.49 
  -1  -5   1    3.36    0.68 
  -1  -5   1    3.70    0.72 
   0   5  -1    0.13    0.25 
   0  -5   1    0.09    0.33 
   0  -5   1   -0.36    0.27 
  -1   5  -1   17.38    1.06 
   1  -5   1   15.55    1.21 
   1  -5   1   18.29    1.18 
  -2   5  -1   72.17    2.56 
   2  -5   1   72.53    2.63 
   2  -5   1   68.89    2.77 
  -3   5  -1    1.76    0.45 
   3  -5   1    1.81    0.61 
   3  -5   1    0.61    0.41 
  -4   5  -1    0.02    0.34 
   4  -5   1    0.51    0.48 
   4  -5   1   -0.33    0.48 
  -5   5  -1   13.79    0.96 
  -5   5  -1   14.25    1.12 
   5  -5   1   15.90    1.33 
   5  -5   1   13.99    1.19 
  -6   5  -1   41.59    1.99 
  -6   5  -1   36.27    1.75 
   6  -5   1   42.17    2.18 
   6  -5   1   43.49    2.28 
  -7   5  -1   40.68    1.97 
  -7   5  -1   40.31    2.02 
   7  -5   1   41.31    2.36 
   7  -5   1   40.60    2.30 
  -8   5  -1    3.84    0.85 
  -8   5  -1    2.44    0.81 
   8  -5   1    4.04    1.11 
   8  -5   1    2.46    0.88 
  -9   5  -1    0.12    0.73 
  -9   5  -1    1.51    0.79 
   9  -5   1   -0.28    0.87 
   9  -5   1    0.59    0.88 
 -10   5  -1    0.26    0.82 
  11   4  -1   -0.91    1.02 
 -11  -4   1    1.25    0.96 
 -11  -4   1    0.33    0.94 
  10   4  -1    0.78    0.93 
 -10  -4   1    0.99    0.87 
 -10  -4   1    1.03    0.95 
   9   4  -1   20.71    2.33 
  -9  -4   1   20.99    1.64 
  -9  -4   1   22.60    2.39 
   8   4  -1    0.33    0.56 
  -8  -4   1    0.06    0.58 
  -8  -4   1    0.59    0.60 
   7   4  -1   20.45    1.69 
  -7  -4   1   20.88    1.41 
  -7  -4   1   19.76    1.56 
   6   4  -1   12.52    1.46 
  -6  -4   1   10.60    1.38 
  -6  -4   1   12.73    1.18 
   5   4  -1    3.38    0.71 
  -5  -4   1    4.28    0.80 
  -5  -4   1    2.72    0.50 
   4   4  -1    3.93    0.74 
  -4  -4   1    6.31    0.95 
  -4  -4   1    4.72    0.54 
   3   4  -1   36.10    1.74 
  -3  -4   1   36.34    1.76 
   2   4  -1   22.73    1.27 
  -2  -4   1   22.07    1.31 
   1   4  -1   26.17    1.11 
  -1  -4   1   25.38    1.36 
  -1  -4   1   25.29    1.31 
   0   4  -1   38.52    1.48 
   0  -4   1   36.17    1.67 
   0  -4   1   40.81    1.64 
  -1   4  -1   97.37    2.96 
   1  -4   1   98.25    3.05 
   1  -4   1   97.26    3.19 
  -2   4  -1  122.32    3.67 
   2  -4   1  125.43    3.94 
   2  -4   1  133.19    3.83 
  -3   4  -1    3.76    0.58 
   3  -4   1    3.57    0.63 
   3  -4   1    2.84    0.63 
  -4   4  -1    2.25    0.41 
  -4   4  -1    2.14    0.50 
   4  -4   1    1.99    0.55 
   4  -4   1    1.86    0.55 
  -5   4  -1   23.55    1.21 
  -5   4  -1   18.59    1.20 
   5  -4   1   21.55    1.51 
   5  -4   1   24.88    1.53 
  -6   4  -1   20.27    1.27 
  -6   4  -1   19.71    1.24 
   6  -4   1   21.50    1.53 
   6  -4   1   23.97    1.61 
  -7   4  -1   23.22    1.46 
  -7   4  -1   24.65    1.43 
   7  -4   1   21.67    1.66 
   7  -4   1   25.06    1.77 
  -8   4  -1    5.18    0.84 
  -8   4  -1    4.03    0.84 
   8  -4   1    6.54    1.26 
   8  -4   1    5.17    1.05 
  -9   4  -1    0.96    0.63 
   9  -4   1    0.51    0.78 
   9  -4   1    1.34    0.95 
 -10   4  -1    2.30    0.98 
  10  -4   1    2.80    1.21 
 -11   4  -1   -0.78    0.86 
  11   3  -1   10.94    1.88 
  11   3  -1   15.59    2.19 
 -11  -3   1   14.16    1.75 
  10   3  -1    5.38    1.41 
 -10  -3   1    6.81    1.23 
 -10  -3   1    4.87    1.08 
   9   3  -1    1.65    0.77 
  -9  -3   1    1.22    0.80 
  -9  -3   1    1.73    0.81 
   8   3  -1   27.99    2.04 
  -8  -3   1   28.68    1.95 
  -8  -3   1   27.99    1.73 
   7   3  -1   14.04    1.56 
  -7  -3   1   14.04    1.25 
  -7  -3   1   14.99    1.40 
   6   3  -1   72.23    3.02 
  -6  -3   1   73.03    2.90 
  -6  -3   1   66.61    2.51 
   5   3  -1   13.71    1.14 
  -5  -3   1   12.65    1.10 
  -5  -3   1   12.75    0.88 
   4   3  -1    0.61    0.32 
  -4  -3   1    0.75    0.27 
  -4  -3   1    0.70    0.41 
   3   3  -1    0.32    0.28 
  -3  -3   1   -0.20    0.22 
  -3  -3   1    0.05    0.14 
   2   3  -1   22.98    1.19 
  -2  -3   1   25.68    1.27 
   1   3  -1   89.14    2.38 
  -1  -3   1   80.08    2.67 
   0   3  -1    4.77    0.49 
   0  -3   1    4.76    0.62 
   0  -3   1    3.72    0.48 
  -1   3  -1   58.74    1.87 
   1  -3   1   58.04    1.90 
   1  -3   1   56.68    2.04 
  -2   3  -1   45.04    1.62 
   2  -3   1   47.22    1.68 
   2  -3   1   43.88    1.78 
  -3   3  -1   25.24    0.98 
  -3   3  -1   23.07    1.11 
   3  -3   1   22.35    1.24 
   3  -3   1   24.44    1.20 
  -4   3  -1    3.43    0.47 
  -4   3  -1    3.69    0.57 
   4  -3   1    3.59    0.64 
   4  -3   1    4.83    0.77 
  -5   3  -1   18.67    1.05 
  -5   3  -1   16.75    1.03 
   5  -3   1   17.55    1.28 
   5  -3   1   17.35    1.19 
  -6   3  -1    0.38    0.35 
  -6   3  -1    0.19    0.32 
   6  -3   1    0.29    0.46 
   6  -3   1    0.14    0.44 
  -7   3  -1  110.12    3.67 
   7  -3   1  111.93    4.03 
   7  -3   1  107.78    3.94 
  -8   3  -1    9.88    1.24 
   8  -3   1    9.50    1.31 
   8  -3   1   10.31    1.39 
  -9   3  -1   -0.63    0.56 
   9  -3   1   -0.79    0.67 
   9  -3   1    0.59    0.80 
 -10   3  -1    7.07    1.20 
  10  -3   1    6.06    1.32 
  10  -3   1    8.30    1.50 
 -11   3  -1    0.63    1.08 
  11  -3   1    1.93    1.18 
  12   2  -1    2.00    1.22 
  12   2  -1   -0.45    1.33 
 -12  -2   1    1.09    1.18 
  11   2  -1   -0.04    0.97 
  11   2  -1    2.36    1.14 
 -11  -2   1    0.70    0.89 
  10   2  -1    0.43    0.81 
  10   2  -1    0.67    0.87 
 -10  -2   1   -0.09    0.68 
   9   2  -1    3.62    1.05 
  -9  -2   1    3.44    0.93 
   8   2  -1   11.03    1.46 
  -8  -2   1    9.94    1.34 
  -8  -2   1   13.47    1.43 
   7   2  -1    8.57    1.19 
  -7  -2   1    7.19    1.06 
  -7  -2   1    7.68    0.99 
   6   2  -1    2.59    0.65 
  -6  -2   1    2.28    0.52 
  -6  -2   1    3.35    0.77 
   5   2  -1    0.18    0.33 
  -5  -2   1    0.27    0.32 
  -5  -2   1    0.49    0.28 
   4   2  -1   91.19    3.06 
  -4  -2   1   87.49    2.65 
  -4  -2   1   88.65    2.98 
   3   2  -1   73.63    2.44 
  -3  -2   1   69.32    2.38 
  -3  -2   1   69.11    2.10 
   2   2  -1   27.82    1.20 
  -2  -2   1   26.57    1.17 
  -2  -2   1   26.68    0.93 
   1   2  -1  414.27    9.48 
   1   2  -1  402.32    9.72 
  -1  -2   1  419.00    9.80 
   0   2  -1  598.55   13.89 
   0  -2   1  617.57   14.00 
   0  -2   1  610.99   14.13 
  -1   2  -1   17.17    0.74 
   1  -2   1   16.83    0.85 
   1  -2   1   18.82    0.77 
  -2   2  -1   51.41    1.66 
  -2   2  -1   54.32    1.52 
   2  -2   1   51.22    1.82 
   2  -2   1   55.37    1.71 
  -3   2  -1    0.03    0.14 
  -3   2  -1   -0.04    0.16 
   3  -2   1    0.06    0.22 
   3  -2   1    0.44    0.20 
  -4   2  -1   72.04    2.20 
  -4   2  -1   67.19    2.16 
   4  -2   1   67.79    2.49 
   4  -2   1   70.90    2.39 
  -5   2  -1    4.95    0.59 
  -5   2  -1    5.94    0.68 
   5  -2   1    5.42    0.73 
   5  -2   1    6.01    0.88 
  -6   2  -1    4.29    0.66 
   6  -2   1    3.18    0.74 
   6  -2   1    2.82    0.61 
  -7   2  -1    0.11    0.37 
   7  -2   1    0.19    0.43 
   7  -2   1   -0.56    0.45 
  -8   2  -1   23.43    1.54 
   8  -2   1   22.22    1.61 
   8  -2   1   26.33    1.83 
  -9   2  -1   14.74    1.58 
   9  -2   1   14.99    1.63 
   9  -2   1   16.14    1.85 
 -10   2  -1   30.50    2.04 
  10  -2   1   29.58    2.27 
  10  -2   1   31.90    2.18 
 -11   2  -1   22.75    2.23 
  11  -2   1   21.64    2.44 
 -12   2  -1    4.44    1.44 
  12  -2   1    2.22    1.65 
  12   1  -1    7.58    1.55 
  12   1  -1    3.86    1.59 
 -12  -1   1    3.95    1.34 
  11   1  -1    0.12    1.11 
  11   1  -1    4.55    1.36 
 -11  -1   1    1.51    0.92 
  10   1  -1   -1.45    0.68 
  10   1  -1    0.29    0.88 
 -10  -1   1   -0.23    0.70 
   9   1  -1   13.14    1.71 
   9   1  -1   13.44    1.64 
  -9  -1   1   12.54    1.47 
   8   1  -1   36.78    2.25 
   8   1  -1   37.41    2.29 
  -8  -1   1   38.61    1.99 
   7   1  -1    5.13    0.94 
  -7  -1   1    2.82    0.65 
  -7  -1   1    4.68    0.78 
   6   1  -1    4.98    0.88 
  -6  -1   1    5.75    0.93 
  -6  -1   1    4.00    0.68 
   5   1  -1    1.93    0.54 
  -5  -1   1    2.53    0.47 
  -5  -1   1    2.71    0.57 
   4   1  -1  209.71    5.76 
  -4  -1   1  210.88    5.40 
  -4  -1   1  207.49    5.59 
   3   1  -1   29.86    1.35 
  -3  -1   1   32.03    1.19 
  -3  -1   1   32.73    1.32 
   2   1  -1  207.62    5.25 
  -2  -1   1  209.23    5.02 
  -2  -1   1  205.83    5.17 
   1   1  -1   58.75    1.75 
  -1  -1   1   62.08    1.58 
  -1  -1   1   59.60    1.74 
   0   1  -1   17.81    0.64 
   0  -1   1   18.56    0.65 
   0  -1   1   18.56    0.73 
  -1   1  -1  403.78    9.01 
  -1   1  -1  395.81    9.13 
   1  -1   1  393.79    9.27 
  -2   1  -1    8.44    0.45 
  -2   1  -1    8.07    0.43 
   2  -1   1    9.10    0.57 
  -3   1  -1   63.27    1.83 
  -3   1  -1   64.70    1.91 
   3  -1   1   64.76    1.99 
   3  -1   1   64.41    2.14 
  -4   1  -1   16.05    0.83 
   4  -1   1   13.44    0.94 
   4  -1   1   16.10    0.91 
  -5   1  -1    0.23    0.21 
   5  -1   1   -0.10    0.28 
   5  -1   1   -0.26    0.25 
  -6   1  -1    0.07    0.26 
   6  -1   1   -0.36    0.30 
   6  -1   1   -0.03    0.38 
  -7   1  -1    7.97    0.93 
   7  -1   1    6.17    0.98 
   7  -1   1    7.92    1.08 
  -8   1  -1   10.58    1.21 
   8  -1   1    8.49    1.19 
   8  -1   1    9.90    1.40 
  -9   1  -1    0.14    0.52 
   9  -1   1   -0.15    0.60 
   9  -1   1   -0.06    0.63 
 -10   1  -1    0.88    0.69 
  10  -1   1   -0.52    0.82 
  10  -1   1    1.70    0.78 
 -11   1  -1    6.04    1.18 
  11  -1   1    6.89    1.55 
  11  -1   1    6.15    1.29 
 -12   1  -1    7.92    1.64 
  12  -1   1    7.76    1.77 
  12   0  -1    6.42    1.54 
 -12   0   1    6.25    1.44 
  11   0  -1   -0.14    0.92 
  11   0  -1    0.09    1.06 
 -11   0   1   -0.71    0.78 
  10   0  -1    3.41    1.03 
  10   0  -1    3.32    1.12 
 -10   0   1    2.92    0.93 
   9   0  -1   23.88    1.86 
   9   0  -1   14.37    1.82 
  -9   0   1   18.79    1.77 
   8   0  -1    6.56    1.21 
   8   0  -1    6.13    1.06 
  -8   0   1    6.15    0.94 
   7   0  -1   12.93    1.38 
   7   0  -1   14.87    1.29 
  -7   0   1   14.09    1.09 
   6   0  -1    7.12    0.95 
   6   0  -1    6.56    0.95 
  -6   0   1    6.68    0.83 
   5   0  -1   31.92    1.64 
  -5   0   1   31.45    1.41 
   4   0  -1    9.20    0.79 
  -4   0   1   10.70    0.75 
  -4   0   1   10.16    0.69 
   3   0  -1   56.79    1.99 
  -3   0   1   56.73    1.79 
  -3   0   1   58.88    1.86 
   2   0  -1  203.81    5.03 
  -2   0   1  202.02    4.86 
  -2   0   1  195.46    4.85 
   1   0  -1   17.39    0.68 
  -1   0   1   18.10    0.62 
   0   0  -1    9.60    0.39 
   0   0   1    9.53    0.38 
   0   0   1    9.47    0.37 
  -1   0  -1  461.94   10.38 
  -1   0  -1  463.96   10.38 
   1   0   1  452.12   10.49 
  -2   0  -1   82.28    2.14 
   2   0   1   79.47    2.30 
  -3   0  -1  139.94    3.63 
   3   0   1  139.88    3.87 
   3   0   1  144.18    3.72 
  -4   0  -1    6.39    0.62 
   4   0   1    6.59    0.78 
   4   0   1    6.38    0.69 
  -5   0  -1    8.04    0.81 
   5   0   1    5.20    0.69 
   5   0   1    6.01    0.85 
  -6   0  -1   12.69    0.93 
   6   0   1   14.25    1.15 
   6   0   1   13.13    1.02 
  -7   0  -1    0.92    0.39 
   7   0   1    0.70    0.48 
   7   0   1    0.77    0.50 
  -8   0  -1   16.70    1.29 
   8   0   1   18.38    1.86 
   8   0   1   17.26    1.80 
  -9   0  -1    3.87    0.91 
   9   0   1    1.19    0.84 
   9   0   1    1.05    0.73 
 -10   0  -1    3.40    0.87 
  10   0   1    2.77    0.90 
  10   0   1    3.20    1.01 
 -11   0  -1    4.29    1.03 
  11   0   1    4.24    1.25 
  11   0   1    4.87    1.26 
 -12   0  -1    5.98    1.51 
  12   0   1    7.97    1.76 
  12  -1  -1   10.40    1.78 
 -12   1   1    9.55    1.73 
  11  -1  -1    0.86    1.06 
 -11   1   1    0.62    0.89 
  10  -1  -1    1.15    0.78 
  10  -1  -1    1.03    0.92 
 -10   1   1    0.63    0.78 
   9  -1  -1   15.14    1.66 
   9  -1  -1   17.04    1.96 
  -9   1   1   12.42    1.48 
   8  -1  -1   69.93    3.24 
   8  -1  -1   69.04    2.99 
  -8   1   1   69.96    2.84 
   7  -1  -1   19.19    1.44 
   7  -1  -1   20.92    1.55 
  -7   1   1   20.86    1.33 
   6  -1  -1   16.50    1.18 
   6  -1  -1   16.10    1.28 
  -6   1   1   17.26    1.12 
   5  -1  -1   55.18    2.09 
   5  -1  -1   54.07    2.29 
  -5   1   1   54.06    1.99 
   4  -1  -1   70.81    2.50 
   4  -1  -1   66.35    2.21 
  -4   1   1   67.34    2.20 
   3  -1  -1   38.32    1.56 
  -3   1   1   40.61    1.40 
   2  -1  -1   23.75    1.02 
  -2   1   1   24.27    0.87 
  -2   1   1   21.93    0.78 
   1  -1  -1    2.73    0.21 
   1  -1  -1    3.36    0.29 
  -1   1   1    2.59    0.22 
   0  -1  -1   58.01    1.54 
   0  -1  -1   59.29    1.59 
   0   1   1   62.01    1.51 
  -1  -1  -1    0.94    0.15 
  -1  -1  -1    0.93    0.18 
  -1  -1  -1    0.96    0.19 
  -2  -1  -1  284.18    6.76 
  -2  -1  -1  291.06    6.97 
   2   1   1  291.79    6.84 
  -3  -1  -1    7.81    0.50 
  -3  -1  -1    8.76    0.64 
   3   1   1    8.64    0.56 
  -4  -1  -1   32.69    1.29 
  -4  -1  -1   33.31    1.48 
   4   1   1   32.45    1.40 
  -5  -1  -1   27.95    1.29 
   5   1   1   29.76    1.45 
  -6  -1  -1   10.58    0.87 
   6   1   1   12.40    1.22 
   6   1   1   10.55    1.23 
  -7  -1  -1   25.30    1.43 
   7   1   1   23.34    1.58 
   7   1   1   27.57    1.71 
  -8  -1  -1   19.40    1.37 
   8   1   1   19.21    1.53 
   8   1   1   17.12    1.42 
  -9  -1  -1    3.36    0.82 
   9   1   1    3.47    0.96 
   9   1   1    4.29    0.94 
 -10  -1  -1    8.41    1.30 
  10   1   1    7.63    1.42 
  10   1   1    7.20    1.33 
 -11  -1  -1    2.82    0.87 
  11   1   1    2.76    1.18 
  11   1   1    1.57    1.06 
 -12  -1  -1    6.06    1.56 
  12   1   1    6.24    1.56 
  12   1   1    9.64    1.70 
  11  -2  -1    2.67    1.19 
 -11   2   1    2.42    1.08 
  10  -2  -1   26.95    2.15 
  10  -2  -1   28.01    2.22 
 -10   2   1   23.97    1.96 
   9  -2  -1    1.08    0.68 
   9  -2  -1   -0.12    0.76 
  -9   2   1    0.63    0.66 
   8  -2  -1   22.07    1.74 
   8  -2  -1   25.59    1.71 
  -8   2   1   23.03    1.56 
   7  -2  -1   27.37    1.68 
   7  -2  -1   28.47    1.81 
  -7   2   1   28.91    1.59 
   6  -2  -1   64.74    2.74 
   6  -2  -1   61.93    2.47 
  -6   2   1   67.70    2.46 
   5  -2  -1   21.66    1.20 
   5  -2  -1   21.12    1.34 
  -5   2   1   20.41    1.11 
   4  -2  -1    0.71    0.33 
  -4   2   1    0.68    0.25 
  -4   2   1    0.91    0.29 
   3  -2  -1   23.79    1.19 
  -3   2   1   21.45    0.93 
  -3   2   1   24.50    0.99 
   2  -2  -1   24.11    1.10 
  -2   2   1   23.91    0.88 
  -2   2   1   21.75    0.89 
   1  -2  -1  489.71   11.26 
  -1   2   1  466.05   11.05 
  -1   2   1  484.26   10.92 
   0  -2  -1   18.28    0.80 
   0  -2  -1   19.93    0.71 
   0   2   1   20.28    0.74 
  -1  -2  -1    6.93    0.46 
  -1  -2  -1    6.98    0.45 
  -1  -2  -1    6.55    0.33 
   1   2   1    6.87    0.39 
  -2  -2  -1  135.88    3.40 
  -2  -2  -1  137.58    3.70 
   2   2   1  139.33    3.63 
  -3  -2  -1   62.72    2.11 
  -3  -2  -1   60.74    1.85 
   3   2   1   62.35    2.05 
  -4  -2  -1  105.20    3.39 
  -4  -2  -1  109.17    3.08 
   4   2   1  111.97    3.34 
  -5  -2  -1   23.39    1.37 
  -5  -2  -1   22.21    1.13 
   5   2   1   21.99    1.27 
  -6  -2  -1   20.63    1.21 
  -6  -2  -1   21.10    1.43 
   6   2   1   23.67    1.42 
  -7  -2  -1   -0.11    0.31 
  -7  -2  -1    0.09    0.37 
   7   2   1    0.64    0.42 
  -8  -2  -1    5.33    0.84 
   8   2   1    3.78    0.95 
   8   2   1    6.26    1.04 
  -9  -2  -1   -0.22    0.51 
   9   2   1   -0.28    0.54 
   9   2   1    0.78    0.63 
 -10  -2  -1    4.81    0.98 
  10   2   1    3.01    0.95 
  10   2   1    3.72    1.00 
 -11  -2  -1   17.41    1.86 
  11   2   1   12.19    1.87 
  11   2   1   10.70    1.68 
 -12  -2  -1    0.00    1.07 
  12   2   1    3.74    1.63 
  12   2   1    0.93    1.18 
  11  -3  -1    3.21    1.33 
 -11   3   1    3.61    1.10 
  10  -3  -1    6.19    1.33 
 -10   3   1    7.58    1.25 
   9  -3  -1   -0.17    0.65 
   9  -3  -1    0.92    0.81 
  -9   3   1    1.76    0.70 
   8  -3  -1    1.69    0.77 
   8  -3  -1    2.16    0.71 
  -8   3   1    1.64    0.67 
   7  -3  -1   67.73    2.84 
   7  -3  -1   69.54    3.06 
  -7   3   1   70.75    2.70 
   6  -3  -1    4.71    0.83 
  -6   3   1    7.50    0.89 
   5  -3  -1    4.43    0.79 
  -5   3   1    4.43    0.63 
  -5   3   1    3.29    0.55 
   4  -3  -1   20.23    1.28 
  -4   3   1   19.20    0.99 
  -4   3   1   18.35    0.96 
   3  -3  -1   98.93    3.17 
  -3   3   1   94.33    2.82 
  -3   3   1   98.79    2.76 
   2  -3  -1  211.98    5.63 
  -2   3   1  211.27    5.12 
  -2   3   1  210.68    5.34 
   1  -3  -1   36.92    1.44 
  -1   3   1   35.40    1.30 
   0  -3  -1  123.89    3.34 
   0  -3  -1  125.48    3.47 
   0   3   1  127.81    3.33 
  -1  -3  -1    1.32    0.32 
  -1  -3  -1    1.80    0.37 
   1   3   1    1.42    0.26 
  -2  -3  -1    1.25    0.35 
  -2  -3  -1    0.93    0.29 
  -2  -3  -1    0.36    0.16 
  -3  -3  -1   22.54    0.93 
  -3  -3  -1   22.86    1.20 
   3   3   1   23.53    1.16 
  -4  -3  -1    7.95    0.95 
  -4  -3  -1    6.87    0.67 
   4   3   1    8.65    0.92 
  -5  -3  -1   20.64    1.11 
  -5  -3  -1   21.57    1.37 
   5   3   1   22.54    1.33 
  -6  -3  -1   17.82    1.30 
  -6  -3  -1   17.70    1.13 
   6   3   1   19.40    1.35 
  -7  -3  -1    1.89    0.67 
  -7  -3  -1    1.95    0.55 
   7   3   1    1.37    0.55 
  -8  -3  -1    0.26    0.43 
  -8  -3  -1    0.01    0.44 
   8   3   1    0.31    0.56 
  -9  -3  -1    2.86    0.81 
   9   3   1    3.32    0.91 
 -10  -3  -1    0.30    0.61 
  10   3   1    0.78    0.80 
  10   3   1    0.61    0.76 
 -11  -3  -1    1.69    0.94 
  11   3   1    2.31    1.07 
  11   3   1    0.63    1.06 
 -12  -3  -1   17.43    2.12 
  12   3   1   14.31    2.24 
  12   3   1   18.30    2.30 
  11  -4  -1   16.06    2.17 
 -11   4   1   16.24    1.89 
  10  -4  -1    0.73    0.91 
 -10   4   1    0.38    0.78 
   9  -4  -1    7.65    1.34 
  -9   4   1    8.42    1.34 
   8  -4  -1    5.50    1.09 
  -8   4   1    4.75    0.92 
   7  -4  -1   17.98    1.56 
  -7   4   1   17.83    1.30 
   6  -4  -1    0.04    0.49 
   6  -4  -1   -0.38    0.40 
  -6   4   1    0.58    0.41 
  -6   4   1    0.82    0.45 
   5  -4  -1    7.59    1.10 
  -5   4   1    8.61    0.94 
  -5   4   1    6.88    0.78 
   4  -4  -1    3.03    0.68 
  -4   4   1    2.65    0.53 
  -4   4   1    2.13    0.41 
   3  -4  -1   58.73    2.14 
   3  -4  -1   59.73    2.38 
  -3   4   1   60.02    1.89 
  -3   4   1   59.17    2.11 
   2  -4  -1  205.73    5.37 
   2  -4  -1  203.44    5.62 
  -2   4   1  199.82    5.33 
   1  -4  -1    0.00    0.20 
   1  -4  -1    0.03    0.25 
  -1   4   1    0.28    0.24 
   0  -4  -1    7.34    0.75 
   0  -4  -1    7.23    0.75 
   0   4   1    5.66    0.60 
  -1  -4  -1    1.31    0.38 
  -1  -4  -1    0.54    0.30 
   1   4   1    1.05    0.26 
  -2  -4  -1    9.17    0.94 
  -2  -4  -1    9.80    1.01 
  -3  -4  -1    1.37    0.43 
  -3  -4  -1    1.57    0.29 
   3   4   1    2.36    0.47 
  -4  -4  -1   18.26    0.94 
  -4  -4  -1   17.63    1.22 
   4   4   1   20.07    1.23 
  -5  -4  -1   21.66    1.14 
  -5  -4  -1   22.99    1.49 
   5   4   1   23.86    1.48 
  -6  -4  -1    2.33    0.65 
  -6  -4  -1    2.11    0.53 
   6   4   1    1.91    0.60 
  -7  -4  -1    0.21    0.39 
  -7  -4  -1    1.02    0.45 
   7   4   1    1.03    0.57 
  -8  -4  -1    0.04    0.50 
  -8  -4  -1    0.90    0.54 
   8   4   1   -0.20    0.54 
  -9  -4  -1    0.11    0.52 
  -9  -4  -1    1.22    0.60 
   9   4   1    1.42    0.76 
 -10  -4  -1    2.27    0.94 
 -10  -4  -1    2.52    0.96 
  10   4   1    2.52    0.95 
 -11  -4  -1    1.75    0.99 
  11   4   1    3.32    1.14 
  11   4   1    4.61    1.31 
 -12  -4  -1    7.53    1.55 
  12   4   1    5.82    1.64 
  12   4   1    5.17    1.47 
  10  -5  -1   -0.72    0.95 
 -10   5   1    1.32    0.96 
   9  -5  -1   -0.76    0.73 
  -9   5   1   -0.20    0.65 
   8  -5  -1   20.70    2.17 
  -8   5   1   23.64    1.71 
  -8   5   1   21.90    1.56 
   7  -5  -1   13.22    1.70 
  -7   5   1   12.82    1.29 
  -7   5   1   13.33    1.33 
   6  -5  -1   60.09    2.90 
  -6   5   1   64.55    2.44 
  -6   5   1   62.28    2.51 
   5  -5  -1    0.12    0.44 
  -5   5   1    0.47    0.41 
  -5   5   1    0.54    0.37 
   4  -5  -1    0.80    0.49 
   4  -5  -1    1.49    0.51 
  -4   5   1    1.28    0.38 
  -4   5   1    1.06    0.37 
   3  -5  -1    0.13    0.37 
   3  -5  -1    1.07    0.42 
  -3   5   1    0.28    0.31 
   2  -5  -1    3.08    0.64 
   2  -5  -1    2.62    0.58 
  -2   5   1    2.98    0.54 
   1  -5  -1   11.54    0.95 
   1  -5  -1   11.18    0.87 
  -1   5   1    9.42    0.78 
   0  -5  -1    0.53    0.34 
   0  -5  -1    1.33    0.41 
   0   5   1    1.28    0.36 
  -1  -5  -1   87.69    2.98 
  -1  -5  -1   90.55    3.07 
   1   5   1   92.55    2.79 
  -2  -5  -1    4.13    0.73 
  -2  -5  -1    4.39    0.73 
   2   5   1    4.42    0.55 
  -3  -5  -1   11.81    1.02 
   3   5   1   13.19    1.04 
  -4  -5  -1   29.18    1.68 
  -4  -5  -1   28.33    1.22 
   4   5   1   31.26    1.68 
  -5  -5  -1    0.07    0.34 
  -5  -5  -1    0.10    0.32 
   5   5   1   -0.08    0.32 
  -6  -5  -1   19.65    1.24 
  -6  -5  -1   20.75    1.51 
   6   5   1   23.98    1.63 
  -7  -5  -1    4.91    0.97 
  -7  -5  -1    6.40    0.87 
   7   5   1    6.86    1.15 
  -8  -5  -1   21.16    1.76 
  -8  -5  -1   21.94    1.53 
   8   5   1   22.64    2.27 
  -9  -5  -1    1.09    0.68 
  -9  -5  -1    0.60    0.74 
   9   5   1    0.63    0.72 
 -10  -5  -1    0.22    0.74 
 -10  -5  -1    1.19    0.76 
  10   5   1    0.04    0.89 
 -11  -5  -1    1.66    0.94 
 -11  -5  -1    0.13    0.87 
  11   5   1    0.26    1.07 
  10  -6  -1    1.24    1.18 
   9  -6  -1    6.83    1.45 
  -9   6   1    5.88    1.23 
   8  -6  -1    0.43    0.77 
  -8   6   1    0.37    0.67 
  -8   6   1    1.52    0.72 
   7  -6  -1   17.92    2.01 
  -7   6   1   16.48    1.61 
  -7   6   1   15.65    1.49 
   6  -6  -1    3.98    0.89 
  -6   6   1    7.62    1.10 
  -6   6   1    7.07    0.90 
   5  -6  -1   -0.07    0.44 
   5  -6  -1    0.61    0.59 
  -5   6   1    0.04    0.41 
  -5   6   1   -0.13    0.48 
   4  -6  -1    0.28    0.42 
  -4   6   1    0.27    0.46 
   3  -6  -1   90.75    3.37 
   3  -6  -1   88.51    3.18 
  -3   6   1   83.98    3.05 
   2  -6  -1    0.84    0.43 
   2  -6  -1    0.35    0.41 
  -2   6   1    0.07    0.29 
   1  -6  -1   65.23    2.59 
   1  -6  -1   68.09    2.71 
  -1   6   1   71.20    2.54 
   0  -6  -1   37.58    1.88 
   0  -6  -1   33.95    1.74 
   0   6   1   37.88    1.68 
  -1  -6  -1    0.44    0.44 
  -1  -6  -1    1.15    0.46 
   1   6   1    0.65    0.33 
  -2  -6  -1    1.03    0.44 
  -2  -6  -1    0.80    0.46 
   2   6   1    0.63    0.35 
  -3  -6  -1   35.07    1.89 
   3   6   1   34.73    1.87 
  -4  -6  -1   16.07    1.64 
   4   6   1   13.45    1.18 
  -5  -6  -1    8.71    1.28 
  -5  -6  -1    8.37    0.85 
   5   6   1    9.15    1.23 
  -6  -6  -1   16.74    1.78 
  -6  -6  -1   14.49    1.08 
   6   6   1   15.00    1.66 
  -7  -6  -1   37.63    2.26 
  -7  -6  -1   40.62    1.86 
   7   6   1   35.97    2.32 
  -8  -6  -1    0.53    0.58 
  -8  -6  -1   -0.10    0.57 
   8   6   1   -0.26    0.64 
  -9  -6  -1    0.27    0.59 
  -9  -6  -1    0.55    0.72 
   9   6   1    0.32    0.79 
 -10  -6  -1   17.28    1.72 
 -10  -6  -1   17.66    2.40 
  10   6   1   18.51    2.30 
 -11  -6  -1    3.68    1.25 
 -11  -6  -1    0.63    0.97 
  11   6   1    3.93    1.42 
   9  -7  -1    0.43    0.94 
  -9   7   1    0.19    0.82 
   8  -7  -1    0.23    0.76 
  -8   7   1   -0.80    0.70 
   7  -7  -1    4.70    1.12 
  -7   7   1    5.79    1.03 
   6  -7  -1    0.52    0.65 
  -6   7   1    0.83    0.66 
   5  -7  -1    0.50    0.63 
   5  -7  -1    0.14    0.59 
  -5   7   1    0.17    0.52 
   4  -7  -1   58.91    2.69 
   4  -7  -1   62.98    2.91 
  -4   7   1   57.70    2.59 
   3  -7  -1    6.74    1.06 
   3  -7  -1    6.14    1.04 
  -3   7   1    7.18    1.00 
   2  -7  -1    8.69    1.18 
   2  -7  -1    6.19    1.01 
  -2   7   1    7.15    0.96 
   1  -7  -1   -0.16    0.39 
   1  -7  -1   -0.23    0.41 
  -1   7   1    0.36    0.27 
   0  -7  -1   -0.10    0.35 
   0  -7  -1    0.04    0.42 
   0   7   1    0.50    0.29 
  -1  -7  -1    9.79    1.16 
  -1  -7  -1   13.47    1.47 
   1   7   1   11.13    0.90 
  -2  -7  -1    0.69    0.57 
  -2  -7  -1    0.57    0.32 
   2   7   1    0.61    0.42 
  -3  -7  -1   23.70    1.66 
   3   7   1   22.03    1.60 
  -4  -7  -1    1.88    0.72 
   4   7   1    1.19    0.55 
  -5  -7  -1    5.86    1.11 
   5   7   1    4.50    0.90 
  -6  -7  -1    5.63    0.83 
  -6  -7  -1    9.32    1.43 
   6   7   1    8.78    1.35 
  -7  -7  -1    0.47    0.58 
  -7  -7  -1   -0.26    0.58 
   7   7   1    0.45    0.67 
  -8  -7  -1   15.93    1.97 
  -8  -7  -1   19.31    1.51 
   8   7   1   18.16    2.07 
  -9  -7  -1   15.46    2.10 
  -9  -7  -1   14.47    1.54 
   9   7   1   12.08    1.83 
 -10  -7  -1    0.45    0.95 
 -10  -7  -1    1.21    0.98 
  10   7   1    0.55    1.10 
   8  -8  -1   26.09    2.30 
  -8   8   1   23.85    2.04 
   7  -8  -1    1.63    0.94 
  -7   8   1    2.92    1.01 
   6  -8  -1   10.64    1.51 
  -6   8   1    9.77    1.39 
   5  -8  -1   10.08    1.49 
   5  -8  -1   10.10    1.49 
  -5   8   1   11.00    1.45 
   4  -8  -1    3.69    1.06 
   4  -8  -1    1.16    0.86 
  -4   8   1    1.59    0.71 
   3  -8  -1   16.83    1.51 
   3  -8  -1   16.59    1.75 
  -3   8   1   17.85    1.47 
   2  -8  -1   24.75    1.75 
   2  -8  -1   26.42    1.83 
  -2   8   1   21.49    1.49 
   1  -8  -1   24.73    1.76 
   1  -8  -1   25.16    1.75 
  -1   8   1   23.55    1.53 
   0  -8  -1   24.06    1.69 
   0  -8  -1   24.28    1.73 
   0   8   1   22.48    1.45 
  -1  -8  -1    2.38    0.68 
  -1  -8  -1    3.77    0.90 
   1   8   1    3.83    0.69 
  -2  -8  -1    0.53    0.63 
  -2  -8  -1    1.03    0.52 
   2   8   1    0.25    0.39 
  -3  -8  -1    5.96    1.14 
   3   8   1    4.24    0.68 
   3   8   1    3.17    0.98 
  -4  -8  -1   25.47    1.92 
   4   8   1   26.03    1.92 
  -5  -8  -1    7.94    1.44 
   5   8   1    6.61    1.25 
  -6  -8  -1    4.19    1.08 
   6   8   1    2.17    0.90 
  -7  -8  -1    7.03    1.45 
   7   8   1    6.72    1.31 
  -8  -8  -1    3.40    1.04 
   8   8   1    2.44    0.99 
  -9  -8  -1   28.99    2.38 
   9   8   1   23.38    2.62 
 -10  -8  -1    1.18    0.91 
  10   8   1   -0.09    1.02 
   7  -9  -1    1.20    0.99 
  -7   9   1    1.55    1.02 
   6  -9  -1    3.39    1.21 
  -6   9   1    3.11    1.00 
   5  -9  -1    9.85    1.43 
  -5   9   1    6.25    1.33 
   4  -9  -1   34.93    2.36 
   4  -9  -1   35.91    2.43 
  -4   9   1   36.11    2.31 
   3  -9  -1   19.05    1.97 
   3  -9  -1   18.65    1.97 
  -3   9   1   18.13    1.82 
   2  -9  -1    2.02    0.72 
   2  -9  -1    1.90    0.88 
  -2   9   1    1.82    0.63 
   1  -9  -1    1.22    0.76 
   1  -9  -1    1.63    0.74 
  -1   9   1    0.44    0.49 
   0  -9  -1    8.61    1.27 
   0  -9  -1    4.75    0.97 
   0   9   1    5.41    0.91 
  -1  -9  -1   86.77    3.76 
  -1  -9  -1   87.03    3.80 
   1   9   1   87.30    3.36 
  -2  -9  -1   17.72    1.91 
  -2  -9  -1   13.35    1.73 
   2   9   1   15.51    1.26 
  -3  -9  -1   22.99    1.91 
   3   9   1   22.93    1.56 
   3   9   1   25.63    2.14 
  -4  -9  -1    3.33    1.03 
   4   9   1    4.44    1.06 
  -5  -9  -1   17.27    2.12 
   5   9   1   20.09    2.25 
  -6  -9  -1    1.91    0.84 
   6   9   1    0.63    0.87 
  -7  -9  -1    4.68    1.37 
   7   9   1    1.47    0.99 
  -8  -9  -1    2.41    1.37 
   8   9   1   -0.06    1.11 
  -9  -9  -1    0.55    0.97 
   9   9   1    2.44    1.16 
   6 -10  -1    2.36    1.23 
  -6  10   1    0.83    1.03 
   5 -10  -1    6.58    1.36 
  -5  10   1    9.18    1.54 
   4 -10  -1   21.64    2.29 
  -4  10   1   29.98    2.26 
   3 -10  -1    7.78    1.40 
   3 -10  -1    7.19    1.26 
  -3  10   1    7.12    1.32 
   2 -10  -1   -0.64    0.84 
   2 -10  -1   -0.30    0.74 
  -2  10   1   -0.10    0.67 
   1 -10  -1    3.91    1.13 
   1 -10  -1    8.74    1.42 
  -1  10   1    5.49    1.10 
   0 -10  -1    8.66    1.32 
   0 -10  -1    8.30    1.57 
   0  10   1    7.80    1.22 
  -1 -10  -1    3.73    1.12 
  -1 -10  -1    1.67    0.85 
   1  10   1    2.36    0.82 
  -2 -10  -1    7.44    1.31 
  -2 -10  -1    9.57    1.55 
   2  10   1    9.83    1.25 
  -3 -10  -1   16.74    2.08 
   3  10   1   17.73    1.50 
   3  10   1   21.57    2.39 
  -4 -10  -1   -0.01    0.85 
   4  10   1    0.35    0.95 
  -5 -10  -1    3.66    1.27 
   5  10   1    2.83    1.15 
  -6 -10  -1    1.40    1.03 
   6  10   1   -0.17    0.91 
  -7 -10  -1   -0.26    1.18 
   7  10   1    1.22    1.14 
  -8 -10  -1    0.81    1.33 
   8  10   1    1.75    1.27 
   4 -11  -1    3.06    1.14 
  -4  11   1    4.45    1.34 
   3 -11  -1    3.31    1.25 
  -3  11   1    4.16    1.11 
   2 -11  -1   -0.32    1.04 
   2 -11  -1    0.31    1.01 
  -2  11   1    1.34    0.88 
   1 -11  -1   -0.63    0.79 
   1 -11  -1    2.19    1.11 
  -1  11   1    1.12    0.78 
   0 -11  -1    0.66    1.07 
   0 -11  -1    2.05    0.94 
   0  11   1    4.67    1.01 
  -1 -11  -1   19.58    2.34 
  -1 -11  -1   14.74    1.94 
   1  11   1   18.87    1.92 
  -2 -11  -1   19.68    2.33 
   2  11   1   21.96    1.80 
  -3 -11  -1   -0.84    1.00 
   3  11   1    2.94    0.84 
   3  11   1    0.52    1.32 
  -4 -11  -1    4.12    1.53 
   4  11   1    6.11    1.68 
  -5 -11  -1    2.65    1.41 
   5  11   1    2.02    1.23 
  -6 -11  -1    3.27    1.42 
   6  11   1    2.51    1.12 
   2 -12  -1    5.31    1.37 
  -2  12   1    9.30    1.58 
   1 -12  -1   -0.34    1.35 
   1 -12  -1   -0.71    0.90 
  -1  12   1    2.08    1.01 
   0 -12  -1    0.32    1.10 
   0 -12  -1    2.90    1.56 
   0  12   1    3.37    1.04 
  -1 -12  -1    2.09    1.37 
  -1 -12  -1    1.88    1.05 
   1  12   1    4.93    1.19 
  -2 -12  -1    0.12    1.28 
   2  12   1   -0.21    1.59 
   2  12   1    1.21    0.97 
  -3 -12  -1   11.55    2.11 
   3  12   1   10.38    2.07 
  -4 -12  -1    8.81    2.01 
   4  12   1    6.17    1.83 
   4  11  -2   10.03    2.11 
  -4 -11   2    6.99    1.92 
   3  11  -2    1.49    1.47 
  -3 -11   2    0.74    1.39 
   2  11  -2    9.02    1.52 
   2  11  -2   12.42    2.15 
  -2 -11   2   10.58    2.04 
   1  11  -2    3.67    1.58 
   1  11  -2    5.93    1.26 
  -1 -11   2    5.40    1.74 
   0  11  -2   -0.22    1.45 
   0  11  -2    2.54    1.09 
   0 -11   2    2.69    1.45 
  -1  11  -2    1.04    1.04 
   1 -11   2    3.08    1.45 
   1 -11   2    1.53    1.00 
  -2  11  -2    2.25    1.13 
   2 -11   2    1.01    1.13 
   2 -11   2   -0.06    1.45 
  -3  11  -2    2.25    1.17 
   3 -11   2    0.89    1.14 
   3 -11   2    2.02    1.42 
   6  10  -2    3.53    1.63 
  -6 -10   2    3.67    1.14 
   5  10  -2    0.75    1.37 
  -5 -10   2    0.56    1.37 
   4  10  -2    0.55    1.23 
  -4 -10   2    2.77    1.26 
   3  10  -2    0.94    1.24 
  -3 -10   2    2.57    1.28 
   2  10  -2    2.45    0.92 
   2  10  -2    2.71    1.33 
  -2 -10   2    1.76    1.18 
   1  10  -2    0.57    0.75 
   1  10  -2   -0.74    1.12 
  -1 -10   2   -0.66    0.96 
   0  10  -2    8.81    1.38 
   0 -10   2   10.58    1.86 
  -1  10  -2    4.68    1.22 
   1 -10   2    4.81    1.36 
   1 -10   2    2.82    1.08 
  -2  10  -2    1.83    0.99 
   2 -10   2    1.13    1.19 
   2 -10   2   -0.03    0.84 
  -3  10  -2   14.16    1.86 
   3 -10   2   12.49    1.68 
   3 -10   2   13.38    2.04 
  -4  10  -2    0.26    0.91 
   4 -10   2    1.12    0.98 
   4 -10   2    1.99    1.39 
  -5  10  -2    0.17    0.94 
   5 -10   2    0.36    1.40 
  -8  -9   2    5.90    1.44 
   7   9  -2    1.26    1.37 
  -7  -9   2    2.34    1.18 
   6   9  -2    2.78    1.46 
  -6  -9   2    4.65    1.27 
   5   9  -2    6.70    1.57 
  -5  -9   2    3.11    1.17 
   4   9  -2    0.20    1.01 
  -4  -9   2   -0.85    0.79 
   3   9  -2    4.98    1.36 
   3   9  -2    3.56    0.90 
  -3  -9   2    6.79    1.52 
   2   9  -2    2.15    0.83 
   2   9  -2    2.43    1.03 
  -2  -9   2    2.24    1.07 
   1   9  -2    2.34    0.84 
   1   9  -2    4.48    1.23 
  -1  -9   2    4.36    1.14 
   0   9  -2   19.51    1.68 
   0  -9   2   22.67    1.81 
   0  -9   2   23.43    2.06 
  -1   9  -2    0.17    0.62 
   1  -9   2    0.09    0.66 
   1  -9   2    0.44    0.85 
  -2   9  -2    0.79    0.77 
   2  -9   2    0.86    0.73 
   2  -9   2   -0.57    0.82 
  -3   9  -2    1.34    0.81 
   3  -9   2    0.10    0.70 
   3  -9   2   -0.27    1.03 
  -4   9  -2    5.13    1.16 
   4  -9   2    3.64    1.02 
   4  -9   2    2.99    1.15 
  -5   9  -2    0.42    0.89 
   5  -9   2   -0.56    0.95 
   5  -9   2   -1.08    1.13 
  -6   9  -2    0.39    0.90 
   6  -9   2    1.12    1.34 
  -7   9  -2    2.87    1.20 
   7  -9   2    4.58    1.68 
   9   8  -2   14.40    2.05 
  -9  -8   2   14.15    1.94 
   8   8  -2   52.88    3.41 
  -8  -8   2   50.46    3.27 
   7   8  -2    2.53    1.31 
  -7  -8   2    2.92    1.16 
   6   8  -2    7.04    1.60 
  -6  -8   2    9.26    1.45 
   5   8  -2    5.60    1.40 
  -5  -8   2    5.08    1.09 
   4   8  -2   14.74    1.84 
  -4  -8   2   14.77    1.82 
   3   8  -2    0.44    0.81 
  -3  -8   2    2.34    0.82 
   2   8  -2    1.80    0.63 
   2   8  -2    4.39    1.03 
  -2  -8   2    2.15    0.84 
   1   8  -2   75.41    3.35 
   1   8  -2   64.77    2.81 
  -1  -8   2   66.56    3.29 
   0   8  -2   35.11    1.97 
   0  -8   2   32.90    2.25 
   0  -8   2   30.50    1.99 
  -1   8  -2    0.10    0.50 
   1  -8   2   -0.08    0.68 
   1  -8   2   -0.26    0.50 
  -2   8  -2    4.63    0.98 
   2  -8   2    3.46    1.04 
   2  -8   2    2.65    0.72 
  -3   8  -2    0.76    0.67 
   3  -8   2   -0.08    0.81 
   3  -8   2    0.79    0.69 
  -4   8  -2    1.26    0.75 
   4  -8   2    0.47    0.82 
   4  -8   2   -0.45    0.72 
  -5   8  -2    0.92    0.77 
   5  -8   2   -0.13    0.74 
   5  -8   2    0.34    0.88 
  -6   8  -2    0.96    0.85 
   6  -8   2    0.47    0.97 
  -7   8  -2    0.50    0.91 
   7  -8   2    1.76    1.31 
  -8   8  -2    6.43    1.39 
   8  -8   2    6.68    1.73 
   9   7  -2   -0.47    1.07 
  -9  -7   2    0.27    0.86 
   8   7  -2    7.79    1.61 
  -8  -7   2    7.06    1.47 
   7   7  -2    2.45    1.03 
  -7  -7   2    3.29    0.90 
   6   7  -2   17.11    2.09 
  -6  -7   2   12.76    1.74 
   5   7  -2    9.61    1.53 
  -5  -7   2    8.74    1.41 
   4   7  -2   13.64    1.68 
  -4  -7   2   14.46    1.75 
   3   7  -2   -0.05    0.65 
  -3  -7   2    0.71    0.63 
   2   7  -2    7.20    0.92 
   2   7  -2   10.09    1.29 
  -2  -7   2    8.81    1.32 
   1   7  -2    0.32    0.45 
   1   7  -2    0.32    0.64 
  -1  -7   2    0.46    0.54 
   0   7  -2    0.96    0.47 
   0  -7   2    0.49    0.54 
   0  -7   2    0.63    0.52 
  -1   7  -2   51.86    2.31 
   1  -7   2   50.78    2.66 
   1  -7   2   53.89    2.47 
  -2   7  -2    0.19    0.43 
   2  -7   2    0.63    0.49 
   2  -7   2    1.09    0.67 
  -3   7  -2   13.03    1.40 
   3  -7   2   14.52    1.80 
   3  -7   2   12.07    1.40 
  -4   7  -2   16.22    1.59 
   4  -7   2   14.89    1.62 
   4  -7   2   15.60    1.84 
  -5   7  -2    1.03    0.64 
   5  -7   2    0.30    0.78 
   5  -7   2    0.25    0.58 
  -6   7  -2    1.38    0.71 
   6  -7   2    1.86    0.76 
   6  -7   2    1.10    0.90 
  -7   7  -2    5.15    1.06 
   7  -7   2    6.24    1.50 
  -8   7  -2    4.05    1.11 
   8  -7   2    2.82    1.19 
  -9   7  -2    2.88    1.10 
   9  -7   2   -1.64    1.28 
  10   6  -2   -0.03    1.09 
 -10  -6   2   -1.27    0.97 
 -10  -6   2   -0.81    0.89 
   9   6  -2    1.45    1.18 
  -9  -6   2    1.28    0.88 
  -9  -6   2    0.40    0.78 
   8   6  -2   -0.18    0.76 
  -8  -6   2   -0.49    0.69 
  -8  -6   2    0.08    0.64 
   7   6  -2    6.04    1.28 
  -7  -6   2    6.61    1.34 
  -7  -6   2    3.95    0.84 
   6   6  -2    3.02    0.96 
  -6  -6   2    4.16    0.95 
  -6  -6   2    2.16    0.67 
   5   6  -2    3.03    0.97 
  -5  -6   2    3.44    0.62 
  -5  -6   2    1.72    0.62 
   4   6  -2   67.65    3.08 
  -4  -6   2   65.82    3.01 
   3   6  -2  146.12    4.84 
  -3  -6   2  144.51    5.01 
   2   6  -2    8.52    1.17 
   2   6  -2    7.12    0.84 
  -2  -6   2    7.04    1.09 
   1   6  -2    5.99    0.94 
   1   6  -2    6.32    0.83 
  -1  -6   2    6.41    1.01 
   0   6  -2   15.87    1.07 
   0  -6   2   16.27    1.33 
   0  -6   2   13.51    1.39 
  -1   6  -2   17.29    1.16 
   1  -6   2   15.70    1.29 
   1  -6   2   17.79    1.41 
  -2   6  -2    1.27    0.46 
   2  -6   2    1.44    0.60 
   2  -6   2    1.98    0.68 
  -3   6  -2   86.70    3.13 
   3  -6   2   89.82    3.56 
   3  -6   2   75.96    3.11 
  -4   6  -2   53.10    2.36 
   4  -6   2   52.26    2.40 
   4  -6   2   54.98    2.75 
  -5   6  -2    7.65    1.10 
   5  -6   2    5.70    1.13 
   5  -6   2    3.86    0.84 
  -6   6  -2   21.37    1.65 
   6  -6   2   24.44    2.04 
   6  -6   2   24.31    1.71 
  -7   6  -2    1.41    0.68 
   7  -6   2    1.16    0.93 
   7  -6   2   -0.05    0.65 
  -8   6  -2    2.69    0.84 
   8  -6   2    3.14    1.09 
  -9   6  -2    0.05    0.81 
   9  -6   2    1.16    1.02 
  10  -6   2    3.60    1.87 
  11   5  -2   10.84    1.87 
 -11  -5   2   14.54    2.04 
 -11  -5   2   13.24    1.80 
  10   5  -2   12.67    2.06 
 -10  -5   2   10.80    1.76 
 -10  -5   2   10.23    1.51 
   9   5  -2    1.35    1.06 
  -9  -5   2    2.17    0.87 
  -9  -5   2    3.76    1.05 
   8   5  -2    1.87    0.95 
  -8  -5   2    3.53    0.91 
  -8  -5   2    2.37    0.71 
   7   5  -2    0.16    0.68 
  -7  -5   2    0.15    0.59 
  -7  -5   2    0.50    0.58 
   6   5  -2   19.52    1.96 
  -6  -5   2   18.16    1.55 
  -6  -5   2   19.11    1.27 
   5   5  -2    8.20    1.29 
  -5  -5   2    6.86    1.11 
  -5  -5   2    6.36    0.77 
   4   5  -2   32.24    1.95 
  -4  -5   2   27.74    1.73 
  -4  -5   2   27.86    1.25 
   3   5  -2   14.79    1.26 
  -3  -5   2   15.80    1.25 
   2   5  -2   10.62    1.15 
   2   5  -2   10.65    0.80 
  -2  -5   2   11.56    1.31 
   1   5  -2    8.32    0.95 
   1   5  -2    8.33    0.84 
  -1  -5   2    8.37    1.06 
   0   5  -2   23.22    1.22 
   0  -5   2   22.94    1.38 
   0  -5   2   21.46    1.44 
  -1   5  -2    9.12    0.94 
   1  -5   2    9.18    1.16 
   1  -5   2   10.33    1.06 
  -2   5  -2    0.73    0.35 
   2  -5   2    0.90    0.47 
   2  -5   2    1.03    0.50 
  -3   5  -2    0.65    0.37 
   3  -5   2    1.20    0.56 
   3  -5   2    0.48    0.42 
  -4   5  -2   97.29    3.30 
   4  -5   2   97.71    3.72 
   4  -5   2   91.38    3.33 
  -5   5  -2    1.96    0.46 
  -5   5  -2    1.41    0.50 
   5  -5   2   -0.11    0.49 
   5  -5   2    1.64    0.65 
  -6   5  -2   30.05    1.60 
  -6   5  -2   37.72    1.95 
   6  -5   2   33.12    2.13 
   6  -5   2   34.05    1.88 
  -7   5  -2   10.08    1.12 
  -7   5  -2   12.18    1.31 
   7  -5   2   13.17    1.68 
   7  -5   2   11.06    1.36 
  -8   5  -2    1.31    0.70 
  -8   5  -2    0.28    0.59 
   8  -5   2    0.94    0.80 
  -9   5  -2    2.35    0.86 
  -9   5  -2    2.91    0.87 
   9  -5   2    1.11    1.10 
 -10   5  -2    0.83    0.93 
  10  -5   2    0.40    1.15 
  11   4  -2    4.65    1.41 
 -11  -4   2    4.74    1.28 
 -11  -4   2    4.94    1.26 
  10   4  -2    2.77    1.08 
 -10  -4   2    4.42    1.07 
 -10  -4   2    2.64    1.00 
   9   4  -2    3.92    1.06 
  -9  -4   2    2.79    0.89 
  -9  -4   2    4.10    1.01 
   8   4  -2    2.57    0.90 
  -8  -4   2    2.06    0.74 
  -8  -4   2    2.32    0.81 
   7   4  -2    2.64    0.92 
  -7  -4   2    2.83    0.76 
  -7  -4   2    4.22    0.76 
   6   4  -2    3.50    0.88 
  -6  -4   2    2.64    0.68 
  -6  -4   2    3.26    0.64 
   5   4  -2   23.11    1.66 
  -5  -4   2   19.28    1.41 
  -5  -4   2   20.65    1.16 
   4   4  -2   10.16    1.22 
  -4  -4   2    9.71    0.71 
  -4  -4   2    9.90    1.24 
   3   4  -2    1.49    0.45 
  -3  -4   2    0.62    0.41 
   2   4  -2   20.95    1.28 
  -2  -4   2   23.59    1.40 
   1   4  -2   74.90    2.63 
   1   4  -2   76.84    2.39 
  -1  -4   2   75.41    2.78 
   0   4  -2    0.45    0.26 
   0  -4   2   -0.25    0.25 
   0  -4   2    0.23    0.28 
  -1   4  -2   65.62    2.20 
   1  -4   2   61.80    2.48 
   1  -4   2   61.56    2.22 
  -2   4  -2    3.38    0.57 
   2  -4   2    4.37    0.77 
   2  -4   2    3.63    0.58 
  -3   4  -2   33.29    1.54 
   3  -4   2   34.97    1.85 
   3  -4   2   35.33    1.60 
  -4   4  -2    4.44    0.67 
  -4   4  -2    4.73    0.57 
   4  -4   2    3.21    0.73 
   4  -4   2    5.05    0.77 
  -5   4  -2   64.59    2.43 
  -5   4  -2   58.47    2.13 
   5  -4   2   61.33    2.71 
   5  -4   2   59.49    2.44 
  -6   4  -2    3.73    0.71 
  -6   4  -2    2.62    0.56 
   6  -4   2    3.22    0.75 
   6  -4   2    4.13    0.93 
  -7   4  -2    2.17    0.65 
  -7   4  -2    2.45    0.71 
   7  -4   2    1.68    0.83 
   7  -4   2    1.01    0.58 
  -8   4  -2    2.79    0.76 
  -8   4  -2    1.43    0.65 
   8  -4   2    1.94    0.85 
   8  -4   2    2.58    0.76 
  -9   4  -2    0.33    0.63 
   9  -4   2    0.08    0.81 
 -10   4  -2    6.87    1.24 
  10  -4   2    8.72    1.64 
 -11   4  -2    0.01    0.88 
  11  -4   2   -1.39    1.16 
  11   3  -2    1.78    1.12 
 -11  -3   2    0.74    0.90 
  10   3  -2    4.82    1.21 
 -10  -3   2    4.55    1.17 
 -10  -3   2    3.27    1.05 
   9   3  -2    1.25    0.75 
  -9  -3   2   -0.07    0.64 
  -9  -3   2    0.93    0.71 
   8   3  -2    6.21    1.24 
  -8  -3   2    8.74    1.36 
  -8  -3   2    7.67    1.11 
   7   3  -2   -0.45    0.45 
  -7  -3   2    0.73    0.53 
  -7  -3   2    0.55    0.40 
   6   3  -2   17.67    1.47 
  -6  -3   2   20.42    1.45 
  -6  -3   2   18.57    1.25 
   5   3  -2   -0.08    0.35 
  -5  -3   2    0.14    0.23 
  -5  -3   2   -0.61    0.37 
   4   3  -2   74.24    2.93 
  -4  -3   2   81.24    2.93 
  -4  -3   2   78.25    2.49 
   3   3  -2   33.27    1.64 
  -3  -3   2   34.84    1.65 
  -3  -3   2   34.13    1.29 
   2   3  -2    6.47    0.73 
  -2  -3   2    7.26    0.87 
  -2  -3   2    6.31    0.45 
   1   3  -2   23.05    0.98 
   1   3  -2   21.38    1.09 
  -1  -3   2   20.78    1.17 
   0   3  -2    3.13    0.43 
   0  -3   2    2.56    0.53 
   0  -3   2    2.97    0.49 
  -1   3  -2   16.27    0.89 
   1  -3   2   18.54    0.93 
   1  -3   2   18.17    1.08 
  -2   3  -2   49.84    1.85 
   2  -3   2   55.01    2.15 
   2  -3   2   55.66    1.84 
  -3   3  -2   13.30    0.69 
  -3   3  -2   13.12    0.86 
   3  -3   2   13.11    1.00 
  -4   3  -2   13.34    0.77 
  -4   3  -2   11.86    0.88 
   4  -3   2   11.52    1.02 
  -5   3  -2    4.55    0.69 
  -5   3  -2    4.29    0.59 
   5  -3   2    6.20    1.02 
  -6   3  -2   12.22    1.12 
  -6   3  -2   10.96    1.07 
   6  -3   2   11.25    1.23 
   6  -3   2   12.35    1.41 
  -7   3  -2    0.96    0.51 
  -7   3  -2    1.35    0.49 
   7  -3   2    0.64    0.59 
  -8   3  -2    1.25    0.65 
   8  -3   2    1.92    0.69 
   8  -3   2    0.38    0.70 
  -9   3  -2   20.90    1.63 
   9  -3   2   24.32    2.04 
   9  -3   2   26.98    2.90 
 -10   3  -2   21.85    2.03 
  10  -3   2   17.61    2.17 
 -11   3  -2    2.42    0.96 
  11  -3   2    0.66    1.24 
  11   2  -2    0.17    1.05 
  11   2  -2    0.34    0.97 
 -11  -2   2   -0.84    0.85 
  10   2  -2    4.54    1.29 
  10   2  -2    2.38    0.99 
 -10  -2   2    3.45    1.00 
   9   2  -2    4.54    1.16 
  -9  -2   2    6.76    1.14 
  -9  -2   2    3.58    1.01 
   8   2  -2    4.97    1.08 
  -8  -2   2    5.48    0.97 
  -8  -2   2    4.70    1.04 
   7   2  -2   -0.09    0.47 
  -7  -2   2    0.48    0.49 
  -7  -2   2    0.92    0.53 
   6   2  -2    1.47    0.54 
  -6  -2   2    0.51    0.39 
  -6  -2   2    0.53    0.53 
   5   2  -2    2.99    0.67 
  -5  -2   2    2.83    0.65 
  -5  -2   2    3.10    0.51 
   4   2  -2   26.97    1.52 
  -4  -2   2   31.10    1.52 
  -4  -2   2   30.00    1.29 
   3   2  -2  155.41    4.55 
  -3  -2   2  158.65    4.47 
  -3  -2   2  157.14    4.13 
   2   2  -2   86.64    2.77 
  -2  -2   2   88.86    2.45 
  -2  -2   2   92.31    2.80 
   1   2  -2  111.07    2.95 
   1   2  -2  108.25    3.12 
  -1  -2   2  112.38    2.83 
  -1  -2   2  114.75    3.25 
   0   2  -2  379.63    8.90 
   0   2  -2  365.83    8.88 
   0  -2   2  384.37    9.16 
  -1   2  -2  169.45    4.31 
   1  -2   2  165.14    4.52 
  -2   2  -2    0.66    0.22 
  -2   2  -2    0.56    0.16 
   2  -2   2    0.46    0.26 
  -3   2  -2    8.89    0.62 
  -3   2  -2    9.89    0.59 
   3  -2   2    9.17    0.81 
  -4   2  -2    8.38    0.65 
  -4   2  -2    7.85    0.60 
   4  -2   2    8.34    0.98 
  -5   2  -2    0.89    0.36 
  -5   2  -2    0.64    0.30 
   5  -2   2    0.70    0.47 
  -6   2  -2    1.01    0.42 
   6  -2   2    1.07    0.45 
  -7   2  -2    7.51    0.98 
   7  -2   2    9.12    1.13 
   7  -2   2    8.97    1.27 
  -8   2  -2    6.61    0.99 
   8  -2   2    6.97    1.23 
   8  -2   2    7.01    1.03 
  -9   2  -2    4.65    0.98 
   9  -2   2    4.20    0.99 
   9  -2   2    5.17    1.21 
 -10   2  -2    5.22    1.05 
  10  -2   2    6.34    1.33 
 -11   2  -2    0.04    0.80 
  11  -2   2    1.01    1.10 
 -12   2  -2    4.96    1.22 
  12  -2   2    4.31    1.75 
  11   1  -2    4.18    1.53 
  11   1  -2    8.91    1.73 
 -11  -1   2    6.28    1.42 
  10   1  -2   17.89    1.99 
  10   1  -2   17.23    2.20 
 -10  -1   2   16.85    1.83 
   9   1  -2   14.23    1.82 
   9   1  -2   11.23    1.68 
  -9  -1   2   12.39    1.43 
   8   1  -2    0.22    0.59 
  -8  -1   2    1.33    0.58 
  -8  -1   2    0.34    0.52 
   7   1  -2    0.71    0.50 
  -7  -1   2    0.38    0.47 
  -7  -1   2    0.76    0.42 
   6   1  -2    0.12    0.35 
  -6  -1   2    0.03    0.28 
  -6  -1   2   -0.07    0.41 
   5   1  -2   28.65    1.67 
  -5  -1   2   30.62    1.54 
  -5  -1   2   30.19    1.44 
   4   1  -2  154.23    4.62 
  -4  -1   2  153.46    4.21 
  -4  -1   2  151.16    4.36 
   3   1  -2  215.07    5.86 
  -3  -1   2  220.60    5.69 
  -3  -1   2  222.90    5.54 
   2   1  -2   37.79    1.47 
  -2  -1   2   39.09    1.41 
  -2  -1   2   38.58    1.30 
   1   1  -2  623.49   14.62 
   1   1  -2  639.42   14.47 
  -1  -1   2  634.35   14.44 
  -1  -1   2  642.60   14.65 
   0   1  -2   58.06    1.62 
   0   1  -2   58.83    1.67 
   0  -1   2   58.36    1.78 
   0  -1   2   55.17    1.57 
  -1   1  -2   18.78    0.77 
  -1   1  -2   18.19    0.68 
   1  -1   2   18.14    0.85 
  -2   1  -2   31.28    1.05 
  -2   1  -2   31.94    1.13 
   2  -1   2   29.88    1.26 
  -3   1  -2  112.35    2.98 
  -3   1  -2  108.32    2.98 
   3  -1   2  106.77    3.28 
  -4   1  -2    3.47    0.47 
  -4   1  -2    3.17    0.46 
   4  -1   2    3.32    0.58 
  -5   1  -2   49.70    1.86 
   5  -1   2   48.62    2.14 
  -6   1  -2    5.61    0.74 
   6  -1   2    4.27    0.85 
  -7   1  -2    0.17    0.31 
   7  -1   2   -0.29    0.47 
   7  -1   2    0.32    0.41 
  -8   1  -2   15.14    1.24 
   8  -1   2   14.44    1.24 
   8  -1   2   16.57    1.82 
  -9   1  -2   17.81    1.73 
   9  -1   2   15.22    1.61 
   9  -1   2   17.09    1.87 
 -10   1  -2   -0.06    0.62 
  10  -1   2    0.22    0.74 
  10  -1   2    0.71    0.66 
 -11   1  -2    2.44    0.94 
  11  -1   2    2.75    1.18 
 -12   1  -2    0.98    1.03 
  12  -1   2    2.63    1.35 
  12   0  -2   15.46    2.18 
 -12   0   2   13.82    1.93 
  11   0  -2    9.74    1.81 
 -11   0   2    9.64    1.53 
  10   0  -2    2.07    1.00 
  10   0  -2    0.96    0.86 
 -10   0   2    0.37    0.73 
   9   0  -2   21.50    2.05 
   9   0  -2   15.90    2.06 
  -9   0   2   17.88    1.72 
   8   0  -2    0.47    0.60 
   8   0  -2    1.13    0.64 
  -8   0   2    1.29    0.57 
   7   0  -2   17.74    1.43 
   7   0  -2   18.33    1.49 
  -7   0   2   17.35    1.23 
   6   0  -2    7.10    1.02 
  -6   0   2    6.44    0.78 
  -6   0   2    7.31    0.94 
   5   0  -2    2.45    0.58 
  -5   0   2    2.08    0.47 
  -5   0   2    1.44    0.42 
   4   0  -2    1.81    0.49 
  -4   0   2    1.54    0.38 
  -4   0   2    1.90    0.38 
   3   0  -2   36.75    1.58 
  -3   0   2   38.54    1.39 
   2   0  -2    0.61    0.25 
  -2   0   2    0.77    0.23 
   1   0  -2   37.32    1.24 
   1   0  -2   36.95    1.14 
  -1   0   2   36.43    1.16 
   0   0  -2  914.89   20.34 
   0   0   2  889.16   20.30 
   0   0   2  902.36   20.29 
  -1   0  -2  550.20   12.69 
  -1   0  -2  557.32   12.63 
   1   0   2  558.44   12.77 
  -2   0  -2    3.79    0.32 
  -2   0  -2    3.86    0.32 
   2   0   2    3.82    0.49 
  -3   0  -2   26.99    1.03 
   3   0   2   24.97    1.18 
  -4   0  -2    5.20    0.58 
   4   0   2    4.46    0.68 
  -5   0  -2   21.32    1.10 
   5   0   2   21.36    1.11 
   5   0   2   20.98    1.32 
  -6   0  -2    1.93    0.46 
   6   0   2    1.80    0.59 
   6   0   2    2.65    0.58 
  -7   0  -2   12.44    1.00 
   7   0   2   11.95    1.31 
   7   0   2   13.74    1.53 
  -8   0  -2   33.81    1.78 
   8   0   2   32.43    1.89 
   8   0   2   31.09    2.03 
  -9   0  -2    8.10    1.17 
   9   0   2    6.80    1.25 
   9   0   2    7.59    1.21 
 -10   0  -2   -0.83    0.55 
  10   0   2   -0.47    0.60 
  10   0   2   -0.50    0.60 
 -11   0  -2    3.30    1.06 
  11   0   2    3.27    1.21 
 -12   0  -2    7.68    1.55 
  12   0   2    4.17    1.58 
  11  -1  -2    0.56    1.04 
 -11   1   2    1.66    1.05 
  10  -1  -2    2.16    0.89 
 -10   1   2    0.53    0.66 
   9  -1  -2   -0.01    0.78 
   9  -1  -2   -0.06    0.68 
  -9   1   2   -0.12    0.53 
   8  -1  -2    7.53    1.25 
   8  -1  -2   10.88    1.40 
  -8   1   2    8.35    1.14 
   7  -1  -2   10.26    1.17 
   7  -1  -2   12.01    1.49 
  -7   1   2    8.63    1.00 
   6  -1  -2   43.31    2.22 
  -6   1   2   43.15    1.89 
   5  -1  -2   32.43    1.79 
  -5   1   2   31.16    1.47 
   4  -1  -2   11.63    0.97 
  -4   1   2   12.79    0.80 
   3  -1  -2    0.02    0.23 
  -3   1   2    0.66    0.23 
   2  -1  -2    3.53    0.49 
  -2   1   2    4.77    0.49 
   1  -1  -2  429.99   10.07 
   1  -1  -2  420.19    9.88 
  -1   1   2  437.60    9.92 
   0  -1  -2  272.81    6.44 
   0  -1  -2  273.87    6.46 
   0   1   2  276.27    6.43 
  -1  -1  -2  425.18    9.85 
  -1  -1  -2  429.44    9.85 
   1   1   2  431.00    9.88 
  -2  -1  -2  121.55    3.23 
   2   1   2  133.46    3.45 
  -3  -1  -2   97.12    2.71 
   3   1   2   98.33    2.96 
  -4  -1  -2   17.79    0.91 
   4   1   2   18.92    0.92 
   4   1   2   16.65    1.07 
  -5  -1  -2   63.54    2.20 
   5   1   2   64.04    2.49 
   5   1   2   64.47    2.26 
  -6  -1  -2   10.64    1.06 
   6   1   2    8.36    0.97 
   6   1   2    8.29    1.06 
  -7  -1  -2   61.21    2.39 
   7   1   2   60.35    2.74 
   7   1   2   57.84    2.52 
  -8  -1  -2    6.59    0.92 
   8   1   2    4.65    0.86 
   8   1   2    5.85    1.10 
  -9  -1  -2    7.95    1.17 
   9   1   2    5.18    0.98 
   9   1   2    7.60    1.36 
 -10  -1  -2    2.79    0.85 
  10   1   2    3.09    0.98 
  10   1   2    1.28    0.93 
 -11  -1  -2   -0.09    0.68 
  11   1   2    1.17    0.96 
  11   1   2    0.46    0.90 
 -12  -1  -2    2.51    1.10 
  12   1   2    2.48    1.38 
  11  -2  -2   -0.37    0.85 
 -11   2   2   -0.16    0.95 
  10  -2  -2    0.74    0.77 
 -10   2   2    0.44    0.75 
   9  -2  -2    2.19    0.87 
  -9   2   2    3.03    0.87 
   8  -2  -2   10.73    1.49 
  -8   2   2   15.55    1.48 
   7  -2  -2  140.71    4.97 
  -7   2   2  142.01    4.44 
   6  -2  -2   15.05    1.29 
  -6   2   2   15.88    1.08 
   5  -2  -2    4.02    0.75 
  -5   2   2    4.08    0.63 
   4  -2  -2    0.87    0.33 
  -4   2   2    0.96    0.31 
   3  -2  -2   13.27    0.92 
  -3   2   2   12.26    0.68 
  -3   2   2   13.63    0.76 
   2  -2  -2   21.85    1.09 
  -2   2   2   22.56    0.94 
   1  -2  -2  113.43    2.94 
   1  -2  -2  111.05    3.12 
  -1   2   2  109.00    2.86 
   0  -2  -2  218.30    5.41 
   0  -2  -2  219.50    5.32 
   0   2   2  225.02    5.26 
  -1  -2  -2  547.00   12.56 
  -1  -2  -2  550.51   12.62 
  -1  -2  -2  544.88   12.62 
  -1  -2  -2  553.59   12.53 
  -2  -2  -2  114.65    3.01 
  -2  -2  -2  110.58    3.12 
  -2  -2  -2  112.08    2.92 
  -3  -2  -2   45.46    1.53 
  -3  -2  -2   45.57    1.75 
   3   2   2   47.64    1.60 
  -4  -2  -2    0.85    0.33 
  -4  -2  -2    0.93    0.29 
   4   2   2    1.28    0.35 
  -5  -2  -2   18.30    1.21 
  -5  -2  -2   20.71    1.09 
   5   2   2   20.60    1.17 
  -6  -2  -2   16.50    1.07 
   6   2   2   16.29    1.14 
  -7  -2  -2   19.28    1.22 
   7   2   2   15.18    1.23 
   7   2   2   13.75    1.60 
  -8  -2  -2  125.44    4.14 
   8   2   2  121.02    4.57 
  -9  -2  -2    6.12    1.05 
   9   2   2    4.51    0.97 
   9   2   2    6.05    1.13 
 -10  -2  -2    8.94    1.33 
  10   2   2    6.30    1.32 
  10   2   2    6.83    1.22 
 -11  -2  -2    3.15    0.99 
  11   2   2    2.16    0.98 
  11   2   2    1.44    0.98 
 -12  -2  -2    0.25    0.92 
  12   2   2   -0.77    1.10 
  11  -3  -2    2.24    1.20 
 -11   3   2    3.71    1.34 
  10  -3  -2    0.53    0.88 
 -10   3   2   -0.37    0.72 
   9  -3  -2   20.89    2.26 
  -9   3   2   21.40    1.92 
   8  -3  -2    0.92    0.65 
  -8   3   2    0.25    0.53 
   7  -3  -2    2.34    0.72 
  -7   3   2    1.93    0.64 
   6  -3  -2   39.97    2.19 
  -6   3   2   45.86    1.92 
   5  -3  -2    4.61    0.87 
  -5   3   2    4.74    0.69 
  -5   3   2    4.84    0.63 
   4  -3  -2   16.86    1.21 
  -4   3   2   16.80    0.97 
  -4   3   2   16.79    0.93 
   3  -3  -2    2.23    0.51 
  -3   3   2    1.59    0.36 
  -3   3   2    1.92    0.35 
   2  -3  -2   -0.06    0.20 
  -2   3   2   -0.02    0.19 
  -2   3   2   -0.04    0.18 
   1  -3  -2    3.32    0.50 
  -1   3   2    3.51    0.44 
  -1   3   2    4.07    0.34 
   0  -3  -2  229.28    5.84 
   0   3   2  233.77    5.51 
  -1  -3  -2    9.41    0.54 
  -1  -3  -2    8.29    0.56 
  -1  -3  -2    9.71    0.65 
  -1  -3  -2    9.57    0.48 
  -2  -3  -2   31.75    1.31 
  -2  -3  -2   30.71    1.08 
  -2  -3  -2   31.39    1.28 
  -3  -3  -2   22.07    1.17 
  -3  -3  -2   24.40    0.98 
   3   3   2   23.85    1.13 
  -4  -3  -2   46.29    1.67 
  -4  -3  -2   46.51    1.97 
   4   3   2   49.65    1.90 
  -5  -3  -2    0.13    0.24 
  -5  -3  -2   -0.18    0.28 
   5   3   2    0.27    0.31 
  -6  -3  -2   10.29    1.05 
  -6  -3  -2   11.48    1.31 
   6   3   2   12.82    1.10 
  -7  -3  -2   24.09    1.40 
  -7  -3  -2   23.53    1.59 
   7   3   2   22.86    1.57 
  -8  -3  -2   21.63    1.46 
   8   3   2   21.82    1.64 
  -9  -3  -2    7.61    1.13 
   9   3   2    6.23    1.25 
   9   3   2    5.01    1.10 
 -10  -3  -2    3.20    0.93 
  10   3   2    2.37    0.93 
  10   3   2    2.26    0.92 
 -11  -3  -2    1.76    0.86 
  11   3   2    0.10    0.89 
  11   3   2    1.38    0.95 
 -12  -3  -2    4.87    1.28 
  12   3   2    2.15    1.30 
  12   3   2    5.59    2.10 
  11  -4  -2    2.10    1.26 
 -11   4   2    0.99    1.05 
  10  -4  -2    1.42    0.97 
 -10   4   2    2.43    0.95 
   9  -4  -2    1.53    0.89 
  -9   4   2    3.34    0.87 
   8  -4  -2    3.27    0.94 
  -8   4   2    2.61    0.74 
   7  -4  -2    3.78    0.93 
  -7   4   2    3.90    0.79 
   6  -4  -2    0.61    0.52 
  -6   4   2    0.87    0.45 
  -6   4   2    1.44    0.49 
   5  -4  -2   11.75    1.32 
  -5   4   2   12.20    0.92 
  -5   4   2   11.14    0.91 
   4  -4  -2    0.23    0.38 
  -4   4   2    0.79    0.36 
  -4   4   2    0.75    0.31 
   3  -4  -2   45.36    2.07 
  -3   4   2   44.45    1.74 
  -3   4   2   46.10    1.62 
   2  -4  -2   25.31    1.38 
  -2   4   2   23.25    1.16 
  -2   4   2   24.15    0.97 
   1  -4  -2  184.56    5.05 
  -1   4   2  178.99    4.80 
   0  -4  -2    6.18    0.51 
   0  -4  -2    6.83    0.77 
   0   4   2    7.10    0.69 
  -1  -4  -2   14.50    0.91 
  -1  -4  -2   14.50    0.84 
   1   4   2   16.10    0.81 
  -2  -4  -2  110.50    2.93 
  -2  -4  -2  110.59    3.36 
  -2  -4  -2  110.16    3.36 
   2   4   2  115.38    3.09 
  -3  -4  -2   42.46    1.82 
  -3  -4  -2   42.11    1.46 
   3   4   2   42.02    1.77 
  -4  -4  -2   32.11    1.31 
  -4  -4  -2   30.44    1.61 
   4   4   2   32.04    1.56 
  -5  -4  -2    0.59    0.32 
  -5  -4  -2    0.38    0.38 
   5   4   2    0.27    0.34 
  -6  -4  -2   46.57    2.29 
  -6  -4  -2   46.45    1.90 
   6   4   2   46.41    2.23 
  -7  -4  -2    0.40    0.38 
  -7  -4  -2    0.05    0.37 
   7   4   2   -0.02    0.42 
  -8  -4  -2    3.71    0.75 
  -8  -4  -2    3.30    0.87 
   8   4   2    2.80    0.82 
  -9  -4  -2   -0.51    0.51 
  -9  -4  -2   -0.57    0.44 
   9   4   2    0.46    0.64 
 -10  -4  -2    4.25    0.96 
  10   4   2    2.21    0.90 
  10   4   2    4.20    1.11 
 -11  -4  -2    3.76    1.01 
  11   4   2    4.33    1.17 
  11   4   2    3.59    1.22 
 -12  -4  -2    8.54    1.53 
  12   4   2    6.83    1.62 
  12   4   2    5.94    1.64 
  10  -5  -2    1.66    0.96 
 -10   5   2   -2.04    0.90 
   9  -5  -2    2.52    0.93 
  -9   5   2    0.78    0.79 
   8  -5  -2    0.78    0.76 
  -8   5   2    0.60    0.64 
   7  -5  -2    0.41    0.58 
  -7   5   2   -0.22    0.45 
  -7   5   2    0.19    0.53 
   6  -5  -2   23.68    1.79 
  -6   5   2   21.94    1.38 
  -6   5   2   17.14    1.27 
   5  -5  -2    1.26    0.54 
  -5   5   2    0.88    0.40 
  -5   5   2    1.02    0.45 
   4  -5  -2   15.06    1.22 
  -4   5   2   14.06    0.94 
  -4   5   2   14.08    1.04 
   3  -5  -2    0.60    0.44 
  -3   5   2    0.42    0.34 
  -3   5   2    0.86    0.31 
   2  -5  -2    3.44    0.70 
  -2   5   2    3.37    0.58 
   1  -5  -2   -0.06    0.29 
  -1   5   2    0.31    0.28 
   0  -5  -2    2.71    0.51 
   0  -5  -2    2.43    0.54 
   0   5   2    2.83    0.52 
  -1  -5  -2    1.63    0.45 
  -1  -5  -2    1.05    0.42 
   1   5   2    1.48    0.38 
  -2  -5  -2    0.14    0.27 
  -2  -5  -2    0.34    0.33 
   2   5   2    0.02    0.23 
  -3  -5  -2   16.05    0.82 
  -3  -5  -2   15.96    1.13 
  -3  -5  -2   16.33    1.13 
  -4  -5  -2    3.52    0.78 
  -4  -5  -2    2.50    0.44 
   4   5   2    2.88    0.62 
  -5  -5  -2   37.60    1.99 
  -5  -5  -2   36.43    1.57 
   5   5   2   34.74    1.87 
  -6  -5  -2    3.05    0.77 
  -6  -5  -2    2.92    0.60 
   6   5   2    3.05    0.71 
  -7  -5  -2  114.54    4.41 
  -7  -5  -2  119.38    3.81 
   7   5   2  119.89    4.39 
  -8  -5  -2    9.76    1.12 
  -8  -5  -2    9.20    1.43 
   8   5   2    9.22    1.33 
  -9  -5  -2   22.21    1.88 
  -9  -5  -2   22.84    1.62 
   9   5   2   21.89    2.27 
 -10  -5  -2   15.05    1.64 
 -10  -5  -2   15.76    2.12 
  10   5   2   17.31    2.18 
 -11  -5  -2    8.77    1.45 
  11   5   2    7.07    1.59 
  11   5   2    8.27    1.60 
  10  -6  -2    1.92    1.23 
 -10   6   2    1.98    1.08 
   9  -6  -2    2.14    1.09 
  -9   6   2    2.02    1.06 
   8  -6  -2    2.23    0.95 
  -8   6   2    1.61    0.83 
  -8   6   2    3.46    0.93 
   7  -6  -2    0.73    0.70 
  -7   6   2    0.85    0.63 
  -7   6   2    0.83    0.61 
   6  -6  -2   22.28    1.84 
  -6   6   2   22.53    1.53 
  -6   6   2   20.58    1.38 
   5  -6  -2   10.97    1.41 
  -5   6   2   14.09    1.34 
  -5   6   2   10.55    1.03 
   4  -6  -2    5.92    0.95 
  -4   6   2    8.13    0.98 
  -4   6   2    7.94    0.77 
   3  -6  -2    3.58    0.74 
  -3   6   2    3.53    0.69 
   2  -6  -2   22.07    1.44 
  -2   6   2   22.29    1.32 
   1  -6  -2    7.77    0.94 
   1  -6  -2    8.03    1.02 
  -1   6   2    7.99    0.92 
   0  -6  -2    6.80    0.87 
   0  -6  -2    6.55    0.93 
   0   6   2    8.39    0.90 
  -1  -6  -2    0.57    0.38 
  -1  -6  -2    0.77    0.44 
   1   6   2    1.45    0.42 
  -2  -6  -2   17.18    1.27 
  -2  -6  -2   18.00    1.26 
   2   6   2   18.63    1.07 
  -3  -6  -2    3.55    0.74 
  -3  -6  -2    3.32    0.75 
  -4  -6  -2    5.20    0.92 
  -4  -6  -2    3.00    0.52 
   4   6   2    4.29    0.80 
  -5  -6  -2   17.29    1.07 
  -5  -6  -2   19.27    1.50 
   5   6   2   18.80    1.42 
  -6  -6  -2    0.65    0.43 
  -6  -6  -2    2.03    0.66 
   6   6   2    0.41    0.56 
  -7  -6  -2    8.17    1.04 
  -7  -6  -2    8.08    1.37 
   7   6   2    6.61    1.20 
  -8  -6  -2   10.37    1.15 
  -8  -6  -2    9.79    1.63 
   8   6   2    9.92    1.47 
  -9  -6  -2   -0.43    0.59 
  -9  -6  -2   -0.63    0.58 
   9   6   2   -0.09    0.83 
 -10  -6  -2    4.57    1.11 
 -10  -6  -2    4.12    1.14 
  10   6   2    6.79    1.40 
 -11  -6  -2    4.47    1.21 
 -11  -6  -2    5.08    1.24 
  11   6   2    1.51    1.19 
   9  -7  -2    0.23    0.99 
   8  -7  -2    3.39    1.10 
  -8   7   2    2.85    0.98 
   7  -7  -2    1.02    0.65 
  -7   7   2    0.53    0.76 
   6  -7  -2   -0.18    0.60 
  -6   7   2   -0.81    0.55 
   5  -7  -2    1.19    0.62 
  -5   7   2   -0.50    0.49 
   4  -7  -2   -0.19    0.48 
  -4   7   2    0.50    0.47 
   3  -7  -2    1.57    0.61 
  -3   7   2    3.21    0.69 
   2  -7  -2   53.98    2.59 
   2  -7  -2   49.06    2.25 
  -2   7   2   53.52    2.27 
   1  -7  -2    1.04    0.48 
   1  -7  -2   -0.22    0.45 
  -1   7   2    0.20    0.31 
   0  -7  -2    2.84    0.67 
   0  -7  -2    1.82    0.64 
   0   7   2    2.85    0.58 
  -1  -7  -2    5.19    0.88 
  -1  -7  -2    3.85    0.74 
   1   7   2    5.08    0.72 
  -2  -7  -2    1.15    0.54 
  -2  -7  -2    0.62    0.45 
   2   7   2    1.47    0.47 
  -3  -7  -2    5.81    0.99 
  -3  -7  -2    6.00    1.00 
   3   7   2    6.86    0.82 
  -4  -7  -2    1.91    0.68 
   4   7   2    1.14    0.55 
  -5  -7  -2   52.70    2.68 
  -5  -7  -2   53.54    2.03 
   5   7   2   53.24    2.65 
  -6  -7  -2   22.91    1.37 
  -6  -7  -2   25.89    1.94 
   6   7   2   27.95    1.94 
  -7  -7  -2   32.27    2.24 
  -7  -7  -2   32.97    1.68 
   7   7   2   30.18    2.17 
  -8  -7  -2    9.88    1.58 
  -8  -7  -2    9.25    1.12 
   8   7   2    8.12    1.35 
  -9  -7  -2   10.90    1.40 
  -9  -7  -2   10.77    1.70 
   9   7   2    5.62    1.35 
 -10  -7  -2   14.64    2.08 
 -10  -7  -2   15.63    1.69 
  10   7   2   13.84    1.98 
 -11  -7  -2   26.93    2.23 
 -11  -7  -2   30.91    2.41 
  11   7   2   25.51    2.81 
   8  -8  -2   14.29    1.96 
  -8   8   2   13.42    1.65 
   7  -8  -2   -0.81    0.73 
  -7   8   2   -0.25    0.78 
   6  -8  -2   -0.35    0.68 
  -6   8   2    0.50    0.69 
   5  -8  -2    6.95    1.26 
  -5   8   2    8.84    1.32 
   4  -8  -2    0.63    0.74 
  -4   8   2    1.05    0.64 
   3  -8  -2   40.72    2.45 
  -3   8   2   42.85    2.22 
   2  -8  -2    7.13    1.06 
   2  -8  -2    7.17    1.15 
  -2   8   2    5.18    0.80 
   1  -8  -2   29.66    1.94 
   1  -8  -2   27.95    1.70 
  -1   8   2   25.95    1.58 
   0  -8  -2    7.25    1.17 
   0  -8  -2    8.65    1.14 
   0   8   2    8.40    1.02 
  -1  -8  -2    5.69    0.98 
  -1  -8  -2    6.53    1.07 
   1   8   2    6.28    0.85 
  -2  -8  -2    0.53    0.46 
  -2  -8  -2    0.31    0.57 
   2   8   2    0.85    0.38 
  -3  -8  -2    5.71    1.02 
  -3  -8  -2    6.02    1.11 
   3   8   2    6.29    0.77 
  -4  -8  -2   61.56    2.95 
   4   8   2   56.04    2.90 
  -5  -8  -2    0.11    0.62 
   5   8   2    0.53    0.56 
  -6  -8  -2   22.68    1.91 
   6   8   2   23.59    1.95 
  -7  -8  -2   -0.17    0.70 
   7   8   2    0.03    0.66 
  -8  -8  -2    2.88    1.17 
   8   8   2    2.05    0.97 
  -9  -8  -2    1.10    1.01 
   9   8   2    2.80    1.10 
 -10  -8  -2   21.40    2.54 
  10   8   2   17.54    2.20 
   7  -9  -2    2.18    1.01 
  -7   9   2    0.07    0.94 
   6  -9  -2   -0.37    0.86 
  -6   9   2    1.16    0.93 
   5  -9  -2    2.27    0.93 
  -5   9   2    1.54    0.83 
   4  -9  -2    0.70    0.69 
  -4   9   2    1.29    0.77 
   3  -9  -2   27.56    1.89 
   3  -9  -2   22.57    1.93 
  -3   9   2   23.33    1.79 
   2  -9  -2    1.04    0.80 
   2  -9  -2    2.05    0.95 
  -2   9   2    2.57    0.75 
   1  -9  -2    0.82    0.66 
   1  -9  -2    1.75    0.70 
  -1   9   2    1.48    0.60 
   0  -9  -2    1.13    0.64 
   0  -9  -2   -0.20    0.68 
   0   9   2    0.75    0.50 
  -1  -9  -2    0.41    0.73 
  -1  -9  -2   -0.40    0.51 
   1   9   2    1.17    0.50 
  -2  -9  -2   14.11    1.67 
  -2  -9  -2    8.65    1.36 
   2   9   2   10.79    1.24 
  -3  -9  -2    5.01    1.10 
  -3  -9  -2    3.44    0.99 
   3   9   2    5.36    0.81 
  -4  -9  -2   20.57    1.81 
   4   9   2   21.02    2.18 
  -5  -9  -2   55.20    3.03 
   5   9   2   51.13    2.94 
  -6  -9  -2    2.70    1.17 
   6   9   2    2.26    0.92 
  -7  -9  -2   -0.51    1.00 
   7   9   2    0.40    0.86 
  -8  -9  -2    1.03    1.19 
   8   9   2    0.45    0.89 
  -9  -9  -2   -0.23    1.18 
   9   9   2    1.00    1.05 
   6 -10  -2    1.36    1.05 
  -6  10   2    1.92    1.17 
   5 -10  -2    3.27    1.26 
  -5  10   2    2.54    1.06 
   4 -10  -2    4.42    1.10 
  -4  10   2    5.15    1.26 
   3 -10  -2   20.25    2.29 
  -3  10   2   20.63    1.78 
   2 -10  -2    5.26    1.30 
   2 -10  -2    6.04    1.29 
  -2  10   2    7.26    1.16 
   1 -10  -2    1.71    0.84 
   1 -10  -2    1.08    0.94 
  -1  10   2    1.78    0.74 
   0 -10  -2   14.70    1.83 
   0 -10  -2   12.05    1.69 
   0  10   2   17.55    1.50 
  -1 -10  -2   17.90    1.91 
  -1 -10  -2   15.54    1.87 
   1  10   2   18.56    1.79 
  -2 -10  -2    1.54    0.85 
  -2 -10  -2   -0.46    0.60 
   2  10   2   -0.49    0.52 
  -3 -10  -2   19.03    2.09 
   3  10   2   14.59    1.49 
  -4 -10  -2    1.48    0.92 
   4  10   2    0.75    0.97 
  -5 -10  -2   15.70    2.03 
   5  10   2   13.24    1.86 
  -6 -10  -2    2.33    1.20 
   6  10   2    1.46    1.01 
  -7 -10  -2    1.54    1.37 
   7  10   2   -1.03    0.95 
  -8 -10  -2    4.35    1.53 
   8  10   2    6.56    1.45 
   5 -11  -2   -0.32    0.92 
  -5  11   2    0.64    1.06 
   4 -11  -2    2.67    1.28 
  -4  11   2   -1.34    1.12 
   3 -11  -2    3.88    1.25 
  -3  11   2    4.69    1.11 
   2 -11  -2    0.45    0.91 
  -2  11   2    1.98    0.84 
   1 -11  -2    2.31    1.12 
   1 -11  -2    2.65    1.24 
  -1  11   2    4.20    1.09 
   0 -11  -2    1.47    1.07 
   0 -11  -2    1.30    0.86 
   0  11   2    1.34    0.77 
  -1 -11  -2    6.91    1.38 
  -1 -11  -2    4.74    1.18 
   1  11   2    6.04    1.11 
  -2 -11  -2    7.25    1.47 
  -2 -11  -2    7.74    1.61 
   2  11   2    7.33    1.18 
  -3 -11  -2    3.16    1.20 
   3  11   2    2.07    0.91 
   3  11   2    3.27    1.42 
  -4 -11  -2   -0.52    0.97 
   4  11   2    1.72    1.02 
  -5 -11  -2    0.92    1.25 
   5  11   2    0.28    1.01 
  -6 -11  -2    5.49    1.71 
   6  11   2    4.17    1.27 
  -7 -11  -2    6.34    1.81 
   7  11   2    4.13    1.40 
   2 -12  -2    0.69    1.07 
  -2  12   2    0.49    0.99 
   1 -12  -2   -0.25    0.94 
  -1  12   2    1.43    1.02 
   0 -12  -2   11.85    1.87 
   0 -12  -2    9.53    1.62 
   0  12   2   13.51    1.84 
  -1 -12  -2    2.41    1.19 
  -1 -12  -2    3.42    1.47 
   1  12   2    1.66    1.02 
  -2 -12  -2   19.44    2.44 
  -2 -12  -2   21.70    2.40 
   2  12   2   21.89    2.06 
  -3 -12  -2    8.84    1.84 
   3  12   2    8.18    1.75 
   3  12   2    5.07    1.81 
  -4 -12  -2   14.22    2.37 
   4  12   2   21.39    2.59 
   2  11  -3    1.41    1.54 
   2  11  -3    2.44    1.22 
  -2 -11   3    2.02    1.54 
   1  11  -3   11.32    2.10 
   1  11  -3   10.98    1.67 
  -1 -11   3   13.39    2.27 
   0  11  -3    0.45    1.42 
   0  11  -3    0.64    1.12 
   0 -11   3    0.08    1.34 
  -1  11  -3   -0.29    1.01 
  -1  11  -3    0.68    1.54 
   1 -11   3    1.07    1.36 
   5  10  -3    4.13    1.56 
  -5 -10   3    2.19    1.03 
   4  10  -3   -1.23    1.27 
  -4 -10   3    0.13    1.31 
   3  10  -3    0.04    1.26 
  -3 -10   3    0.08    1.25 
   2  10  -3    0.89    1.26 
   2  10  -3    0.11    0.87 
  -2 -10   3    1.41    1.31 
   1  10  -3   -0.38    1.15 
   1  10  -3   -0.84    0.81 
  -1 -10   3    1.07    1.11 
   0  10  -3    0.48    0.89 
   0  10  -3   -0.44    1.28 
   0 -10   3    2.05    1.17 
  -1  10  -3    3.60    1.40 
  -1  10  -3    5.57    1.25 
   1 -10   3    6.39    1.67 
  -2  10  -3    1.38    0.98 
   2 -10   3    1.88    1.40 
   2 -10   3    0.24    0.97 
  -3  10  -3    1.16    1.06 
   3 -10   3    2.06    1.39 
  -4  10  -3    2.40    1.12 
   4 -10   3    1.26    1.53 
   7   9  -3   -0.01    1.41 
  -7  -9   3    0.79    1.07 
   6   9  -3   -0.33    1.35 
  -6  -9   3    1.03    0.96 
   5   9  -3   26.18    2.75 
  -5  -9   3   22.58    2.58 
   4   9  -3    3.72    1.47 
  -4  -9   3    5.45    1.21 
   3   9  -3    8.23    1.54 
   3   9  -3    8.99    1.29 
  -3  -9   3   11.50    1.84 
   2   9  -3    7.04    1.21 
   2   9  -3    7.21    1.52 
  -2  -9   3    9.23    1.71 
   1   9  -3    0.41    0.76 
   1   9  -3   -0.14    0.90 
  -1  -9   3    0.57    0.87 
   0   9  -3    7.78    1.41 
   0   9  -3    5.18    1.04 
   0  -9   3    7.34    1.58 
  -1   9  -3    1.68    0.82 
   1  -9   3    0.43    0.94 
   1  -9   3    0.60    0.68 
  -2   9  -3    2.17    0.91 
   2  -9   3    1.13    0.85 
   2  -9   3    3.28    1.17 
  -3   9  -3   15.64    1.80 
   3  -9   3   15.83    2.20 
   3  -9   3   15.20    1.74 
  -4   9  -3   14.50    1.82 
   4  -9   3   16.13    2.12 
  -5   9  -3    1.47    1.00 
   5  -9   3    2.65    1.44 
  -6   9  -3    3.14    1.25 
   6  -9   3    1.56    1.47 
   8   8  -3    0.97    1.51 
  -8  -8   3    1.74    1.14 
   7   8  -3    1.03    1.35 
  -7  -8   3    0.38    0.95 
   6   8  -3    2.79    1.25 
  -6  -8   3    2.35    0.95 
   5   8  -3    5.75    1.38 
  -5  -8   3    5.51    1.26 
   4   8  -3    1.09    0.97 
  -4  -8   3   -0.58    0.59 
   3   8  -3   16.23    1.87 
   3   8  -3   13.72    1.45 
  -3  -8   3   12.97    1.77 
   2   8  -3    6.13    1.03 
   2   8  -3    8.96    1.48 
  -2  -8   3    7.25    1.40 
   1   8  -3    1.47    0.80 
   1   8  -3    2.32    0.75 
  -1  -8   3    1.49    0.76 
   0   8  -3    1.27    0.67 
   0   8  -3    0.49    0.81 
   0  -8   3    2.38    0.78 
  -1   8  -3    0.44    0.59 
   1  -8   3    0.02    0.57 
   1  -8   3    0.08    0.71 
  -2   8  -3    0.92    0.64 
   2  -8   3    0.11    0.63 
   2  -8   3    1.66    0.78 
  -3   8  -3    5.84    1.09 
   3  -8   3    5.86    1.40 
   3  -8   3    5.15    1.01 
  -4   8  -3    8.40    1.31 
   4  -8   3   10.12    1.72 
   4  -8   3    5.33    1.09 
  -5   8  -3   -0.40    0.68 
   5  -8   3   -0.55    0.89 
  -6   8  -3   11.79    1.64 
   6  -8   3    5.51    1.46 
  -7   8  -3    2.91    1.07 
   7  -8   3    0.87    1.34 
  -8   8  -3    5.38    1.44 
   8  -8   3    3.34    1.63 
   9   7  -3    4.86    1.43 
  -9  -7   3    3.69    1.17 
   8   7  -3    0.57    1.30 
  -8  -7   3   -0.01    0.87 
   7   7  -3    0.88    1.21 
  -7  -7   3    1.00    0.83 
   6   7  -3    1.71    0.98 
  -6  -7   3    1.93    0.85 
   5   7  -3    5.44    1.33 
  -5  -7   3    4.55    1.14 
   4   7  -3    3.21    1.09 
  -4  -7   3    2.44    0.87 
   3   7  -3   18.72    1.90 
   3   7  -3   15.09    1.27 
  -3  -7   3   17.04    1.92 
   2   7  -3    0.00    0.65 
   2   7  -3    0.06    0.49 
  -2  -7   3   -0.65    0.41 
   1   7  -3    0.07    0.63 
   1   7  -3   -0.31    0.41 
  -1  -7   3    0.51    0.60 
   0   7  -3    1.07    0.70 
   0   7  -3    1.73    0.60 
   0  -7   3    0.37    0.56 
  -1   7  -3    0.69    0.48 
   1  -7   3    0.47    0.49 
   1  -7   3    0.81    0.70 
  -2   7  -3   10.61    1.34 
   2  -7   3   10.36    1.22 
   2  -7   3   12.37    1.65 
  -3   7  -3    2.41    0.72 
   3  -7   3    2.69    0.73 
   3  -7   3    3.48    1.07 
  -4   7  -3   59.23    2.77 
   4  -7   3   55.14    2.66 
   4  -7   3   59.83    3.20 
  -5   7  -3    4.69    1.00 
   5  -7   3    5.13    1.02 
   5  -7   3    6.65    1.36 
  -6   7  -3    4.30    1.05 
   6  -7   3    2.02    1.11 
  -7   7  -3    0.84    0.84 
   7  -7   3   -0.57    1.05 
  -8   7  -3   -0.20    0.85 
   8  -7   3    0.95    1.13 
  -9   7  -3    3.06    1.15 
   9  -7   3    1.71    1.53 
  10   6  -3    8.71    1.67 
 -10  -6   3   10.99    1.90 
   9   6  -3    0.80    1.06 
  -9  -6   3   -0.08    0.83 
   8   6  -3    3.37    1.34 
  -8  -6   3    4.54    1.31 
  -8  -6   3    4.62    1.14 
   7   6  -3    2.93    1.28 
  -7  -6   3    1.23    0.90 
  -7  -6   3    3.70    0.94 
   6   6  -3    2.30    0.98 
  -6  -6   3    5.10    1.12 
  -6  -6   3    3.43    0.99 
   5   6  -3    2.80    0.99 
  -5  -6   3    2.05    0.77 
   4   6  -3   39.19    2.33 
  -4  -6   3   34.56    2.13 
   3   6  -3   19.41    1.62 
  -3  -6   3   21.33    1.61 
   2   6  -3    1.76    0.53 
   2   6  -3    2.93    0.77 
  -2  -6   3    1.57    0.52 
   1   6  -3    1.87    0.53 
   1   6  -3    4.87    0.87 
  -1  -6   3    3.11    0.75 
   0   6  -3    0.63    0.51 
   0   6  -3   -0.16    0.35 
   0  -6   3    0.52    0.52 
  -1   6  -3    3.30    0.63 
   1  -6   3    4.90    0.88 
   1  -6   3    4.32    0.84 
  -2   6  -3   13.54    1.34 
   2  -6   3   12.31    1.28 
   2  -6   3   11.48    1.46 
  -3   6  -3   82.50    3.11 
   3  -6   3   72.73    2.97 
   3  -6   3   81.92    3.52 
  -4   6  -3    0.32    0.52 
   4  -6   3    1.05    0.73 
   4  -6   3    1.23    0.55 
  -5   6  -3    5.48    0.98 
   5  -6   3    3.19    0.70 
   5  -6   3    4.39    1.09 
  -6   6  -3    4.09    0.91 
   6  -6   3    2.97    0.93 
  -7   6  -3    5.71    1.01 
   7  -6   3    6.73    1.38 
  -8   6  -3    0.60    0.75 
   8  -6   3    0.36    0.96 
  -9   6  -3    2.99    1.06 
   9  -6   3    1.03    1.14 
  10   5  -3    2.34    1.18 
 -10  -5   3   -0.74    0.93 
 -10  -5   3    3.13    1.19 
   9   5  -3    0.95    1.00 
  -9  -5   3    0.70    0.82 
  -9  -5   3    0.30    0.84 
   8   5  -3    2.02    0.93 
  -8  -5   3    1.74    0.81 
  -8  -5   3    0.92    0.76 
   7   5  -3    5.75    1.33 
  -7  -5   3    0.98    0.68 
  -7  -5   3    4.43    0.88 
   6   5  -3   -0.18    0.73 
  -6  -5   3    0.40    0.54 
  -6  -5   3   -0.32    0.48 
   5   5  -3   49.50    2.65 
  -5  -5   3   50.33    2.56 
  -5  -5   3   46.37    1.95 
   4   5  -3   28.54    1.90 
  -4  -5   3   26.10    1.71 
   3   5  -3    2.44    0.70 
  -3  -5   3    1.65    0.59 
   2   5  -3   10.11    0.85 
   2   5  -3   12.41    1.26 
  -2  -5   3   12.25    1.34 
   1   5  -3    3.54    0.60 
   1   5  -3    3.23    0.66 
  -1  -5   3    3.35    0.68 
   0   5  -3    0.82    0.42 
   0   5  -3   -0.14    0.29 
   0  -5   3    0.20    0.41 
  -1   5  -3    1.84    0.51 
   1  -5   3    1.13    0.51 
   1  -5   3    0.66    0.47 
  -2   5  -3    0.43    0.35 
   2  -5   3    0.96    0.46 
   2  -5   3    0.37    0.41 
  -3   5  -3   -0.13    0.36 
   3  -5   3   -0.54    0.44 
   3  -5   3    0.12    0.42 
  -4   5  -3   32.80    1.78 
   4  -5   3   32.96    2.08 
  -5   5  -3    7.36    1.03 
   5  -5   3    4.16    0.93 
  -6   5  -3   16.19    1.55 
  -6   5  -3   13.07    1.19 
   6  -5   3   12.98    1.65 
  -7   5  -3   19.77    1.58 
  -7   5  -3   17.42    1.29 
   7  -5   3   17.46    1.99 
  -8   5  -3    0.84    0.70 
  -8   5  -3    0.07    0.62 
   8  -5   3    0.81    0.85 
  -9   5  -3    5.85    1.24 
   9  -5   3    6.45    1.52 
  10  -5   3   12.67    2.03 
  11   4  -3    4.21    1.49 
 -11  -4   3    2.39    1.18 
 -11  -4   3    4.45    1.17 
  10   4  -3   -0.26    0.92 
 -10  -4   3    0.05    0.87 
 -10  -4   3    0.16    0.90 
   9   4  -3   -0.28    0.97 
  -9  -4   3    1.89    0.81 
  -9  -4   3    0.54    0.75 
   8   4  -3   19.28    2.23 
  -8  -4   3   19.39    1.73 
  -8  -4   3   21.03    1.65 
   7   4  -3    0.67    0.62 
  -7  -4   3   -0.03    0.52 
  -7  -4   3    0.74    0.60 
   6   4  -3    9.48    1.41 
  -6  -4   3    9.80    1.34 
  -6  -4   3    9.46    1.03 
   5   4  -3    0.39    0.63 
  -5  -4   3    0.35    0.34 
  -5  -4   3    0.23    0.38 
   4   4  -3   11.65    1.33 
  -4  -4   3   10.51    0.82 
  -4  -4   3   12.79    1.38 
   3   4  -3    9.21    1.11 
  -3  -4   3    9.48    0.68 
  -3  -4   3   10.72    1.25 
   2   4  -3   78.73    2.86 
  -2  -4   3   77.29    2.96 
   1   4  -3   10.61    0.89 
   1   4  -3   10.84    0.80 
  -1  -4   3   11.71    1.27 
   0   4  -3   36.39    1.58 
   0   4  -3   37.11    1.62 
   0  -4   3   38.19    1.89 
  -1   4  -3   15.33    0.99 
   1  -4   3   16.07    1.23 
   1  -4   3   16.19    1.02 
  -2   4  -3   10.16    1.03 
   2  -4   3    8.92    1.14 
  -3   4  -3   21.43    1.29 
   3  -4   3   28.47    1.75 
  -4   4  -3   11.73    1.01 
  -4   4  -3   11.38    0.80 
   4  -4   3   14.14    1.53 
  -5   4  -3    3.97    0.62 
  -5   4  -3    4.27    0.81 
   5  -4   3    5.07    0.97 
  -6   4  -3   33.71    1.83 
  -6   4  -3   34.40    1.64 
   6  -4   3   36.11    2.21 
  -7   4  -3   14.83    1.22 
  -7   4  -3   18.22    1.42 
   7  -4   3   17.62    1.97 
  -8   4  -3   25.10    1.68 
  -8   4  -3   19.71    1.54 
   8  -4   3   23.30    1.97 
  -9   4  -3    1.75    0.93 
  -9   4  -3   -0.72    0.62 
   9  -4   3    0.72    0.84 
 -10   4  -3    1.50    0.93 
  10  -4   3    1.16    1.17 
 -11   4  -3    6.29    1.35 
  11  -4   3    4.11    1.63 
  11   3  -3   -0.02    1.00 
 -11  -3   3    0.19    1.08 
  10   3  -3    0.97    1.13 
 -10  -3   3    1.02    0.94 
 -10  -3   3    2.21    0.95 
   9   3  -3    0.39    0.81 
  -9  -3   3    0.92    0.73 
  -9  -3   3    1.17    0.77 
   8   3  -3    1.37    0.80 
  -8  -3   3    1.58    0.67 
  -8  -3   3    1.75    0.72 
   7   3  -3    0.71    0.61 
  -7  -3   3    0.56    0.53 
  -7  -3   3   -0.15    0.43 
   6   3  -3   14.57    1.68 
  -6  -3   3   17.50    1.20 
  -6  -3   3   16.04    1.33 
   5   3  -3    3.39    0.86 
  -5  -3   3    4.15    0.83 
  -5  -3   3    4.53    0.69 
   4   3  -3    5.21    0.90 
  -4  -3   3    6.14    0.72 
  -4  -3   3    6.27    0.95 
   3   3  -3    0.39    0.39 
  -3  -3   3    0.34    0.24 
  -3  -3   3    1.02    0.47 
   2   3  -3   64.59    2.39 
   2   3  -3   62.98    2.07 
  -2  -3   3   63.40    1.97 
  -2  -3   3   64.76    2.45 
   1   3  -3   75.81    2.37 
   1   3  -3   73.61    2.51 
  -1  -3   3   74.31    2.66 
   0   3  -3   95.18    2.90 
   0   3  -3   98.64    2.94 
   0  -3   3   97.58    3.23 
  -1   3  -3    3.05    0.48 
   1  -3   3    4.19    0.69 
  -2   3  -3   20.51    1.11 
   2  -3   3   22.41    1.35 
  -3   3  -3    4.05    0.58 
  -3   3  -3    4.09    0.49 
   3  -3   3    4.04    0.73 
  -4   3  -3    7.91    0.75 
  -4   3  -3    7.86    0.87 
   4  -3   3    5.44    0.92 
  -5   3  -3    5.72    0.69 
  -5   3  -3    7.16    0.90 
   5  -3   3    7.38    1.14 
  -6   3  -3    1.62    0.52 
  -6   3  -3    0.76    0.51 
   6  -3   3    0.50    0.56 
  -7   3  -3   32.84    1.76 
  -7   3  -3   31.53    1.71 
   7  -3   3   32.45    2.15 
  -8   3  -3    7.98    1.14 
   8  -3   3    8.04    1.41 
  -9   3  -3   35.96    2.12 
   9  -3   3   36.79    2.55 
 -10   3  -3    1.64    0.86 
  10  -3   3    1.70    0.97 
 -11   3  -3   13.56    1.77 
  11  -3   3   20.52    2.55 
  11   2  -3    3.18    1.25 
 -11  -2   3    4.02    1.23 
  10   2  -3    1.23    0.86 
 -10  -2   3    0.13    0.83 
   9   2  -3   -0.18    0.87 
  -9  -2   3    0.67    0.63 
  -9  -2   3    1.22    0.74 
   8   2  -3   21.02    2.23 
  -8  -2   3   21.72    1.65 
  -8  -2   3   21.82    1.64 
   7   2  -3    7.78    1.24 
  -7  -2   3    7.30    1.14 
  -7  -2   3    8.99    1.07 
   6   2  -3    0.21    0.37 
  -6  -2   3    0.32    0.51 
  -6  -2   3    0.27    0.35 
   5   2  -3   32.29    1.88 
  -5  -2   3   27.85    1.63 
  -5  -2   3   28.50    1.42 
   4   2  -3   -0.25    0.33 
  -4  -2   3    0.74    0.40 
  -4  -2   3    0.65    0.28 
   3   2  -3   14.62    1.08 
  -3  -2   3   15.73    0.88 
  -3  -2   3   15.04    1.02 
   2   2  -3   18.48    1.08 
  -2  -2   3   18.70    1.09 
  -2  -2   3   19.40    0.92 
   1   2  -3   92.48    2.81 
   1   2  -3   95.05    2.72 
  -1  -2   3   95.31    2.56 
  -1  -2   3   90.86    2.90 
   0   2  -3    9.34    0.62 
   0   2  -3    7.12    0.54 
   0  -2   3    9.60    0.74 
   0  -2   3    9.41    0.51 
  -1   2  -3  125.00    3.44 
  -1   2  -3  121.33    3.19 
   1  -2   3  122.79    3.67 
  -2   2  -3   51.16    1.59 
  -2   2  -3   49.88    1.79 
   2  -2   3   47.64    1.94 
  -3   2  -3   23.47    1.15 
  -3   2  -3   23.99    1.03 
   3  -2   3   23.90    1.37 
  -4   2  -3    2.54    0.41 
  -4   2  -3    2.85    0.50 
   4  -2   3    2.08    0.59 
  -5   2  -3    2.41    0.47 
  -5   2  -3    2.83    0.55 
   5  -2   3    1.67    0.58 
  -6   2  -3    3.60    0.62 
  -6   2  -3    4.71    0.74 
   6  -2   3    5.97    1.02 
  -7   2  -3    2.92    0.65 
   7  -2   3    1.60    0.74 
  -8   2  -3   12.54    1.35 
   8  -2   3   11.05    1.54 
  -9   2  -3   55.80    2.62 
   9  -2   3   58.42    3.19 
 -10   2  -3    2.36    0.85 
  10  -2   3    2.63    1.15 
 -11   2  -3    2.95    1.00 
  11  -2   3    2.27    1.26 
  11   1  -3   -2.14    1.11 
 -11  -1   3    2.14    1.20 
  10   1  -3    1.83    1.06 
  10   1  -3    0.04    0.97 
 -10  -1   3   -0.04    0.77 
   9   1  -3    0.46    0.74 
  -9  -1   3    0.49    0.63 
   8   1  -3   17.21    2.00 
  -8  -1   3   18.52    1.44 
  -8  -1   3   16.68    1.59 
   7   1  -3    1.10    0.61 
  -7  -1   3    0.60    0.44 
  -7  -1   3    0.47    0.39 
   6   1  -3   -0.30    0.36 
  -6  -1   3    0.04    0.42 
  -6  -1   3    0.21    0.35 
   5   1  -3   39.64    2.08 
  -5  -1   3   47.33    2.01 
  -5  -1   3   44.65    1.86 
   4   1  -3   16.71    1.19 
  -4  -1   3   16.15    0.96 
  -4  -1   3   16.77    1.07 
   3   1  -3    5.03    0.73 
  -3  -1   3    6.05    0.71 
  -3  -1   3    5.15    0.59 
   2   1  -3  146.55    4.10 
  -2  -1   3  143.30    3.80 
   1   1  -3    8.49    0.55 
   1   1  -3    7.78    0.59 
  -1  -1   3    8.61    0.52 
  -1  -1   3    9.11    0.62 
   0   1  -3  736.14   16.70 
   0  -1   3  737.73   16.81 
   0  -1   3  704.06   16.53 
  -1   1  -3   40.64    1.33 
  -1   1  -3   42.06    1.46 
   1  -1   3   40.78    1.53 
  -2   1  -3    0.13    0.14 
  -2   1  -3    0.50    0.17 
   2  -1   3    0.06    0.24 
  -3   1  -3   29.48    1.22 
  -3   1  -3   30.90    1.17 
   3  -1   3   27.48    1.40 
  -4   1  -3    4.48    0.56 
  -4   1  -3    4.18    0.53 
   4  -1   3    3.58    0.69 
  -5   1  -3   20.84    1.06 
  -5   1  -3   20.13    1.09 
   5  -1   3   18.58    1.31 
  -6   1  -3    0.30    0.27 
   6  -1   3    0.15    0.37 
  -7   1  -3    0.33    0.31 
   7  -1   3    0.89    0.48 
  -8   1  -3   16.58    1.27 
   8  -1   3   17.94    1.91 
  -9   1  -3   19.95    1.84 
   9  -1   3   15.49    1.91 
 -10   1  -3   10.00    1.38 
  10  -1   3    9.43    1.55 
 -11   1  -3   26.52    2.08 
  11  -1   3   29.14    2.51 
 -12   1  -3    5.69    1.41 
  12  -1   3    4.88    1.65 
  11   0  -3   -0.67    0.96 
 -11   0   3    0.23    0.98 
  10   0  -3    2.44    1.07 
 -10   0   3   -0.38    0.72 
   9   0  -3    8.17    1.51 
  -9   0   3   10.40    1.35 
   8   0  -3    6.33    1.25 
  -8   0   3    7.66    1.11 
   7   0  -3   16.39    1.76 
  -7   0   3   15.37    1.24 
   6   0  -3    1.34    0.46 
  -6   0   3    1.39    0.55 
  -6   0   3    0.99    0.46 
   5   0  -3    0.17    0.33 
  -5   0   3    0.76    0.31 
   4   0  -3   19.63    1.29 
  -4   0   3   19.73    1.06 
   3   0  -3   11.87    0.91 
  -3   0   3   11.11    0.75 
   2   0  -3   56.11    2.00 
  -2   0   3   56.33    1.82 
   1   0  -3    5.60    0.47 
   1   0  -3    4.61    0.38 
  -1   0   3    4.91    0.49 
   0   0  -3    8.47    0.53 
   0   0   3    8.41    0.51 
   0   0   3    8.79    0.52 
  -1   0  -3  219.25    5.52 
  -1   0  -3  224.06    5.44 
   1   0   3  228.40    5.59 
  -2   0  -3    3.91    0.48 
  -2   0  -3    3.23    0.39 
   2   0   3    4.23    0.57 
  -3   0  -3  239.60    6.03 
  -3   0  -3  244.75    6.05 
   3   0   3  248.87    6.40 
  -4   0  -3    8.25    0.58 
  -4   0  -3    8.11    0.60 
   4   0   3    7.80    0.94 
  -5   0  -3   18.50    1.02 
   5   0   3   15.69    1.17 
  -6   0  -3   -0.31    0.21 
   6   0   3    0.04    0.37 
  -7   0  -3   13.48    1.03 
   7   0   3   14.92    1.59 
  -8   0  -3   53.75    2.37 
   8   0   3   53.86    2.76 
  -9   0  -3    8.41    1.18 
   9   0   3    9.42    1.52 
   9   0   3    7.27    1.11 
 -10   0  -3    1.40    0.66 
  10   0   3    1.66    0.88 
 -11   0  -3    0.42    0.74 
  11   0   3    0.07    0.95 
 -12   0  -3    2.43    1.13 
  12   0   3    0.82    1.30 
  11  -1  -3   12.44    2.01 
 -11   1   3   13.55    1.82 
  10  -1  -3    2.34    1.08 
 -10   1   3    0.22    0.76 
   9  -1  -3   26.13    2.21 
  -9   1   3   25.39    1.85 
   8  -1  -3   10.40    1.53 
  -8   1   3    9.64    1.20 
   7  -1  -3  175.62    5.89 
  -7   1   3  169.56    5.23 
   6  -1  -3   17.23    1.45 
  -6   1   3   16.41    1.15 
   5  -1  -3    1.50    0.58 
  -5   1   3    1.32    0.41 
   4  -1  -3   10.60    1.18 
  -4   1   3   11.14    0.80 
  -3   1   3   28.58    1.25 
   2  -1  -3   75.35    2.48 
   2  -1  -3   74.88    2.18 
  -2   1   3   77.34    2.29 
   1  -1  -3  114.77    3.03 
   1  -1  -3  109.37    3.11 
  -1   1   3  110.61    3.01 
   0  -1  -3  977.75   22.21 
   0  -1  -3  970.77   22.31 
   0   1   3 1000.00   22.30 
  -1  -1  -3  137.19    3.47 
  -1  -1  -3  129.83    3.48 
   1   1   3  136.29    3.48 
  -2  -1  -3    2.55    0.36 
  -2  -1  -3    2.15    0.33 
   2   1   3    2.93    0.43 
  -3  -1  -3    1.44    0.29 
  -3  -1  -3    1.99    0.33 
   3   1   3    1.82    0.44 
  -4  -1  -3    2.56    0.43 
   4   1   3    2.41    0.54 
  -5  -1  -3   39.01    1.61 
   5   1   3   37.98    1.87 
  -6  -1  -3    0.17    0.26 
   6   1   3    0.65    0.39 
  -7  -1  -3   15.95    1.10 
   7   1   3   15.12    1.65 
  -8  -1  -3    8.00    1.03 
   8   1   3    8.19    1.12 
   8   1   3    9.04    1.43 
  -9  -1  -3   77.88    3.12 
   9   1   3   73.90    3.57 
   9   1   3   77.85    3.25 
 -10  -1  -3   -0.22    0.51 
  10   1   3   -0.18    0.64 
 -11  -1  -3    3.64    1.01 
  11   1   3    4.00    1.24 
 -12  -1  -3    6.54    1.39 
  12   1   3    8.66    1.87 
  11  -2  -3    1.35    1.00 
 -11   2   3   -0.33    0.95 
  10  -2  -3    0.61    0.85 
 -10   2   3    1.03    0.83 
   9  -2  -3   -0.37    0.64 
  -9   2   3   -0.04    0.64 
   8  -2  -3    1.00    0.72 
  -8   2   3    0.38    0.54 
   7  -2  -3    7.60    1.19 
  -7   2   3    9.59    1.15 
   6  -2  -3   16.47    1.40 
  -6   2   3   15.34    1.13 
   5  -2  -3   30.91    1.83 
  -5   2   3   37.36    1.64 
   4  -2  -3   68.76    2.72 
  -4   2   3   71.22    2.38 
   3  -2  -3    8.45    0.57 
   3  -2  -3    8.44    0.97 
  -3   2   3    9.41    0.70 
   2  -2  -3   17.43    0.81 
   2  -2  -3   15.46    0.98 
  -2   2   3   16.47    0.84 
   1  -2  -3  239.01    5.84 
   1  -2  -3  233.53    6.02 
  -1   2   3  236.96    5.82 
   0  -2  -3   17.54    0.85 
   0  -2  -3   18.99    0.83 
   0   2   3   17.80    0.80 
  -1  -2  -3  408.94    9.64 
  -1  -2  -3  418.71    9.74 
  -1  -2  -3  412.20    9.68 
  -2  -2  -3  138.56    3.65 
  -2  -2  -3  142.04    3.63 
  -2  -2  -3  138.38    3.78 
  -3  -2  -3    3.42    0.46 
  -4  -2  -3    9.20    0.66 
   4   2   3   10.87    0.91 
  -5  -2  -3   13.66    0.90 
   5   2   3   14.12    1.12 
  -6  -2  -3    6.27    0.78 
   6   2   3    4.98    0.90 
   6   2   3    5.33    0.76 
  -7  -2  -3    0.13    0.32 
   7   2   3    0.58    0.44 
   7   2   3    0.56    0.42 
  -8  -2  -3    4.28    0.78 
   8   2   3    3.97    0.81 
   8   2   3    3.45    0.93 
  -9  -2  -3   18.20    1.68 
   9   2   3   12.46    1.68 
   9   2   3   15.13    1.67 
 -10  -2  -3    0.55    0.65 
  10   2   3    0.42    0.66 
  10   2   3    0.92    0.64 
 -11  -2  -3    1.51    0.80 
  11   2   3    1.32    0.99 
 -12  -2  -3    0.04    0.97 
  12   2   3   -1.06    1.03 
  11  -3  -3    9.57    1.74 
 -11   3   3    9.02    1.66 
  10  -3  -3    0.50    0.83 
 -10   3   3    0.35    0.78 
   9  -3  -3    3.66    1.05 
  -9   3   3    2.61    0.88 
   8  -3  -3    9.90    1.48 
  -8   3   3   11.05    1.31 
   7  -3  -3   37.55    2.33 
  -7   3   3   41.18    2.00 
   6  -3  -3   16.56    1.42 
  -6   3   3   17.01    1.22 
   5  -3  -3    6.70    0.94 
  -5   3   3    5.86    0.80 
  -5   3   3    7.39    0.82 
   4  -3  -3    4.36    0.78 
  -4   3   3    2.91    0.48 
  -4   3   3    3.16    0.53 
   3  -3  -3  293.08    7.72 
  -3   3   3  291.44    7.19 
  -3   3   3  278.29    7.14 
   2  -3  -3  162.22    4.75 
   2  -3  -3  168.29    4.44 
  -2   3   3  166.09    4.33 
   1  -3  -3    1.61    0.42 
   1  -3  -3    1.19    0.29 
  -1   3   3    0.63    0.22 
   0  -3  -3  130.46    3.66 
   0  -3  -3  131.04    3.53 
   0   3   3  130.86    3.44 
  -1  -3  -3   78.57    2.43 
  -1  -3  -3   81.48    2.38 
  -1  -3  -3   84.79    2.34 
  -2  -3  -3    5.58    0.45 
  -2  -3  -3    6.55    0.68 
  -2  -3  -3    6.76    0.50 
  -2  -3  -3    7.26    0.56 
  -3  -3  -3   39.02    1.66 
  -3  -3  -3   40.20    1.45 
  -4  -3  -3   38.60    1.54 
  -4  -3  -3   40.64    1.85 
   4   3   3   42.97    1.65 
  -5  -3  -3   41.14    1.98 
  -5  -3  -3   41.70    1.69 
   5   3   3   42.79    1.79 
  -6  -3  -3   50.70    2.33 
  -6  -3  -3   47.60    1.98 
   6   3   3   51.20    2.17 
  -7  -3  -3   17.81    1.19 
   7   3   3   17.65    1.52 
   7   3   3   16.57    1.31 
  -8  -3  -3    0.62    0.44 
   8   3   3    0.12    0.50 
   8   3   3   -0.78    0.48 
  -9  -3  -3    3.51    0.78 
   9   3   3    3.73    0.97 
   9   3   3    3.05    0.85 
 -10  -3  -3    2.68    0.85 
  10   3   3    2.44    0.96 
  10   3   3    1.24    0.81 
 -11  -3  -3   -0.17    0.73 
  11   3   3    0.94    0.93 
 -12  -3  -3   -0.01    1.02 
  12   3   3   -0.56    1.06 
  11  -4  -3    2.74    1.22 
 -11   4   3    2.72    1.20 
  10  -4  -3    4.56    1.40 
 -10   4   3    8.02    1.41 
   9  -4  -3    0.98    0.87 
  -9   4   3    2.43    0.87 
   8  -4  -3    2.24    0.93 
  -8   4   3    1.26    0.72 
   7  -4  -3    1.28    0.70 
  -7   4   3    0.60    0.50 
   6  -4  -3    0.03    0.48 
  -6   4   3   -0.22    0.38 
  -6   4   3   -0.59    0.38 
   5  -4  -3    1.39    0.57 
  -5   4   3    1.11    0.40 
  -5   4   3    1.20    0.42 
   4  -4  -3    0.89    0.45 
  -4   4   3    0.09    0.30 
  -4   4   3    0.12    0.33 
   3  -4  -3    3.05    0.64 
  -3   4   3    1.97    0.42 
  -3   4   3    2.39    0.48 
   2  -4  -3    1.85    0.50 
  -2   4   3    1.60    0.37 
  -2   4   3    1.14    0.36 
   1  -4  -3   50.04    2.02 
  -1   4   3   50.18    1.66 
  -1   4   3   52.54    1.88 
   0  -4  -3   55.08    2.04 
   0   4   3   54.47    1.72 
  -1  -4  -3   20.56    0.99 
  -1  -4  -3   21.18    1.10 
  -1  -4  -3   21.90    1.01 
   1   4   3   20.99    0.90 
  -2  -4  -3   59.91    2.15 
  -2  -4  -3   61.73    1.96 
  -2  -4  -3   58.84    2.14 
  -2  -4  -3   65.17    1.94 
  -3  -4  -3    9.90    0.82 
  -3  -4  -3    9.25    0.65 
  -3  -4  -3    9.98    0.80 
  -4  -4  -3    4.80    0.81 
  -4  -4  -3    4.63    0.58 
   4   4   3    6.80    0.83 
  -5  -4  -3   34.97    1.53 
  -5  -4  -3   34.98    1.87 
   5   4   3   38.55    1.78 
  -6  -4  -3    2.98    0.57 
  -6  -4  -3    3.60    0.89 
   6   4   3    4.35    0.76 
  -7  -4  -3   16.15    1.35 
  -7  -4  -3   18.79    1.25 
   7   4   3   16.84    1.37 
  -8  -4  -3    2.57    0.64 
  -8  -4  -3    3.18    0.80 
   8   4   3    2.38    0.72 
  -9  -4  -3    2.19    0.71 
   9   4   3    0.67    0.63 
   9   4   3    0.13    0.59 
 -10  -4  -3    0.12    0.70 
  10   4   3   -0.23    0.73 
  10   4   3    0.08    0.61 
 -11  -4  -3    4.07    1.14 
  11   4   3    3.84    1.25 
  11   4   3    2.45    1.12 
 -12  -4  -3   16.51    2.07 
  12   4   3   13.37    2.14 
  10  -5  -3   11.19    1.89 
 -10   5   3    9.94    1.57 
   9  -5  -3    3.01    1.11 
  -9   5   3    3.20    0.94 
   8  -5  -3   -0.06    0.59 
  -8   5   3    0.04    0.61 
   7  -5  -3   -0.18    0.59 
  -7   5   3   -0.10    0.46 
  -7   5   3    0.97    0.60 
   6  -5  -3    0.87    0.60 
  -6   5   3    1.62    0.63 
  -6   5   3    1.20    0.55 
   5  -5  -3    0.97    0.61 
  -5   5   3    1.00    0.47 
  -5   5   3    0.67    0.41 
   4  -5  -3   33.17    1.94 
  -4   5   3   32.06    1.48 
  -4   5   3   32.59    1.60 
   3  -5  -3   -0.07    0.35 
  -3   5   3    0.20    0.36 
  -3   5   3    0.23    0.30 
   2  -5  -3   89.70    3.25 
  -2   5   3   88.37    2.65 
  -2   5   3   89.85    2.94 
   1  -5  -3   18.16    1.24 
  -1   5   3   17.66    1.07 
  -1   5   3   17.55    0.84 
   0  -5  -3    0.60    0.38 
   0   5   3    0.18    0.27 
  -1  -5  -3    5.00    0.76 
  -1  -5  -3    4.86    0.66 
   1   5   3    4.89    0.62 
  -2  -5  -3    0.37    0.35 
  -2  -5  -3   -0.01    0.18 
  -2  -5  -3   -0.12    0.24 
   2   5   3    0.37    0.25 
  -3  -5  -3    0.08    0.28 
  -3  -5  -3    0.30    0.24 
  -3  -5  -3   -0.06    0.31 
   3   5   3    0.41    0.26 
  -4  -5  -3   44.83    1.70 
  -4  -5  -3   45.48    2.11 
   4   5   3   45.00    2.05 
  -5  -5  -3    1.51    0.59 
  -5  -5  -3    1.50    0.45 
   5   5   3    2.59    0.61 
  -6  -5  -3  126.12    4.44 
  -6  -5  -3  123.40    3.76 
   6   5   3  118.44    4.18 
  -7  -5  -3   15.39    1.79 
  -7  -5  -3   20.22    1.29 
   7   5   3   14.59    1.61 
  -8  -5  -3   12.46    1.33 
  -8  -5  -3   10.63    1.56 
   8   5   3    7.79    1.25 
  -9  -5  -3    7.99    1.26 
  -9  -5  -3    8.43    1.50 
   9   5   3    6.85    1.32 
 -10  -5  -3   -0.47    0.71 
  10   5   3    0.95    0.84 
  10   5   3   -0.61    0.73 
 -11  -5  -3    1.27    0.87 
  11   5   3   -0.49    0.88 
  11   5   3    0.13    0.87 
 -12  -5  -3    6.92    1.50 
  12   5   3    4.48    1.33 
  10  -6  -3    0.94    1.19 
 -10   6   3    2.35    1.13 
   9  -6  -3    0.98    1.02 
  -9   6   3    1.60    0.87 
   8  -6  -3    5.05    1.22 
  -8   6   3    6.45    1.10 
  -8   6   3    5.05    1.02 
   7  -6  -3    1.63    0.91 
  -7   6   3    3.44    0.80 
  -7   6   3    3.56    0.83 
   6  -6  -3   -0.41    0.60 
  -6   6   3    0.56    0.56 
  -6   6   3    0.15    0.48 
   5  -6  -3    1.58    0.66 
  -5   6   3    1.74    0.54 
  -5   6   3    2.99    0.67 
   4  -6  -3   -0.51    0.41 
  -4   6   3   -0.04    0.40 
  -4   6   3    0.24    0.36 
   3  -6  -3    3.91    0.72 
  -3   6   3    3.77    0.60 
  -3   6   3    6.16    0.89 
   2  -6  -3    4.10    0.74 
  -2   6   3    4.33    0.73 
   1  -6  -3    9.59    1.14 
  -1   6   3    9.47    1.02 
   0  -6  -3    0.01    0.41 
   0   6   3    0.09    0.34 
  -1  -6  -3   39.44    1.92 
  -1  -6  -3   38.12    1.75 
   1   6   3   43.01    1.79 
  -2  -6  -3   -0.03    0.32 
  -2  -6  -3    0.21    0.40 
   2   6   3    0.06    0.31 
  -3  -6  -3   21.53    1.06 
  -3  -6  -3   20.28    1.38 
  -3  -6  -3   23.66    1.50 
   3   6   3   24.30    1.23 
  -4  -6  -3    0.80    0.36 
  -4  -6  -3    1.44    0.58 
   4   6   3    2.51    0.64 
  -5  -6  -3    1.43    0.47 
  -5  -6  -3    2.93    0.72 
   5   6   3    1.44    0.55 
  -6  -6  -3   51.87    2.62 
  -6  -6  -3   55.20    2.16 
   6   6   3   51.27    2.53 
  -7  -6  -3   21.14    1.80 
  -7  -6  -3   20.71    1.34 
   7   6   3   20.70    1.63 
  -8  -6  -3   10.96    1.64 
  -8  -6  -3   11.83    1.26 
   8   6   3   10.30    1.48 
  -9  -6  -3   -0.76    0.54 
  -9  -6  -3    1.32    0.76 
   9   6   3   -0.70    0.65 
 -10  -6  -3    8.69    1.31 
 -10  -6  -3    8.91    1.59 
  10   6   3    7.79    1.59 
 -11  -6  -3   -0.41    0.90 
  11   6   3    0.63    1.17 
  11   6   3   -0.39    0.99 
   9  -7  -3   -0.45    1.05 
   8  -7  -3    2.73    1.15 
  -8   7   3    3.30    1.07 
   7  -7  -3    0.28    0.76 
  -7   7   3    0.59    0.76 
   6  -7  -3    4.65    0.98 
  -6   7   3    5.43    0.96 
  -6   7   3    3.33    1.00 
   5  -7  -3   -0.10    0.52 
  -5   7   3   -0.02    0.55 
  -5   7   3    0.26    0.48 
   4  -7  -3    3.86    0.90 
  -4   7   3    3.78    0.65 
  -4   7   3    4.80    0.86 
   3  -7  -3   28.91    1.92 
  -3   7   3   31.53    1.77 
   2  -7  -3    8.81    1.22 
  -2   7   3    8.35    1.02 
   1  -7  -3    7.38    1.02 
  -1   7   3    7.98    0.97 
   0  -7  -3   20.69    1.36 
   0  -7  -3   22.58    1.55 
   0   7   3   22.90    1.32 
  -1  -7  -3    2.49    0.66 
  -1  -7  -3    2.40    0.64 
   1   7   3    3.29    0.57 
  -2  -7  -3    0.38    0.45 
  -2  -7  -3    1.46    0.51 
   2   7   3    0.61    0.44 
  -3  -7  -3   -0.09    0.35 
  -3  -7  -3   -0.23    0.40 
   3   7   3   -0.09    0.37 
  -4  -7  -3   16.70    1.39 
   4   7   3   16.82    1.67 
  -5  -7  -3    6.16    0.81 
  -5  -7  -3    5.93    1.12 
   5   7   3    5.75    1.01 
  -6  -7  -3   13.49    1.09 
  -6  -7  -3   15.25    1.78 
   6   7   3   12.10    1.49 
  -7  -7  -3    5.57    0.85 
  -7  -7  -3    7.41    1.33 
   7   7   3    6.74    1.25 
  -8  -7  -3   24.20    2.48 
  -8  -7  -3   25.38    1.66 
   8   7   3   23.85    2.36 
  -9  -7  -3    0.79    1.07 
  -9  -7  -3    0.96    0.81 
   9   7   3    0.31    0.88 
 -10  -7  -3    1.66    0.93 
 -10  -7  -3    3.06    1.02 
  10   7   3    1.22    1.04 
 -11  -7  -3    2.26    1.00 
 -11  -7  -3    0.54    0.95 
  11   7   3    0.86    1.07 
   8  -8  -3    7.78    1.53 
  -8   8   3    9.14    1.56 
   7  -8  -3    3.71    1.06 
  -7   8   3    4.02    1.15 
   6  -8  -3    6.13    1.31 
  -6   8   3    7.56    1.25 
   5  -8  -3    6.09    1.14 
  -5   8   3    9.10    1.23 
   4  -8  -3    2.70    0.90 
  -4   8   3    4.43    0.87 
   3  -8  -3   36.07    2.34 
  -3   8   3   41.19    2.16 
   2  -8  -3   10.53    1.45 
  -2   8   3   12.92    1.37 
   1  -8  -3   25.22    1.75 
  -1   8   3   27.39    1.61 
   0  -8  -3   95.23    3.77 
   0  -8  -3   90.30    3.46 
   0   8   3  103.34    3.53 
  -1  -8  -3   17.34    1.37 
  -1  -8  -3   17.66    1.78 
   1   8   3   15.96    1.19 
  -2  -8  -3    0.38    0.51 
  -2  -8  -3   -0.01    0.51 
   2   8   3   -0.08    0.34 
  -3  -8  -3    1.53    0.64 
  -3  -8  -3    2.07    0.75 
   3   8   3    1.79    0.48 
  -4  -8  -3    1.88    0.73 
   4   8   3    2.38    0.75 
  -5  -8  -3   21.10    2.15 
   5   8   3   15.42    1.71 
  -6  -8  -3    0.46    0.75 
   6   8   3    1.17    0.68 
  -7  -8  -3   23.75    2.39 
   7   8   3   17.21    2.00 
  -8  -8  -3   27.17    2.26 
   8   8   3   25.22    2.14 
  -9  -8  -3    5.25    1.48 
   9   8   3    5.40    1.36 
 -10  -8  -3    1.20    0.98 
  10   8   3    1.04    1.12 
   7  -9  -3    5.01    1.40 
  -7   9   3    6.64    1.40 
   6  -9  -3    3.90    1.23 
  -6   9   3    3.57    1.12 
   5  -9  -3    0.63    0.78 
  -5   9   3   -0.82    0.78 
   4  -9  -3   34.46    2.43 
  -4   9   3   38.37    2.31 
   3  -9  -3    2.23    0.86 
  -3   9   3    2.21    0.78 
   2  -9  -3   16.23    1.80 
  -2   9   3   16.16    1.63 
   1  -9  -3    1.70    0.83 
   1  -9  -3    1.30    0.76 
  -1   9   3    2.33    0.63 
   0  -9  -3    0.80    0.68 
   0  -9  -3    0.49    0.67 
   0   9   3    1.41    0.57 
  -1  -9  -3   47.13    2.43 
  -1  -9  -3   45.84    2.57 
   1   9   3   46.35    2.25 
  -2  -9  -3   21.82    1.72 
  -2  -9  -3   21.76    1.80 
   2   9   3   18.87    1.38 
  -3  -9  -3    1.02    0.66 
  -3  -9  -3    0.71    0.67 
   3   9   3   -0.12    0.41 
  -4  -9  -3   19.47    2.01 
   4   9   3   18.39    2.05 
  -5  -9  -3   10.35    1.54 
   5   9   3    7.90    1.29 
  -6  -9  -3    8.04    1.54 
   6   9   3    4.14    1.07 
  -7  -9  -3    1.56    0.91 
   7   9   3   -0.38    0.71 
  -8  -9  -3    0.98    1.13 
   8   9   3    4.25    1.19 
  -9  -9  -3    2.29    1.33 
   9   9   3    2.34    1.16 
   6 -10  -3    2.95    1.22 
  -6  10   3    0.90    1.15 
   5 -10  -3    4.10    1.30 
  -5  10   3    5.82    1.36 
   4 -10  -3    3.48    1.04 
  -4  10   3    4.53    1.19 
   3 -10  -3   18.30    2.16 
  -3  10   3   19.07    2.05 
   2 -10  -3    0.72    0.82 
  -2  10   3    2.13    0.70 
   1 -10  -3   10.02    1.54 
   1 -10  -3    9.98    1.48 
  -1  10   3   11.35    1.39 
   0 -10  -3   41.83    2.43 
   0 -10  -3   37.90    2.52 
   0  10   3   38.82    2.19 
  -1 -10  -3   13.62    1.71 
  -1 -10  -3   12.85    1.69 
   1  10   3   10.66    1.29 
  -2 -10  -3   16.34    1.87 
  -2 -10  -3   10.11    1.66 
   2  10   3   11.19    1.31 
  -3 -10  -3   59.12    3.08 
  -3 -10  -3   61.57    3.32 
   3  10   3   59.87    2.72 
  -4 -10  -3   15.13    1.87 
   4  10   3   10.64    1.63 
   4  10   3   14.86    1.44 
  -5 -10  -3    4.73    1.21 
   5  10   3    3.61    1.08 
  -6 -10  -3    0.34    0.99 
   6  10   3   -0.24    0.80 
  -7 -10  -3    0.79    1.05 
   7  10   3    0.09    0.91 
  -8 -10  -3   -0.49    1.26 
   8  10   3   -0.32    0.98 
   5 -11  -3    0.11    0.95 
  -5  11   3   -1.79    1.03 
   4 -11  -3    2.60    1.17 
  -4  11   3    3.70    1.21 
   3 -11  -3    1.74    1.22 
  -3  11   3    2.34    0.97 
   2 -11  -3   -0.47    0.85 
  -2  11   3    2.57    0.93 
   1 -11  -3    1.42    0.97 
  -1  11   3    1.54    0.71 
   0 -11  -3    1.57    0.90 
   0 -11  -3    1.57    0.97 
   0  11   3    2.56    0.85 
  -1 -11  -3    0.36    0.74 
  -1 -11  -3    0.29    1.05 
   1  11   3    1.33    0.76 
  -2 -11  -3   15.43    1.94 
  -2 -11  -3   15.98    1.97 
   2  11   3   15.62    1.64 
  -3 -11  -3    0.89    0.99 
  -3 -11  -3    2.28    1.08 
   3  11   3    1.89    0.81 
  -4 -11  -3   57.99    3.39 
   4  11   3   63.23    3.60 
  -5 -11  -3    0.76    1.15 
   5  11   3    0.17    0.97 
  -6 -11  -3   16.74    2.34 
   6  11   3   15.05    2.16 
  -7 -11  -3   -0.17    1.21 
   7  11   3    0.30    1.00 
   2 -12  -3    2.14    1.10 
  -2  12   3    4.59    1.25 
   1 -12  -3    0.99    1.05 
  -1  12   3    1.98    0.96 
   0 -12  -3    2.52    1.07 
   0  12   3    1.57    0.97 
  -1 -12  -3    2.50    1.08 
  -1 -12  -3    4.18    1.44 
   1  12   3    5.21    1.23 
  -2 -12  -3   -1.13    0.91 
  -2 -12  -3   -1.48    1.08 
   2  12   3    1.39    0.86 
  -3 -12  -3    3.23    1.50 
   3  12   3    4.59    1.07 
  -4 -12  -3   25.43    2.78 
   4  12   3   26.89    2.78 
  -5 -12  -3    1.64    1.54 
   5  12   3    2.97    1.25 
   4  10  -4   20.39    2.58 
  -4 -10   4   18.43    2.36 
   3  10  -4   -0.33    1.38 
  -3 -10   4   -0.85    1.20 
   2  10  -4    0.40    0.92 
   2  10  -4    2.39    1.42 
  -2 -10   4   -0.17    1.29 
   1  10  -4    2.48    1.26 
   1  10  -4    1.86    1.43 
  -1 -10   4    2.39    1.40 
   0  10  -4    0.75    0.98 
   0  10  -4    0.20    1.34 
   0 -10   4   -0.89    1.10 
  -1  10  -4    2.58    1.18 
  -1  10  -4    4.07    1.47 
   1 -10   4    1.60    1.53 
  -2  10  -4    2.03    1.10 
   2 -10   4    1.14    1.48 
  -3  10  -4   15.02    2.00 
   3 -10   4   10.15    2.00 
   6   9  -4    0.72    1.37 
  -6  -9   4    0.60    1.01 
   5   9  -4   -0.04    1.29 
  -5  -9   4   -1.29    0.90 
   4   9  -4    1.77    1.25 
  -4  -9   4    1.31    0.99 
   3   9  -4    0.75    1.16 
  -3  -9   4    1.34    1.08 
   2   9  -4    8.50    1.28 
   2   9  -4    9.13    1.61 
  -2  -9   4    7.35    1.51 
   1   9  -4    3.97    1.02 
   1   9  -4    4.00    1.33 
  -1  -9   4    4.08    1.38 
   0   9  -4    3.31    1.18 
   0   9  -4    1.32    0.92 
   0  -9   4    0.97    1.13 
  -1   9  -4    2.25    1.03 
  -1   9  -4    0.41    1.08 
   1  -9   4    1.72    1.08 
  -2   9  -4    1.13    0.91 
   2  -9   4    1.52    1.17 
  -3   9  -4    0.64    0.83 
   3  -9   4    1.33    1.10 
  -4   9  -4    3.40    1.17 
   4  -9   4    2.64    1.48 
  -5   9  -4    2.92    1.20 
   5  -9   4    6.67    1.81 
  -6   9  -4    2.15    1.22 
   6  -9   4    0.86    1.49 
   7   8  -4    4.92    1.76 
  -7  -8   4    5.02    1.35 
   6   8  -4    1.02    1.30 
  -6  -8   4    1.33    0.97 
   5   8  -4    1.55    1.21 
  -5  -8   4    0.98    0.95 
   4   8  -4    8.66    1.52 
  -4  -8   4    7.63    1.47 
   3   8  -4    1.40    0.94 
   3   8  -4    1.05    0.64 
  -3  -8   4    0.39    0.79 
   2   8  -4    0.44    0.74 
   2   8  -4    0.95    0.93 
  -2  -8   4    1.67    0.74 
   1   8  -4    1.39    0.98 
   1   8  -4    1.09    0.79 
  -1  -8   4    3.08    1.02 
   0   8  -4   28.52    2.00 
   0   8  -4   37.05    2.32 
   0  -8   4   30.11    2.30 
  -1   8  -4   -0.16    0.62 
  -1   8  -4   -0.59    0.84 
   1  -8   4    1.69    0.84 
  -2   8  -4    0.17    0.69 
   2  -8   4    0.19    0.81 
   2  -8   4    0.01    0.61 
  -3   8  -4    0.66    0.76 
   3  -8   4   -0.44    0.88 
  -4   8  -4   25.62    2.03 
   4  -8   4   24.60    2.59 
  -5   8  -4    0.59    0.86 
   5  -8   4    0.66    1.17 
  -6   8  -4    0.28    0.97 
   6  -8   4    0.63    1.23 
  -7   8  -4    8.98    1.53 
   7  -8   4    4.51    1.67 
   8   7  -4    8.01    2.08 
  -8  -7   4   10.47    1.78 
   7   7  -4   19.73    2.52 
  -7  -7   4   20.74    2.42 
   6   7  -4    2.29    1.29 
  -6  -7   4    3.16    1.08 
   5   7  -4   14.49    2.01 
  -5  -7   4   12.98    1.78 
   4   7  -4    1.57    0.94 
  -4  -7   4   -0.15    0.61 
   3   7  -4    1.62    0.92 
   3   7  -4    3.36    0.76 
  -3  -7   4    3.59    0.98 
   2   7  -4    2.31    0.72 
   2   7  -4    2.75    0.95 
  -2  -7   4    2.10    0.72 
   1   7  -4    0.01    0.56 
   1   7  -4    0.83    0.72 
  -1  -7   4   -0.20    0.46 
   0   7  -4    0.40    0.58 
   0   7  -4   -0.18    0.66 
   0  -7   4    0.98    0.66 
  -1   7  -4    5.89    1.13 
  -1   7  -4    5.37    0.95 
   1  -7   4    6.56    1.28 
  -2   7  -4   20.25    1.61 
   2  -7   4   24.38    2.03 
   2  -7   4   19.89    1.55 
  -3   7  -4   -0.35    0.52 
   3  -7   4    0.01    0.76 
   3  -7   4   -0.04    0.59 
  -4   7  -4    1.93    0.83 
   4  -7   4    0.10    0.79 
  -5   7  -4   23.21    1.85 
   5  -7   4   20.31    2.39 
  -6   7  -4   29.31    2.15 
   6  -7   4   30.52    2.61 
  -7   7  -4    3.42    1.03 
   7  -7   4    2.51    1.18 
  -8   7  -4    0.07    1.08 
   8  -7   4   -0.70    1.31 
   9   6  -4    0.15    1.65 
  -9  -6   4    1.94    0.86 
   8   6  -4    7.50    1.83 
  -8  -6   4    4.37    1.17 
   7   6  -4   -1.01    0.93 
  -7  -6   4    0.09    0.83 
   6   6  -4    2.81    1.04 
  -6  -6   4    2.63    0.82 
   5   6  -4    1.03    0.79 
  -5  -6   4   -0.04    0.65 
   4   6  -4    1.03    0.86 
  -4  -6   4    0.54    0.62 
   3   6  -4    4.63    1.02 
  -3  -6   4    2.72    0.82 
   2   6  -4    1.35    0.73 
   2   6  -4    0.77    0.50 
  -2  -6   4    0.98    0.47 
   1   6  -4    0.65    0.51 
   1   6  -4    0.06    0.47 
  -1  -6   4   -0.04    0.39 
   0   6  -4   19.77    1.46 
   0   6  -4   18.31    1.35 
   0  -6   4   19.93    1.56 
  -1   6  -4    6.01    0.95 
  -1   6  -4    6.71    0.97 
   1  -6   4    8.11    1.26 
  -2   6  -4   10.91    1.27 
   2  -6   4    9.84    1.40 
   2  -6   4   10.40    1.25 
  -3   6  -4   12.91    1.45 
   3  -6   4   11.76    1.54 
  -4   6  -4   21.27    1.61 
   4  -6   4   23.56    1.92 
  -5   6  -4   37.06    2.16 
   5  -6   4   35.14    2.47 
  -6   6  -4   34.25    2.17 
   6  -6   4   35.50    2.59 
  -7   6  -4    3.58    1.00 
   7  -6   4    2.48    1.15 
  -8   6  -4   -0.71    0.83 
   8  -6   4   -0.14    1.05 
  -9   6  -4    5.65    1.34 
   9  -6   4    6.78    1.81 
  10   5  -4    2.92    1.17 
 -10  -5   4   -1.40    1.10 
 -10  -5   4    1.38    1.07 
   9   5  -4   -0.55    0.96 
  -9  -5   4   -0.07    0.89 
  -9  -5   4    0.56    0.88 
   8   5  -4    0.00    1.17 
  -8  -5   4   -0.16    0.78 
  -8  -5   4    0.94    0.90 
   7   5  -4    1.59    1.02 
  -7  -5   4    2.87    0.84 
  -7  -5   4    1.71    0.80 
   6   5  -4   15.83    1.92 
  -6  -5   4   15.15    1.80 
  -6  -5   4   13.81    1.30 
   5   5  -4   21.98    2.15 
  -5  -5   4   22.79    1.36 
  -5  -5   4   20.25    1.70 
   4   5  -4    1.05    0.78 
  -4  -5   4   -0.17    0.41 
  -4  -5   4   -0.35    0.41 
   3   5  -4   12.04    1.40 
  -3  -5   4    8.66    1.19 
   2   5  -4   -0.38    0.49 
   2   5  -4    0.59    0.37 
  -2  -5   4    0.57    0.45 
   1   5  -4    3.03    0.60 
   1   5  -4    4.66    0.77 
  -1  -5   4    5.67    1.00 
   0   5  -4    8.68    1.00 
   0   5  -4    7.43    0.95 
   0  -5   4    6.71    1.02 
  -1   5  -4   25.36    1.43 
  -1   5  -4   26.31    1.49 
   1  -5   4   24.05    1.66 
  -2   5  -4    9.00    1.06 
   2  -5   4   10.28    1.34 
   2  -5   4    8.34    1.01 
  -3   5  -4    1.29    0.51 
   3  -5   4    0.40    0.56 
  -4   5  -4    9.07    1.15 
   4  -5   4    7.80    1.34 
  -5   5  -4    2.69    0.78 
  -5   5  -4    2.98    0.85 
   5  -5   4    1.92    0.93 
  -6   5  -4    6.68    1.06 
   6  -5   4    7.07    1.27 
  -7   5  -4    1.63    0.80 
   7  -5   4    1.04    0.87 
  -8   5  -4    3.40    1.03 
   8  -5   4    3.15    1.13 
  -9   5  -4    1.98    1.03 
   9  -5   4    2.59    1.11 
  10  -5   4   32.20    2.88 
  10   4  -4    2.35    1.40 
 -10  -4   4    4.66    1.19 
 -10  -4   4    5.04    1.31 
   9   4  -4    2.54    1.11 
  -9  -4   4    1.16    0.91 
  -9  -4   4    1.16    0.86 
   8   4  -4    0.60    0.96 
  -8  -4   4    0.05    0.71 
  -8  -4   4    0.55    0.63 
   7   4  -4    0.95    0.90 
  -7  -4   4    0.21    0.60 
  -7  -4   4   -0.83    0.57 
   6   4  -4    0.66    0.81 
  -6  -4   4    2.18    0.67 
  -6  -4   4    1.66    0.73 
   5   4  -4   26.89    1.98 
  -5  -4   4   26.13    1.49 
  -5  -4   4   26.07    1.75 
   4   4  -4   24.61    1.77 
  -4  -4   4   22.64    1.26 
  -4  -4   4   26.26    1.63 
   3   4  -4    0.60    0.49 
  -3  -4   4    0.86    0.37 
  -3  -4   4    1.12    0.51 
   2   4  -4    1.29    0.39 
   2   4  -4    1.33    0.53 
  -2  -4   4    0.79    0.46 
   1   4  -4   53.72    2.07 
   1   4  -4   51.64    2.15 
  -1  -4   4   56.79    2.49 
   0   4  -4    9.88    0.98 
   0   4  -4    9.17    0.95 
   0  -4   4    8.76    1.13 
  -1   4  -4   28.32    1.36 
  -1   4  -4   28.08    1.49 
   1  -4   4   27.00    1.68 
  -2   4  -4    1.01    0.40 
   2  -4   4    1.47    0.57 
  -3   4  -4   11.89    1.00 
   3  -4   4   12.43    1.46 
  -4   4  -4    2.40    0.57 
  -4   4  -4    1.97    0.47 
   4  -4   4    1.50    0.58 
  -5   4  -4  125.99    4.20 
  -5   4  -4  125.76    3.82 
   5  -4   4  131.79    4.69 
  -6   4  -4    0.59    0.48 
  -6   4  -4    1.62    0.66 
   6  -4   4    1.45    0.70 
  -7   4  -4    1.20    0.61 
  -7   4  -4    3.57    0.88 
   7  -4   4    1.52    0.88 
  -8   4  -4    0.17    0.71 
  -8   4  -4    0.72    0.62 
   8  -4   4   -0.03    0.71 
  -9   4  -4    1.55    0.78 
  -9   4  -4   -0.45    0.59 
   9  -4   4   -0.70    0.90 
 -10   4  -4    0.11    0.72 
  10  -4   4    0.19    1.20 
  10   3  -4   -0.78    1.04 
 -10  -3   4   -1.02    0.88 
 -10  -3   4    0.61    0.94 
   9   3  -4   -0.85    0.82 
  -9  -3   4    0.75    0.77 
  -9  -3   4    0.56    0.78 
   8   3  -4    0.68    0.73 
  -8  -3   4    0.58    0.67 
  -8  -3   4    0.74    0.65 
   7   3  -4   13.64    1.82 
  -7  -3   4   16.76    1.36 
  -7  -3   4   15.67    1.74 
   6   3  -4    0.81    0.70 
  -6  -3   4    1.23    0.63 
  -6  -3   4    1.39    0.52 
   5   3  -4    5.03    1.01 
  -5  -3   4    6.23    0.82 
  -5  -3   4    5.59    0.91 
   4   3  -4    6.36    1.02 
  -4  -3   4    4.78    0.69 
  -4  -3   4    4.63    0.90 
   3   3  -4   38.13    1.98 
  -3  -3   4   39.21    1.99 
  -3  -3   4   41.95    1.63 
   2   3  -4   30.68    1.58 
   2   3  -4   33.13    1.42 
  -2  -3   4   30.84    1.66 
  -2  -3   4   30.18    1.33 
   1   3  -4   45.15    1.74 
   1   3  -4   39.65    1.76 
  -1  -3   4   41.27    1.48 
  -1  -3   4   44.69    1.99 
   0   3  -4  272.86    7.05 
   0   3  -4  269.09    6.96 
   0  -3   4  283.15    7.47 
  -1   3  -4   47.35    1.88 
   1  -3   4   47.93    2.15 
  -2   3  -4    0.10    0.28 
  -2   3  -4    0.21    0.23 
   2  -3   4    0.13    0.35 
  -3   3  -4    0.25    0.28 
  -3   3  -4    0.49    0.29 
   3  -3   4   -0.07    0.38 
  -4   3  -4   34.70    1.50 
  -4   3  -4   32.43    1.67 
   4  -3   4   38.39    2.02 
  -5   3  -4    3.12    0.55 
  -5   3  -4    4.24    0.76 
   5  -3   4    3.41    0.83 
  -6   3  -4   10.16    1.06 
  -6   3  -4   13.68    1.34 
   6  -3   4   11.03    1.47 
  -7   3  -4    0.02    0.41 
  -7   3  -4    0.60    0.58 
   7  -3   4    0.80    0.70 
  -8   3  -4    2.64    0.77 
  -8   3  -4    1.08    0.52 
   8  -3   4    2.17    0.97 
  -9   3  -4   17.70    1.70 
   9  -3   4   19.33    2.36 
 -10   3  -4   27.90    1.95 
  10  -3   4   32.43    3.17 
 -11   3  -4   10.70    1.56 
  11  -3   4    7.97    1.90 
  11   2  -4    0.59    1.18 
 -11  -2   4   -0.25    1.07 
  10   2  -4    5.44    1.48 
 -10  -2   4    4.97    1.16 
   9   2  -4    0.06    0.81 
  -9  -2   4    0.08    0.72 
  -9  -2   4    1.27    0.76 
   8   2  -4   17.76    2.13 
  -8  -2   4   15.08    1.71 
  -8  -2   4   17.30    1.66 
   7   2  -4    1.01    0.64 
  -7  -2   4    1.23    0.58 
  -7  -2   4    0.61    0.52 
   6   2  -4    4.68    1.06 
  -6  -2   4    3.85    0.82 
  -6  -2   4    4.56    0.76 
   5   2  -4    3.66    0.86 
  -5  -2   4    5.00    0.77 
  -5  -2   4    6.12    0.98 
   4   2  -4   37.27    2.01 
  -4  -2   4   43.93    2.00 
  -4  -2   4   40.74    1.73 
   3   2  -4    1.60    0.53 
  -3  -2   4    0.46    0.31 
  -3  -2   4    0.56    0.42 
   2   2  -4   76.25    2.73 
   2   2  -4   81.47    2.52 
  -2  -2   4   79.00    2.45 
  -2  -2   4   77.79    2.73 
   1   2  -4    9.23    0.71 
   1   2  -4    8.77    0.72 
  -1  -2   4   11.52    0.87 
  -1  -2   4    9.19    0.62 
   0   2  -4  103.43    3.10 
   0  -2   4   99.62    2.84 
   0  -2   4  103.98    3.31 
  -1   2  -4   20.18    1.05 
   1  -2   4   20.18    1.21 
   1  -2   4   18.63    0.88 
  -2   2  -4    0.21    0.22 
  -2   2  -4    0.08    0.20 
   2  -2   4    0.36    0.34 
  -3   2  -4   42.89    1.78 
  -3   2  -4   44.65    1.65 
   3  -2   4   48.06    2.12 
  -4   2  -4    1.74    0.45 
  -4   2  -4    1.58    0.37 
   4  -2   4    1.43    0.57 
  -5   2  -4    8.17    0.94 
  -5   2  -4    7.80    0.84 
   5  -2   4    8.98    1.22 
  -6   2  -4    1.46    0.49 
  -6   2  -4    1.51    0.46 
   6  -2   4    0.99    0.54 
  -7   2  -4   14.26    1.34 
  -7   2  -4   13.99    1.34 
   7  -2   4   12.69    1.56 
  -8   2  -4    7.27    1.02 
   8  -2   4    5.20    1.16 
  -9   2  -4   10.26    1.32 
   9  -2   4    6.39    1.32 
 -10   2  -4    7.08    1.19 
  10  -2   4   11.46    1.83 
 -11   2  -4   -0.32    0.72 
  11  -2   4   -1.07    1.02 
  11   1  -4   -2.24    1.18 
 -11  -1   4    0.74    1.11 
  10   1  -4   21.86    2.71 
 -10  -1   4   25.70    2.10 
   9   1  -4    3.25    1.11 
  -9  -1   4    2.90    0.97 
   8   1  -4    8.77    1.50 
  -8  -1   4    8.94    1.20 
  -8  -1   4    9.23    1.28 
   7   1  -4    0.40    0.57 
  -7  -1   4    0.20    0.54 
  -7  -1   4    1.05    0.54 
   6   1  -4   12.67    1.57 
  -6  -1   4   11.54    1.22 
  -6  -1   4   10.99    1.31 
   5   1  -4    3.36    0.81 
  -5  -1   4    2.00    0.56 
   4   1  -4    7.33    1.00 
  -4  -1   4   10.85    1.01 
  -4  -1   4    8.10    0.94 
   3   1  -4   43.40    1.94 
  -3  -1   4   44.22    1.76 
  -3  -1   4   42.49    1.73 
   2   1  -4   -0.05    0.26 
   2   1  -4   -0.14    0.20 
  -2  -1   4   -0.06    0.18 
  -2  -1   4    0.02    0.23 
   1   1  -4   53.37    1.80 
   1   1  -4   50.90    1.82 
  -1  -1   4   49.30    1.83 
  -1  -1   4   50.83    1.73 
   0   1  -4   44.82    1.64 
   0  -1   4   43.56    1.68 
   0  -1   4   42.82    1.51 
  -1   1  -4   27.89    1.22 
   1  -1   4   24.76    1.25 
   1  -1   4   27.20    1.09 
  -2   1  -4   12.34    0.73 
  -2   1  -4   11.22    0.77 
   2  -1   4   12.37    0.90 
  -3   1  -4  137.92    3.70 
  -3   1  -4  131.18    3.82 
   3  -1   4  131.62    4.14 
  -4   1  -4  142.71    3.98 
  -4   1  -4  138.24    4.03 
   4  -1   4  143.67    4.48 
  -5   1  -4   62.51    2.23 
  -5   1  -4   58.43    2.19 
   5  -1   4   61.45    2.65 
  -6   1  -4   13.99    0.97 
  -6   1  -4   14.69    1.01 
   6  -1   4   14.57    1.28 
  -7   1  -4   -0.23    0.27 
   7  -1   4    0.22    0.50 
  -8   1  -4   32.65    1.82 
   8  -1   4   32.28    2.18 
  -9   1  -4   18.89    1.83 
   9  -1   4   16.82    2.02 
 -10   1  -4   34.18    2.17 
  10  -1   4   38.93    2.70 
 -11   1  -4   10.82    1.60 
  11  -1   4   10.89    1.89 
 -12   1  -4    0.77    1.01 
  12  -1   4    1.15    1.34 
  11   0  -4    4.13    1.40 
 -11   0   4    3.05    1.27 
  10   0  -4   18.18    2.30 
 -10   0   4   16.44    1.88 
   9   0  -4   26.51    2.79 
  -9   0   4   30.33    2.02 
   8   0  -4    3.63    1.01 
  -8   0   4    5.02    0.88 
   7   0  -4    5.64    1.05 
  -7   0   4    7.45    1.10 
   6   0  -4   11.66    1.47 
  -6   0   4   15.45    1.20 
   5   0  -4   25.35    1.66 
  -5   0   4   24.71    1.39 
   4   0  -4    2.76    0.66 
  -4   0   4    3.49    0.59 
   3   0  -4    2.86    0.62 
  -3   0   4    1.75    0.44 
   2   0  -4   21.54    1.20 
   2   0  -4   23.37    1.05 
  -2   0   4   22.11    1.07 
   1   0  -4   43.28    1.54 
   1   0  -4   41.70    1.58 
  -1   0   4   42.08    1.52 
   0   0  -4   77.55    2.38 
   0   0   4   75.91    2.29 
   0   0   4   75.54    2.29 
  -1   0  -4    4.48    0.55 
   1   0   4    6.22    0.66 
  -2   0  -4    0.76    0.27 
  -2   0  -4    0.86    0.27 
   2   0   4    0.52    0.26 
  -3   0  -4   70.97    2.33 
  -3   0  -4   74.14    2.30 
   3   0   4   74.53    2.60 
  -4   0  -4  126.22    3.57 
  -4   0  -4  117.37    3.50 
   4   0   4  126.01    3.97 
  -5   0  -4    5.81    0.74 
   5   0   4    4.13    0.78 
  -6   0  -4    0.41    0.27 
   6   0   4    0.04    0.37 
  -7   0  -4    0.13    0.24 
   7   0   4    0.25    0.42 
  -8   0  -4   28.60    1.70 
   8   0   4   27.64    1.97 
  -9   0  -4   20.44    1.94 
   9   0   4   17.89    2.05 
 -10   0  -4    3.46    0.93 
  10   0   4    5.21    1.30 
 -11   0  -4    0.53    0.82 
  11   0   4   -0.25    0.94 
 -12   0  -4    0.56    0.95 
  12   0   4    1.66    1.30 
  11  -1  -4    3.69    1.52 
 -11   1   4    6.38    1.45 
  10  -1  -4    1.49    0.94 
 -10   1   4    2.14    0.98 
   9  -1  -4   -0.76    0.78 
  -9   1   4   -0.03    0.59 
   8  -1  -4   27.55    2.17 
  -8   1   4   24.72    1.74 
   7  -1  -4    0.80    0.61 
  -7   1   4    1.27    0.61 
   6  -1  -4    0.14    0.53 
  -6   1   4    0.28    0.35 
   5  -1  -4    8.62    1.20 
  -5   1   4    9.18    0.98 
   4  -1  -4   21.21    1.48 
  -4   1   4   24.47    1.28 
   3  -1  -4   14.70    1.12 
   3  -1  -4   17.18    0.87 
  -3   1   4   14.75    0.96 
   2  -1  -4   64.33    2.07 
   2  -1  -4   64.31    2.30 
  -2   1   4   61.29    2.10 
   1  -1  -4   23.77    1.13 
   1  -1  -4   23.85    1.06 
  -1   1   4   23.69    1.06 
   0  -1  -4   48.27    1.65 
   0  -1  -4   45.22    1.53 
   0   1   4   47.47    1.62 
  -1  -1  -4   10.62    0.66 
  -1  -1  -4    9.76    0.63 
   1   1   4    9.36    0.61 
  -2  -1  -4    0.01    0.14 
  -2  -1  -4    0.03    0.15 
   2   1   4    0.22    0.24 
  -3  -1  -4   47.52    1.71 
  -3  -1  -4   48.26    1.72 
   3   1   4   51.79    1.95 
  -4  -1  -4   50.98    1.81 
  -4  -1  -4   52.75    1.91 
   4   1   4   56.93    2.22 
  -5  -1  -4    0.53    0.26 
   5   1   4    1.20    0.47 
  -6  -1  -4    2.85    0.53 
   6   1   4    2.82    0.70 
  -7  -1  -4   21.85    1.33 
   7   1   4   23.54    1.68 
  -8  -1  -4   34.28    1.85 
   8   1   4   36.06    2.21 
  -9  -1  -4    0.70    0.55 
   9   1   4    0.23    0.63 
 -10  -1  -4    4.44    1.09 
  10   1   4    5.43    1.27 
 -11  -1  -4    1.65    0.86 
  11   1   4    1.49    1.02 
 -12  -1  -4    3.55    1.21 
  12   1   4    5.85    1.73 
  11  -2  -4    1.81    1.12 
 -11   2   4   -0.02    1.13 
  10  -2  -4    0.91    0.92 
 -10   2   4   -0.79    0.76 
   9  -2  -4    0.48    0.70 
  -9   2   4   -0.07    0.61 
   8  -2  -4   40.23    2.60 
  -8   2   4   34.91    2.05 
   7  -2  -4   30.74    2.16 
  -7   2   4   35.30    1.92 
   6  -2  -4    0.55    0.49 
  -6   2   4    0.19    0.40 
   5  -2  -4    1.15    0.52 
  -5   2   4    0.81    0.34 
   4  -2  -4   29.81    1.27 
   4  -2  -4   30.26    1.76 
  -4   2   4   28.78    1.43 
   3  -2  -4    0.29    0.22 
   3  -2  -4    0.29    0.34 
  -3   2   4    0.60    0.37 
   2  -2  -4   24.64    1.34 
   2  -2  -4   27.85    1.19 
  -2   2   4   27.07    1.22 
   1  -2  -4   -0.16    0.20 
   1  -2  -4    0.00    0.16 
  -1   2   4    0.15    0.19 
   0  -2  -4   28.15    1.20 
   0  -2  -4   28.14    1.17 
   0   2   4   27.70    1.16 
  -1  -2  -4  221.65    5.62 
  -2  -2  -4   51.40    1.76 
  -2  -2  -4   49.89    1.75 
   2   2   4   54.57    1.87 
  -3  -2  -4  113.01    3.24 
  -3  -2  -4  116.46    3.29 
   3   2   4  117.63    3.51 
  -4  -2  -4   30.77    1.36 
   4   2   4   32.35    1.58 
  -5  -2  -4    1.17    0.38 
   5   2   4    0.82    0.42 
  -6  -2  -4    0.30    0.22 
   6   2   4   -0.07    0.30 
  -7  -2  -4   87.62    3.13 
   7   2   4   93.44    3.71 
  -8  -2  -4    0.21    0.40 
   8   2   4    0.29    0.52 
  -9  -2  -4   25.86    1.71 
   9   2   4   24.51    2.05 
 -10  -2  -4    3.50    0.89 
  10   2   4    4.56    1.16 
 -11  -2  -4    1.37    0.80 
  11   2   4    0.68    0.94 
 -12  -2  -4    0.05    0.93 
  12   2   4   -0.30    1.09 
  11  -3  -4    1.95    1.13 
 -11   3   4    1.67    1.17 
  10  -3  -4   -0.08    0.91 
 -10   3   4    0.46    0.97 
   9  -3  -4    0.03    0.78 
  -9   3   4    0.89    0.74 
   8  -3  -4    2.76    0.97 
  -8   3   4    0.89    0.61 
   7  -3  -4   37.36    2.35 
  -7   3   4   37.05    2.04 
   6  -3  -4    2.02    0.67 
  -6   3   4    2.05    0.58 
   5  -3  -4    7.55    1.09 
  -5   3   4    7.57    0.92 
   4  -3  -4    3.80    0.78 
  -4   3   4    3.78    0.62 
  -4   3   4    4.21    0.66 
   3  -3  -4    2.09    0.58 
   3  -3  -4    2.19    0.42 
  -3   3   4    2.48    0.53 
   2  -3  -4   93.50    2.80 
   2  -3  -4   86.02    3.06 
  -2   3   4   90.89    2.77 
   1  -3  -4   49.97    1.77 
   1  -3  -4   47.66    1.92 
  -1   3   4   50.20    1.75 
   0  -3  -4   80.18    2.57 
   0  -3  -4   76.23    2.47 
   0   3   4   84.52    2.47 
  -1  -3  -4   16.62    0.88 
  -1  -3  -4   19.03    0.94 
   1   3   4   18.10    0.89 
  -2  -3  -4   39.77    1.53 
  -2  -3  -4   38.86    1.43 
  -2  -3  -4   38.40    1.45 
  -2  -3  -4   38.72    1.46 
  -3  -3  -4   17.76    0.90 
  -3  -3  -4   16.68    1.03 
  -3  -3  -4   17.56    0.94 
  -4  -3  -4    8.19    0.68 
  -5  -3  -4    0.57    0.32 
   5   3   4    0.11    0.34 
  -6  -3  -4   42.68    1.82 
   6   3   4   39.42    2.12 
   6   3   4   40.38    1.84 
  -7  -3  -4   54.84    2.29 
   7   3   4   56.90    2.75 
   7   3   4   59.23    2.46 
  -8  -3  -4  106.99    3.69 
   8   3   4  114.75    4.31 
   8   3   4   94.58    3.73 
  -9  -3  -4   12.15    1.40 
   9   3   4    9.11    1.28 
   9   3   4    6.75    1.27 
 -10  -3  -4    2.95    0.84 
  10   3   4    2.64    1.00 
 -11  -3  -4   -0.09    0.75 
  11   3   4    0.14    0.92 
 -12  -3  -4   -0.11    0.96 
  12   3   4    0.00    0.99 
  10  -4  -4    4.55    1.37 
 -10   4   4    2.39    1.08 
   9  -4  -4   -0.69    0.76 
  -9   4   4   -0.42    0.79 
   8  -4  -4   29.68    2.29 
  -8   4   4   32.56    1.94 
   7  -4  -4   -0.08    0.57 
  -7   4   4    0.36    0.54 
   6  -4  -4   13.17    1.61 
  -6   4   4   14.62    1.18 
  -6   4   4   14.33    1.28 
   5  -4  -4    3.67    0.80 
  -5   4   4    2.85    0.62 
  -5   4   4    3.04    0.60 
   4  -4  -4    7.68    1.06 
  -4   4   4    7.10    0.83 
  -4   4   4    7.15    0.86 
   3  -4  -4    7.84    1.03 
  -3   4   4    7.70    0.86 
  -3   4   4    8.51    0.87 
   2  -4  -4   73.85    2.50 
   2  -4  -4   70.01    2.79 
  -2   4   4   72.86    2.35 
   1  -4  -4   74.41    2.40 
   1  -4  -4   68.70    2.60 
  -1   4   4   71.23    2.27 
   0  -4  -4    0.36    0.22 
   0  -4  -4    0.54    0.31 
   0   4   4   -0.03    0.20 
  -1  -4  -4   93.31    2.79 
  -1  -4  -4   88.15    2.88 
   1   4   4   92.09    2.70 
  -2  -4  -4  172.89    4.74 
  -2  -4  -4  175.28    4.59 
  -2  -4  -4  174.11    4.63 
  -2  -4  -4  174.15    4.74 
  -3  -4  -4   24.22    1.11 
  -3  -4  -4   24.02    1.24 
  -3  -4  -4   27.33    1.39 
  -3  -4  -4   25.27    1.16 
  -4  -4  -4   19.61    1.29 
  -4  -4  -4   18.74    1.05 
   4   4   4   20.45    1.16 
  -5  -4  -4   28.44    1.41 
  -5  -4  -4   27.52    1.66 
   5   4   4   31.56    1.53 
  -6  -4  -4   11.30    0.92 
  -6  -4  -4   14.12    1.55 
   6   4   4   12.31    1.23 
  -7  -4  -4    3.80    0.72 
   7   4   4    4.39    0.88 
  -8  -4  -4   21.01    1.39 
   8   4   4   19.56    1.50 
   8   4   4   16.80    2.04 
  -9  -4  -4    3.65    0.83 
   9   4   4    3.13    0.84 
   9   4   4    3.68    1.03 
 -10  -4  -4    0.48    0.69 
  10   4   4   -0.27    0.68 
  10   4   4    0.72    0.71 
 -11  -4  -4    0.72    0.85 
  11   4   4    0.00    0.79 
 -12  -4  -4    0.37    1.03 
  12   4   4    0.42    0.88 
  10  -5  -4    2.32    1.28 
 -10   5   4    0.27    0.97 
   9  -5  -4   -0.22    0.83 
  -9   5   4    0.26    0.84 
   8  -5  -4    3.59    1.12 
  -8   5   4    3.89    0.93 
  -8   5   4    4.25    1.33 
   7  -5  -4   27.77    2.13 
  -7   5   4   26.24    1.74 
  -7   5   4   26.57    1.66 
   6  -5  -4    0.06    0.53 
  -6   5   4    0.59    0.49 
  -6   5   4    0.39    0.48 
   5  -5  -4   -0.27    0.38 
  -5   5   4   -0.32    0.45 
  -5   5   4   -0.06    0.37 
   4  -5  -4    3.92    0.85 
  -4   5   4    3.61    0.68 
  -4   5   4    3.52    0.61 
   3  -5  -4    0.41    0.43 
  -3   5   4    0.52    0.34 
  -3   5   4   -0.54    0.32 
   2  -5  -4    2.50    0.66 
  -2   5   4    3.20    0.53 
  -2   5   4    2.19    0.49 
   1  -5  -4    1.53    0.49 
  -1   5   4    1.59    0.37 
  -1   5   4    1.36    0.47 
   0  -5  -4   12.55    1.00 
   0   5   4   11.36    0.74 
  -1  -5  -4   16.47    0.99 
  -1  -5  -4   16.07    1.10 
   1   5   4   17.55    0.93 
  -2  -5  -4    9.96    0.74 
  -2  -5  -4   10.06    0.71 
  -2  -5  -4   10.31    0.89 
  -2  -5  -4   10.78    0.85 
  -3  -5  -4    0.35    0.26 
  -3  -5  -4    0.47    0.36 
  -3  -5  -4    0.03    0.25 
  -3  -5  -4    0.29    0.29 
  -4  -5  -4   23.87    1.21 
  -4  -5  -4   24.50    1.48 
   4   5   4   25.93    1.45 
  -5  -5  -4    5.01    0.91 
  -5  -5  -4    2.79    0.56 
   5   5   4    2.07    0.54 
  -6  -5  -4   12.02    1.49 
  -6  -5  -4   12.54    0.97 
   6   5   4   10.27    1.20 
  -7  -5  -4  151.26    5.29 
  -7  -5  -4  157.04    4.70 
   7   5   4  146.40    4.98 
  -8  -5  -4   -0.05    0.58 
  -8  -5  -4   -0.12    0.42 
   8   5   4   -0.30    0.55 
  -9  -5  -4    2.76    0.75 
   9   5   4    2.45    0.79 
   9   5   4    2.94    0.93 
 -10  -5  -4    0.76    0.67 
  10   5   4    1.39    0.86 
  10   5   4    2.05    0.94 
 -11  -5  -4    4.29    1.10 
  11   5   4    2.31    1.01 
 -12  -5  -4    0.45    1.02 
  12   5   4    1.05    1.09 
   9  -6  -4    0.28    1.07 
  -9   6   4   -0.23    0.87 
   8  -6  -4    7.94    1.56 
  -8   6   4   10.01    1.38 
  -8   6   4   11.17    1.38 
   7  -6  -4    0.86    0.85 
  -7   6   4    0.81    0.66 
  -7   6   4    2.20    0.76 
   6  -6  -4    9.86    1.50 
  -6   6   4    9.83    1.20 
  -6   6   4    8.62    1.16 
   5  -6  -4    9.74    1.43 
  -5   6   4    9.72    1.14 
  -5   6   4   10.24    1.10 
   4  -6  -4   27.83    1.89 
  -4   6   4   28.44    1.64 
  -4   6   4   27.18    1.48 
   3  -6  -4    2.50    0.64 
  -3   6   4    1.59    0.46 
  -3   6   4    1.78    0.58 
   2  -6  -4    0.50    0.44 
  -2   6   4   -0.29    0.29 
  -2   6   4   -0.58    0.34 
   1  -6  -4    7.34    1.02 
  -1   6   4    6.59    0.67 
  -1   6   4    5.84    0.73 
   0  -6  -4   -0.17    0.41 
   0   6   4   -0.20    0.30 
  -1  -6  -4   79.23    3.00 
   1   6   4   81.04    2.79 
   1   6   4   82.38    2.51 
  -2  -6  -4    0.79    0.50 
  -2  -6  -4    1.21    0.45 
   2   6   4    1.03    0.39 
   2   6   4    0.87    0.33 
  -3  -6  -4   58.52    2.44 
  -3  -6  -4   57.63    2.46 
  -3  -6  -4   59.32    2.07 
   3   6   4   60.57    2.20 
  -4  -6  -4    6.24    0.94 
  -4  -6  -4    5.27    0.87 
  -4  -6  -4    4.59    0.66 
  -5  -6  -4   23.37    1.58 
  -5  -6  -4   20.36    1.24 
   5   6   4   22.66    1.52 
  -6  -6  -4   52.08    2.13 
  -6  -6  -4   50.38    2.62 
   6   6   4   50.91    2.46 
  -7  -6  -4   43.86    2.53 
  -7  -6  -4   45.27    2.05 
   7   6   4   43.00    2.40 
  -8  -6  -4   51.72    2.39 
  -8  -6  -4   51.99    2.91 
   8   6   4   51.85    2.73 
  -9  -6  -4   20.34    1.81 
  -9  -6  -4   19.61    2.32 
   9   6   4   13.79    1.81 
 -10  -6  -4    0.24    0.74 
  10   6   4   -0.88    0.81 
 -11  -6  -4    4.22    1.18 
  11   6   4    3.34    1.28 
   9  -7  -4    9.85    1.74 
   8  -7  -4    5.31    1.35 
  -8   7   4    8.06    1.29 
  -8   7   4    6.77    1.53 
   7  -7  -4    9.19    1.64 
  -7   7   4    9.34    1.28 
  -7   7   4    7.38    1.11 
   6  -7  -4    3.11    1.07 
  -6   7   4    3.87    0.85 
  -6   7   4    2.34    0.72 
   5  -7  -4    3.41    0.91 
  -5   7   4    4.39    0.83 
  -5   7   4    4.83    0.95 
   4  -7  -4    7.46    1.16 
  -4   7   4    9.29    1.13 
  -4   7   4    6.17    0.86 
   3  -7  -4   18.53    1.57 
  -3   7   4   23.85    1.52 
  -3   7   4   20.12    1.18 
   2  -7  -4    1.36    0.58 
  -2   7   4    1.19    0.56 
   1  -7  -4    7.90    1.13 
  -1   7   4    7.53    0.93 
   0  -7  -4   78.89    3.20 
   0   7   4   76.97    2.86 
  -1  -7  -4   16.41    1.36 
   1   7   4   17.74    1.15 
  -2  -7  -4    9.08    1.10 
  -2  -7  -4    9.68    1.25 
   2   7   4    9.88    1.01 
  -3  -7  -4    2.25    0.65 
  -3  -7  -4    1.19    0.55 
   3   7   4    1.20    0.48 
  -4  -7  -4    0.78    0.49 
  -4  -7  -4   -0.04    0.39 
  -4  -7  -4   -0.42    0.46 
  -5  -7  -4   32.21    1.60 
  -5  -7  -4   33.91    2.02 
   5   7   4   30.89    1.93 
  -6  -7  -4   31.13    2.04 
  -6  -7  -4   30.44    1.60 
   6   7   4   26.64    1.89 
  -7  -7  -4    5.59    0.84 
  -7  -7  -4    5.58    1.24 
   7   7   4    2.93    0.86 
  -8  -7  -4   14.91    1.97 
  -8  -7  -4   12.84    1.41 
   8   7   4   10.38    1.52 
  -9  -7  -4    3.24    1.15 
  -9  -7  -4    1.32    0.70 
   9   7   4    2.14    0.90 
 -10  -7  -4    9.50    1.88 
 -10  -7  -4    6.14    1.18 
  10   7   4    6.14    1.50 
 -11  -7  -4   21.30    2.13 
  11   7   4   16.94    2.48 
  11   7   4   22.73    2.58 
   8  -8  -4    2.76    1.10 
  -8   8   4    1.14    1.03 
   7  -8  -4    0.37    0.87 
  -7   8   4    0.44    0.85 
   6  -8  -4    0.02    0.80 
  -6   8   4    0.02    0.74 
   5  -8  -4    6.56    1.25 
  -5   8   4    7.37    1.15 
   4  -8  -4    0.82    0.65 
  -4   8   4    0.23    0.63 
   3  -8  -4    0.50    0.51 
  -3   8   4    0.56    0.61 
   2  -8  -4    1.49    0.65 
  -2   8   4    0.57    0.43 
   1  -8  -4   24.62    1.79 
  -1   8   4   27.08    1.60 
   0  -8  -4    2.90    0.80 
   0   8   4    0.63    0.43 
  -1  -8  -4   21.44    1.70 
  -1  -8  -4   16.57    1.36 
   1   8   4   19.66    1.34 
  -2  -8  -4    3.26    0.84 
  -2  -8  -4    3.42    0.89 
   2   8   4    3.70    0.70 
  -3  -8  -4   -0.05    0.51 
  -3  -8  -4    0.31    0.61 
   3   8   4   -0.31    0.32 
  -4  -8  -4    2.48    0.82 
  -4  -8  -4    2.44    0.73 
   4   8   4    2.62    0.53 
  -5  -8  -4   48.43    2.67 
  -5  -8  -4   56.98    2.35 
   5   8   4   55.56    2.81 
  -6  -8  -4    5.64    0.80 
  -6  -8  -4    4.60    1.12 
   6   8   4    6.61    1.27 
  -7  -8  -4   -0.14    0.53 
  -7  -8  -4    0.82    0.75 
   7   8   4    0.40    0.72 
  -8  -8  -4    2.31    1.06 
  -8  -8  -4    1.86    0.74 
   8   8   4    3.86    0.99 
  -9  -8  -4    0.35    0.67 
  -9  -8  -4    0.17    0.99 
   9   8   4    0.07    0.88 
 -10  -8  -4    4.74    1.45 
 -10  -8  -4    0.30    1.04 
  10   8   4    2.11    1.18 
   7  -9  -4   -0.79    0.80 
  -7   9   4    0.41    0.94 
   6  -9  -4    5.58    1.39 
  -6   9   4    6.00    1.29 
   5  -9  -4    6.15    1.27 
  -5   9   4    6.44    1.30 
   4  -9  -4    1.22    0.82 
  -4   9   4    0.92    0.74 
   3  -9  -4    2.37    0.90 
  -3   9   4    2.82    0.85 
   2  -9  -4    3.89    0.93 
  -2   9   4    5.36    0.92 
   1  -9  -4    3.19    0.83 
  -1   9   4    4.78    0.88 
   0  -9  -4    3.57    0.93 
   0   9   4    2.06    0.66 
  -1  -9  -4    8.50    1.41 
  -1  -9  -4    8.05    1.17 
   1   9   4    7.18    1.04 
  -2  -9  -4    5.05    1.01 
  -2  -9  -4    3.69    1.00 
   2   9   4    4.43    0.81 
  -3  -9  -4    0.58    0.75 
  -3  -9  -4    1.20    0.80 
   3   9   4    1.07    0.54 
  -4  -9  -4   87.90    3.73 
  -4  -9  -4   85.32    3.69 
   4   9   4   83.35    3.14 
  -5  -9  -4   21.85    1.91 
   5   9   4   22.70    1.91 
  -6  -9  -4   28.47    2.13 
   6   9   4   23.87    2.00 
  -7  -9  -4    7.22    1.50 
   7   9   4    3.63    1.06 
  -8  -9  -4   -0.32    1.03 
   8   9   4    0.14    0.90 
  -9  -9  -4    1.24    1.25 
   9   9   4    1.01    1.17 
   6 -10  -4   11.17    2.00 
  -6  10   4   15.16    1.96 
   5 -10  -4    3.37    1.18 
  -5  10   4    5.33    1.39 
   4 -10  -4   27.92    2.40 
  -4  10   4   25.90    2.14 
   3 -10  -4    2.23    1.00 
  -3  10   4    4.15    1.04 
   2 -10  -4    0.77    0.72 
  -2  10   4   -0.16    0.56 
   1 -10  -4    1.19    0.80 
  -1  10   4    0.99    0.61 
   0 -10  -4   34.83    2.38 
   0  10   4   33.19    2.04 
  -1 -10  -4    0.73    0.90 
  -1 -10  -4    0.96    0.83 
   1  10   4    0.68    0.58 
  -2 -10  -4    0.20    0.74 
  -2 -10  -4    1.47    0.87 
   2  10   4    0.96    0.63 
  -3 -10  -4   15.65    1.95 
  -3 -10  -4   15.75    1.87 
   3  10   4   16.89    1.43 
  -4 -10  -4   39.39    2.53 
   4  10   4   43.83    2.19 
  -5 -10  -4   21.98    2.30 
   5  10   4   21.83    2.34 
  -6 -10  -4    3.74    1.16 
   6  10   4    3.31    1.05 
  -7 -10  -4    0.32    1.01 
   7  10   4    2.40    1.07 
  -8 -10  -4    2.12    1.35 
   8  10   4    0.81    1.06 
   4 -11  -4   22.00    2.41 
  -4  11   4   28.96    2.68 
   3 -11  -4    7.17    1.53 
  -3  11   4    4.70    1.11 
   2 -11  -4   -0.52    0.83 
  -2  11   4    1.00    0.73 
   1 -11  -4    6.79    1.43 
  -1  11   4    7.52    1.23 
   0 -11  -4    4.33    1.13 
   0  11   4    4.91    0.98 
  -1 -11  -4    0.19    0.86 
  -1 -11  -4   -0.15    0.91 
   1  11   4    0.97    0.74 
  -2 -11  -4    5.11    1.24 
  -2 -11  -4    6.69    1.49 
   2  11   4    6.55    1.09 
  -3 -11  -4    3.97    1.37 
  -3 -11  -4    3.21    1.21 
   3  11   4    6.22    1.03 
  -4 -11  -4    1.81    1.05 
   4  11   4    2.14    1.04 
   4  11   4    2.85    1.21 
  -5 -11  -4   42.21    2.97 
   5  11   4   41.77    2.89 
  -6 -11  -4    3.88    1.48 
   6  11   4    5.87    1.35 
  -7 -11  -4   -1.59    1.10 
   7  11   4    0.84    1.07 
   2 -12  -4    9.58    1.72 
  -2  12   4   13.09    1.65 
   1 -12  -4    0.81    0.93 
  -1  12   4    0.56    0.86 
   0 -12  -4    3.48    1.11 
   0  12   4    3.47    1.08 
  -1 -12  -4    7.46    1.49 
   1  12   4    5.98    1.26 
  -2 -12  -4    1.44    1.44 
  -2 -12  -4    1.65    1.26 
   2  12   4    1.51    0.96 
  -3 -12  -4    2.79    1.43 
  -3 -12  -4   -0.87    1.16 
   3  12   4    1.09    0.91 
  -4 -12  -4    5.75    1.57 
   4  12   4    6.02    1.49 
  -5 -12  -4    5.49    1.67 
   5  12   4    4.91    1.37 
   2  10  -5    2.67    1.70 
   2  10  -5    0.89    1.31 
  -2 -10   5    1.48    1.25 
   1  10  -5    2.60    1.08 
   1  10  -5    2.23    1.50 
  -1 -10   5    3.85    1.54 
   0  10  -5   32.65    2.53 
   0 -10   5   31.87    3.35 
  -1  10  -5    3.74    1.32 
   1 -10   5    3.90    1.65 
  -2  10  -5    0.14    1.15 
   2 -10   5    0.68    1.50 
   5   9  -5    2.85    1.50 
  -5  -9   5    0.39    1.08 
   4   9  -5   13.42    2.26 
  -4  -9   5   12.94    1.89 
   3   9  -5    4.77    1.47 
  -3  -9   5    5.55    1.44 
   2   9  -5   20.29    1.96 
   2   9  -5   23.42    2.49 
  -2  -9   5   25.67    2.27 
   1   9  -5    9.52    1.62 
   1   9  -5    6.27    1.20 
  -1  -9   5    6.71    1.66 
   0   9  -5   12.23    1.65 
   0   9  -5   17.69    2.10 
   0  -9   5   13.19    2.14 
  -1   9  -5   -0.37    0.90 
   1  -9   5   -0.50    1.15 
  -2   9  -5   -0.23    0.96 
   2  -9   5    0.13    1.11 
  -3   9  -5    0.09    1.10 
   3  -9   5    1.11    1.40 
  -4   9  -5    1.95    1.14 
   4  -9   5    3.37    1.58 
  -5   9  -5    3.58    1.40 
   5  -9   5    2.22    1.55 
   6   8  -5   -0.59    1.42 
  -6  -8   5    1.24    0.98 
   5   8  -5   -0.66    1.14 
  -5  -8   5    0.68    0.85 
   4   8  -5    5.37    1.50 
  -4  -8   5    5.19    1.25 
   3   8  -5    0.21    1.02 
   3   8  -5    1.50    0.89 
  -3  -8   5   -1.09    0.72 
   2   8  -5   20.49    2.18 
   2   8  -5   13.81    1.56 
  -2  -8   5   16.58    1.94 
   1   8  -5    4.75    1.01 
   1   8  -5    6.60    1.24 
  -1  -8   5    5.92    1.27 
   0   8  -5    4.21    1.20 
   0   8  -5    4.59    1.00 
   0  -8   5    6.84    1.42 
  -1   8  -5    9.89    1.48 
  -1   8  -5   10.93    1.49 
   1  -8   5   13.31    1.89 
  -2   8  -5    8.58    1.46 
   2  -8   5   10.19    1.68 
  -3   8  -5    8.91    1.49 
   3  -8   5   13.59    2.03 
  -4   8  -5   13.95    1.77 
   4  -8   5   16.76    2.27 
  -5   8  -5   -0.64    0.96 
   5  -8   5    1.38    1.28 
  -6   8  -5    7.55    1.64 
   6  -8   5    3.29    1.64 
   8   7  -5   16.03    2.44 
  -8  -7   5   13.65    1.92 
   7   7  -5   24.12    2.84 
  -7  -7   5   16.67    2.13 
   6   7  -5    6.79    1.72 
  -6  -7   5    7.30    1.52 
   5   7  -5    0.57    1.15 
  -5  -7   5    0.93    0.77 
   4   7  -5    0.99    0.95 
  -4  -7   5   -0.52    0.69 
   3   7  -5   32.70    2.35 
   3   7  -5   29.65    1.88 
  -3  -7   5   32.28    2.32 
   2   7  -5    1.09    0.89 
   2   7  -5    0.17    0.62 
  -2  -7   5    0.79    0.68 
   1   7  -5   29.77    1.90 
   1   7  -5   33.65    2.18 
  -1  -7   5   35.06    2.36 
   0   7  -5    0.29    0.59 
   0   7  -5    1.27    0.80 
   0  -7   5    0.25    0.55 
  -1   7  -5   11.13    1.41 
  -1   7  -5    8.05    1.24 
   1  -7   5    9.31    1.59 
  -2   7  -5   -0.27    0.63 
  -2   7  -5    0.08    0.83 
   2  -7   5    0.32    0.75 
  -3   7  -5   11.74    1.52 
   3  -7   5   12.40    1.76 
  -4   7  -5   17.31    1.97 
   4  -7   5   15.42    2.08 
  -5   7  -5    3.21    1.08 
   5  -7   5    2.40    1.16 
  -6   7  -5    8.61    1.51 
   6  -7   5    9.31    1.73 
  -7   7  -5    0.05    0.96 
   7  -7   5    1.27    1.35 
  -8   7  -5    7.94    1.60 
   8  -7   5    4.31    1.65 
   8   6  -5   -0.32    1.41 
  -8  -6   5   -0.82    0.86 
   7   6  -5    2.09    1.27 
  -7  -6   5    0.57    0.91 
   6   6  -5   19.25    2.22 
  -6  -6   5   17.02    2.08 
   5   6  -5    8.21    1.47 
  -5  -6   5    5.41    1.05 
   4   6  -5    1.16    0.85 
  -4  -6   5   -0.40    0.60 
   3   6  -5   46.46    2.24 
   3   6  -5   50.34    2.77 
  -3  -6   5   50.81    2.73 
   2   6  -5   10.30    1.44 
   2   6  -5   11.97    1.27 
  -2  -6   5   12.25    1.57 
   1   6  -5    1.80    0.57 
   1   6  -5    1.65    0.75 
  -1  -6   5    2.10    0.74 
   0   6  -5    1.73    0.65 
   0   6  -5    1.64    0.60 
   0  -6   5    1.64    0.65 
  -1   6  -5   10.58    1.21 
  -1   6  -5   10.09    1.25 
   1  -6   5    8.80    1.30 
  -2   6  -5    0.74    0.65 
  -2   6  -5    0.69    0.64 
   2  -6   5    0.21    0.72 
  -3   6  -5    3.94    0.91 
   3  -6   5    4.55    1.18 
  -4   6  -5    0.31    0.59 
   4  -6   5   -0.13    0.75 
  -5   6  -5   37.74    2.32 
   5  -6   5   38.52    2.71 
  -6   6  -5   14.31    1.80 
   6  -6   5   16.61    2.14 
  -7   6  -5    5.84    1.21 
   7  -6   5    6.64    1.49 
  -8   6  -5    0.91    0.97 
   8  -6   5    0.59    1.33 
  -9   6  -5    4.07    1.34 
   9  -6   5    6.63    1.83 
   9   5  -5    0.95    1.51 
  -9  -5   5    0.23    0.98 
  -9  -5   5    0.23    0.98 
   8   5  -5    0.27    1.33 
  -8  -5   5    0.06    0.88 
  -8  -5   5    0.34    0.84 
   7   5  -5   18.31    2.31 
  -7  -5   5   16.34    1.99 
  -7  -5   5   16.45    1.61 
   6   5  -5    1.95    1.09 
  -6  -5   5    1.89    0.73 
  -6  -5   5    0.95    0.70 
   5   5  -5    1.34    0.88 
  -5  -5   5    0.64    0.62 
  -5  -5   5    0.79    0.65 
   4   5  -5   73.85    3.37 
  -4  -5   5   66.62    2.52 
  -4  -5   5   72.84    3.32 
   3   5  -5  230.61    7.09 
  -3  -5   5  242.61    7.31 
   2   5  -5    0.08    0.46 
   2   5  -5   -0.64    0.49 
  -2  -5   5    0.00    0.41 
   1   5  -5    9.47    1.07 
   1   5  -5   12.67    1.33 
  -1  -5   5    8.08    1.12 
   0   5  -5    0.56    0.40 
   0   5  -5   -0.12    0.45 
   0  -5   5    0.23    0.39 
  -1   5  -5    8.40    1.09 
  -1   5  -5    8.83    1.04 
   1  -5   5    8.81    1.25 
  -2   5  -5    1.57    0.54 
   2  -5   5    2.44    0.77 
  -3   5  -5   11.26    1.29 
   3  -5   5    8.62    1.26 
  -4   5  -5   11.51    1.39 
   4  -5   5   10.98    1.64 
  -5   5  -5    6.87    1.10 
   5  -5   5    7.71    1.40 
  -6   5  -5    4.46    0.99 
   6  -5   5    2.74    0.99 
  -7   5  -5    0.64    0.80 
   7  -5   5    0.47    0.83 
  -8   5  -5    1.48    0.82 
   8  -5   5    1.17    1.00 
  -9   5  -5    4.36    1.23 
   9  -5   5    2.88    1.34 
  10   4  -5    5.16    1.53 
 -10  -4   5    1.46    1.20 
   9   4  -5    2.48    1.48 
  -9  -4   5   -0.04    0.89 
  -9  -4   5    1.80    1.07 
   8   4  -5   -0.42    1.09 
  -8  -4   5   -0.53    0.73 
  -8  -4   5    0.11    0.80 
   7   4  -5    0.04    0.91 
  -7  -4   5    0.91    0.73 
  -7  -4   5    1.15    0.73 
   6   4  -5    6.37    1.35 
  -6  -4   5    4.85    0.98 
  -6  -4   5    6.38    1.23 
   5   4  -5    2.67    1.02 
  -5  -4   5    4.10    0.77 
  -5  -4   5    3.55    0.89 
   4   4  -5   83.13    3.47 
  -4  -4   5   79.37    3.32 
  -4  -4   5   73.02    2.73 
   3   4  -5   48.70    2.39 
  -3  -4   5   46.23    2.31 
  -3  -4   5   42.50    1.82 
   2   4  -5    4.93    0.89 
   2   4  -5    5.99    0.81 
  -2  -4   5    3.92    0.64 
  -2  -4   5    3.62    0.75 
   1   4  -5   38.82    1.88 
   1   4  -5   37.30    1.80 
  -1  -4   5   42.37    2.11 
   0   4  -5    0.49    0.39 
   0   4  -5    0.51    0.42 
   0  -4   5    0.18    0.32 
  -1   4  -5    5.34    0.77 
   1  -4   5    5.04    0.87 
  -2   4  -5   36.92    1.82 
   2  -4   5   35.15    2.01 
  -3   4  -5    0.61    0.48 
  -3   4  -5    1.68    0.49 
   3  -4   5    1.02    0.48 
  -4   4  -5   35.93    1.68 
  -4   4  -5   38.92    1.99 
   4  -4   5   40.61    2.39 
  -5   4  -5   15.98    1.34 
  -5   4  -5   16.92    1.23 
   5  -4   5   17.48    1.94 
  -6   4  -5   23.41    1.65 
  -6   4  -5   23.52    1.41 
   6  -4   5   24.66    1.95 
  -7   4  -5   -0.34    0.49 
  -7   4  -5   -0.22    0.62 
   7  -4   5   -0.28    0.60 
  -8   4  -5   -0.58    0.57 
  -8   4  -5    0.39    0.70 
   8  -4   5    0.09    0.93 
  -9   4  -5    2.60    0.89 
  -9   4  -5    1.04    0.82 
   9  -4   5    4.19    1.41 
 -10   4  -5   -0.61    0.84 
  10  -4   5    0.86    1.21 
  10   3  -5    2.01    1.13 
 -10  -3   5   -0.70    0.94 
   9   3  -5    0.96    1.25 
  -9  -3   5    0.32    0.90 
  -9  -3   5    0.82    0.97 
   8   3  -5    4.15    1.34 
  -8  -3   5    3.63    0.97 
  -8  -3   5    5.35    1.06 
   7   3  -5    1.79    0.88 
  -7  -3   5    0.53    0.64 
  -7  -3   5    0.79    0.65 
   6   3  -5    0.10    0.78 
  -6  -3   5    0.94    0.60 
  -6  -3   5    0.00    0.50 
   5   3  -5    2.02    0.79 
  -5  -3   5    2.11    0.63 
  -5  -3   5    1.96    0.61 
   4   3  -5    8.46    1.21 
  -4  -3   5    6.76    0.90 
  -4  -3   5    9.08    1.15 
   3   3  -5  125.61    4.22 
  -3  -3   5  124.01    3.72 
  -3  -3   5  121.69    4.17 
   2   3  -5  122.79    3.69 
   2   3  -5  111.07    3.84 
  -2  -3   5  120.36    4.03 
  -2  -3   5  117.40    3.45 
   1   3  -5    9.49    1.00 
   1   3  -5    9.74    0.96 
  -1  -3   5    9.55    0.73 
  -1  -3   5    9.53    1.18 
   0   3  -5   61.66    2.32 
   0  -3   5   60.58    2.56 
   0  -3   5   58.06    2.01 
  -1   3  -5    5.36    0.74 
   1  -3   5    5.75    0.65 
   1  -3   5    7.16    1.07 
  -2   3  -5   10.79    0.90 
   2  -3   5   10.96    1.32 
  -3   3  -5   10.95    0.92 
  -3   3  -5   10.06    0.81 
   3  -3   5    8.88    1.19 
  -4   3  -5    1.62    0.50 
  -4   3  -5    1.64    0.50 
   4  -3   5    1.97    0.63 
  -5   3  -5    0.86    0.45 
  -5   3  -5    0.69    0.48 
   5  -3   5    0.71    0.61 
  -6   3  -5   22.15    1.36 
  -6   3  -5   22.13    1.51 
   6  -3   5   20.76    1.75 
  -7   3  -5    5.21    0.93 
  -7   3  -5    2.83    0.68 
   7  -3   5    4.49    1.11 
  -8   3  -5    1.63    0.67 
  -8   3  -5    2.85    0.83 
   8  -3   5    2.65    0.97 
  -9   3  -5    1.83    0.89 
  -9   3  -5    0.92    0.68 
   9  -3   5    0.34    0.93 
 -10   3  -5    3.10    1.01 
  10  -3   5    4.55    1.50 
 -11   3  -5    9.43    1.61 
  11  -3   5   11.16    2.25 
  10   2  -5    0.03    1.10 
 -10  -2   5    0.37    0.97 
   9   2  -5    3.57    1.11 
  -9  -2   5    1.25    0.87 
   8   2  -5    4.68    1.42 
  -8  -2   5    4.42    1.04 
  -8  -2   5    3.17    0.98 
   7   2  -5    3.03    1.19 
  -7  -2   5    2.12    0.82 
  -7  -2   5    4.86    0.88 
   6   2  -5   25.07    1.96 
  -6  -2   5   21.28    1.56 
  -6  -2   5   22.27    1.54 
   5   2  -5   30.33    2.01 
  -5  -2   5   26.49    1.74 
  -5  -2   5   28.95    1.60 
   4   2  -5   -0.11    0.44 
  -4  -2   5    0.29    0.35 
  -4  -2   5   -0.07    0.45 
   3   2  -5    7.02    0.99 
  -3  -2   5    7.47    0.90 
  -3  -2   5    7.72    1.00 
   2   2  -5    1.20    0.51 
   2   2  -5    1.39    0.44 
  -2  -2   5    0.78    0.42 
  -2  -2   5    1.66    0.43 
   1   2  -5   74.19    2.56 
   1   2  -5   73.68    2.57 
  -1  -2   5   75.42    2.40 
  -1  -2   5   76.26    2.74 
   0   2  -5   32.00    1.48 
   0  -2   5   29.68    1.58 
   0  -2   5   30.24    1.30 
  -1   2  -5   70.08    2.53 
   1  -2   5   72.52    2.34 
   1  -2   5   74.96    2.79 
  -2   2  -5   25.55    1.36 
  -2   2  -5   26.06    1.22 
   2  -2   5   27.34    1.59 
  -3   2  -5   19.93    1.10 
  -3   2  -5   18.94    1.17 
   3  -2   5   20.46    1.42 
  -4   2  -5   10.24    1.08 
  -4   2  -5    8.53    0.88 
   4  -2   5    9.00    1.12 
  -5   2  -5    3.61    0.66 
  -5   2  -5    3.19    0.65 
   5  -2   5    3.14    0.74 
  -6   2  -5    2.67    0.59 
  -6   2  -5    1.59    0.59 
   6  -2   5    2.10    0.75 
  -7   2  -5    0.69    0.56 
  -7   2  -5    0.12    0.35 
   7  -2   5    0.21    0.62 
  -8   2  -5    0.79    0.57 
  -8   2  -5    0.17    0.59 
   8  -2   5    1.29    0.75 
  -9   2  -5   19.23    1.82 
   9  -2   5   25.62    2.64 
 -10   2  -5   10.87    1.45 
  10  -2   5   12.34    1.88 
 -11   2  -5    1.70    0.91 
  11  -2   5    0.15    1.17 
  10   1  -5   -0.49    1.11 
 -10  -1   5   -0.61    0.99 
   9   1  -5   16.19    2.18 
  -9  -1   5   18.71    1.89 
   8   1  -5   31.34    2.44 
  -8  -1   5   36.66    2.20 
   7   1  -5   11.55    1.70 
  -7  -1   5   13.17    1.46 
  -7  -1   5   14.12    1.45 
   6   1  -5    1.64    0.82 
  -6  -1   5    2.24    0.64 
   5   1  -5   23.18    1.75 
  -5  -1   5   23.57    1.42 
   4   1  -5    9.74    1.20 
  -4  -1   5    8.16    0.94 
   3   1  -5    7.68    1.01 
  -3  -1   5   10.97    0.87 
  -3  -1   5   11.85    0.96 
   2   1  -5    2.64    0.48 
   2   1  -5    1.97    0.52 
  -2  -1   5    2.87    0.56 
  -2  -1   5    2.86    0.52 
   1   1  -5   68.48    2.35 
   1   1  -5   69.56    2.36 
  -1  -1   5   67.89    2.39 
  -1  -1   5   68.10    2.26 
   0   1  -5   11.42    0.82 
   0  -1   5   11.33    0.76 
   0  -1   5   11.27    0.86 
  -1   1  -5   76.52    2.59 
   1  -1   5   74.54    2.42 
   1  -1   5   81.07    2.76 
  -2   1  -5   33.20    1.41 
  -2   1  -5   33.65    1.52 
   2  -1   5   35.70    1.70 
  -3   1  -5   85.61    2.70 
  -3   1  -5   81.50    2.79 
   3  -1   5   85.54    3.12 
  -4   1  -5    1.77    0.44 
  -4   1  -5    2.05    0.44 
   4  -1   5    2.08    0.61 
  -5   1  -5   10.79    1.04 
  -5   1  -5   10.71    0.90 
   5  -1   5   11.30    1.30 
  -6   1  -5    5.93    0.84 
  -6   1  -5    5.39    0.80 
   6  -1   5    5.24    0.98 
  -7   1  -5    2.57    0.68 
  -7   1  -5    3.33    0.69 
   7  -1   5    3.89    0.92 
  -8   1  -5    8.16    1.13 
   8  -1   5    8.31    1.41 
  -9   1  -5   13.06    1.52 
   9  -1   5    8.94    1.48 
 -10   1  -5    7.01    1.25 
  10  -1   5    6.77    1.42 
 -11   1  -5    3.41    1.10 
  11  -1   5    1.43    1.35 
  11   0  -5    4.98    1.55 
 -11   0   5    8.72    1.69 
  10   0  -5    6.94    1.58 
 -10   0   5    5.41    1.26 
   9   0  -5    3.67    1.26 
  -9   0   5    1.48    0.81 
   8   0  -5   20.70    2.39 
  -8   0   5   22.89    1.79 
   7   0  -5    8.11    1.41 
  -7   0   5    4.40    0.89 
   6   0  -5    5.39    1.10 
  -6   0   5    5.63    0.92 
   5   0  -5   27.84    1.85 
  -5   0   5   30.56    1.63 
   4   0  -5  104.05    3.69 
  -4   0   5   97.99    3.31 
   3   0  -5    1.28    0.46 
  -3   0   5    1.92    0.43 
   2   0  -5   -0.10    0.29 
   2   0  -5    0.07    0.22 
  -2   0   5    0.31    0.27 
   1   0  -5   35.36    1.47 
   1   0  -5   33.44    1.44 
  -1   0   5   34.05    1.42 
   0   0  -5   76.79    2.52 
   0   0   5   77.96    2.45 
   0   0   5   75.04    2.43 
  -1   0  -5   19.82    1.05 
   1   0   5   17.07    0.93 
   1   0   5   17.80    1.01 
  -2   0  -5    4.82    0.59 
  -2   0  -5    4.21    0.58 
   2   0   5    6.05    0.81 
  -3   0  -5   15.13    0.96 
  -3   0  -5   16.15    0.96 
   3   0   5   18.63    1.19 
  -4   0  -5    2.59    0.50 
  -4   0  -5    2.29    0.49 
   4   0   5    2.54    0.62 
  -5   0  -5    0.15    0.27 
  -5   0  -5   -0.04    0.23 
   5   0   5    0.22    0.30 
  -6   0  -5    1.87    0.51 
  -6   0  -5    2.71    0.55 
   6   0   5    2.39    0.64 
  -7   0  -5    7.62    1.02 
   7   0   5    6.66    1.14 
  -8   0  -5   -0.14    0.41 
   8   0   5    0.49    0.54 
  -9   0  -5   20.85    1.93 
   9   0   5   15.14    1.91 
 -10   0  -5    3.67    0.92 
  10   0   5    5.80    1.32 
 -11   0  -5    3.73    1.02 
  11   0   5    3.16    1.25 
 -12   0  -5   -0.32    0.94 
  12   0   5    0.52    1.22 
  11  -1  -5    2.28    1.19 
 -11   1   5    4.61    1.44 
  10  -1  -5    2.11    1.09 
 -10   1   5   -0.54    0.95 
   9  -1  -5    0.70    0.97 
  -9   1   5    2.22    0.84 
   8  -1  -5    9.91    1.62 
  -8   1   5    9.16    1.36 
   7  -1  -5   22.83    1.91 
  -7   1   5   22.25    1.59 
   6  -1  -5   79.69    3.54 
  -6   1   5   73.92    2.97 
   5  -1  -5    2.17    0.77 
  -5   1   5    1.20    0.50 
   4  -1  -5    0.47    0.47 
  -4   1   5    0.07    0.36 
   3  -1  -5    0.31    0.26 
   3  -1  -5    0.33    0.43 
  -3   1   5   -0.59    0.20 
   2  -1  -5    8.56    0.92 
   2  -1  -5    7.51    0.78 
  -2   1   5    8.57    0.83 
   1  -1  -5   18.46    1.04 
   1  -1  -5   17.79    0.99 
  -1   1   5   17.21    0.98 
   0  -1  -5   42.68    1.66 
   0   1   5   43.55    1.66 
  -1  -1  -5   48.71    1.82 
   1   1   5   50.28    1.79 
  -2  -1  -5   14.98    0.89 
  -2  -1  -5   13.47    0.84 
   2   1   5   14.73    0.93 
  -3  -1  -5   64.88    2.23 
  -3  -1  -5   61.13    2.18 
   3   1   5   66.08    2.43 
  -4  -1  -5    0.13    0.20 
  -4  -1  -5    0.21    0.24 
   4   1   5    0.05    0.32 
  -5  -1  -5    7.93    0.88 
  -5  -1  -5    8.73    0.73 
   5   1   5   10.03    1.24 
  -6  -1  -5   12.87    0.96 
   6   1   5   14.02    1.52 
  -7  -1  -5    1.03    0.43 
   7   1   5    0.66    0.51 
  -8  -1  -5    9.44    1.21 
   8   1   5    5.59    1.09 
  -9  -1  -5    9.11    1.26 
   9   1   5    7.33    1.39 
 -10  -1  -5   -0.13    0.60 
  10   1   5    0.02    0.61 
 -11  -1  -5    0.89    0.82 
  11   1   5    0.90    1.06 
 -12  -1  -5    2.75    1.14 
  12   1   5    1.75    1.23 
  10  -2  -5    0.28    0.95 
 -10   2   5   -1.18    0.92 
   9  -2  -5    1.17    0.88 
  -9   2   5    0.28    0.69 
   8  -2  -5   25.35    2.19 
  -8   2   5   21.93    1.78 
   7  -2  -5    2.54    0.92 
  -7   2   5    1.65    0.59 
   6  -2  -5  195.31    6.45 
  -6   2   5  198.35    5.88 
   5  -2  -5    9.26    1.29 
  -5   2   5    8.01    0.97 
   4  -2  -5   87.86    3.42 
  -4   2   5   91.22    3.07 
   3  -2  -5    1.25    0.36 
   3  -2  -5    2.40    0.61 
  -3   2   5    1.55    0.42 
   2  -2  -5    0.37    0.25 
   2  -2  -5   -0.24    0.31 
  -2   2   5    0.59    0.29 
   1  -2  -5    1.13    0.39 
   1  -2  -5    1.00    0.33 
  -1   2   5    0.10    0.20 
   0  -2  -5   28.77    1.24 
   0  -2  -5   24.69    1.22 
   0   2   5   27.54    1.25 
  -1  -2  -5    9.11    0.70 
   1   2   5    9.13    0.68 
  -2  -2  -5  128.34    3.73 
  -2  -2  -5  130.19    3.68 
   2   2   5  130.16    3.72 
  -3  -2  -5   38.01    1.55 
  -3  -2  -5   40.02    1.61 
   3   2   5   41.25    1.77 
  -4  -2  -5   22.91    1.13 
  -4  -2  -5   22.59    1.18 
   4   2   5   23.38    1.42 
  -5  -2  -5    0.27    0.28 
   5   2   5    0.31    0.41 
  -6  -2  -5    6.08    0.77 
   6   2   5    6.32    1.07 
  -7  -2  -5    7.52    1.02 
   7   2   5    5.80    1.07 
  -8  -2  -5   20.09    1.43 
   8   2   5   20.38    1.77 
  -9  -2  -5   13.73    1.56 
   9   2   5   13.53    1.78 
 -10  -2  -5    1.15    0.69 
  10   2   5    1.49    0.77 
 -11  -2  -5   15.39    1.84 
  11   2   5    8.28    1.74 
 -12  -2  -5    9.50    1.69 
  12   2   5    9.00    1.90 
  10  -3  -5    0.19    0.94 
 -10   3   5   -0.52    0.99 
   9  -3  -5    1.81    0.98 
  -9   3   5    1.30    0.82 
   8  -3  -5    1.80    0.99 
  -8   3   5    0.86    0.75 
   7  -3  -5   41.88    2.57 
  -7   3   5   37.98    2.11 
   6  -3  -5    0.90    0.57 
  -6   3   5    0.33    0.48 
   5  -3  -5   21.35    1.71 
  -5   3   5   20.36    1.31 
  -5   3   5   22.32    1.38 
   4  -3  -5    1.23    0.60 
   4  -3  -5    1.07    0.39 
  -4   3   5    1.33    0.43 
   3  -3  -5   14.11    1.21 
   3  -3  -5   15.43    0.98 
  -3   3   5   16.31    1.04 
   2  -3  -5  145.37    4.15 
   2  -3  -5  140.10    4.43 
  -2   3   5  148.04    4.17 
   1  -3  -5   76.16    2.76 
   1  -3  -5   85.53    2.68 
  -1   3   5   85.94    2.68 
   0  -3  -5   51.41    1.89 
   0  -3  -5   49.89    1.91 
   0   3   5   50.37    1.87 
  -1  -3  -5  193.18    5.15 
   1   3   5  187.03    5.05 
  -2  -3  -5   40.63    1.58 
  -2  -3  -5   36.99    1.57 
   2   3   5   38.59    1.55 
  -3  -3  -5   22.63    1.17 
  -3  -3  -5   24.19    1.18 
   3   3   5   24.02    1.28 
  -4  -3  -5   21.07    1.08 
  -4  -3  -5   22.36    1.18 
   4   3   5   21.00    1.31 
  -5  -3  -5   22.31    1.24 
   5   3   5   20.12    1.38 
  -6  -3  -5   13.13    1.00 
   6   3   5   15.61    1.26 
  -7  -3  -5   11.85    1.29 
   7   3   5   12.53    1.56 
  -8  -3  -5   14.23    1.42 
   8   3   5   12.81    1.73 
  -9  -3  -5    3.73    0.90 
   9   3   5    5.59    1.13 
 -10  -3  -5   13.85    1.66 
  10   3   5   13.21    1.89 
 -11  -3  -5    0.51    0.84 
  11   3   5    0.39    1.03 
 -12  -3  -5    1.25    1.07 
  12   3   5    2.06    1.32 
  10  -4  -5    2.59    1.24 
 -10   4   5    1.37    1.12 
   9  -4  -5    2.29    1.02 
  -9   4   5    4.13    1.12 
   8  -4  -5   -0.03    0.67 
  -8   4   5   -0.07    0.67 
   7  -4  -5    3.46    1.08 
  -7   4   5    5.75    1.02 
   6  -4  -5   13.02    1.68 
  -6   4   5   15.87    1.31 
  -6   4   5   14.86    1.22 
   5  -4  -5   -0.04    0.42 
  -5   4   5    0.28    0.44 
  -5   4   5    0.12    0.38 
   4  -4  -5   29.84    1.94 
  -4   4   5   32.63    1.60 
  -4   4   5   25.42    1.49 
   3  -4  -5    8.97    1.17 
   3  -4  -5    8.58    0.92 
  -3   4   5    7.15    0.83 
   2  -4  -5    0.73    0.47 
   2  -4  -5    0.70    0.33 
  -2   4   5    0.44    0.31 
   1  -4  -5    4.57    0.64 
   1  -4  -5    5.80    0.85 
  -1   4   5    4.49    0.64 
   0  -4  -5  186.81    5.15 
   0  -4  -5  189.67    5.27 
   0   4   5  188.37    5.08 
  -1  -4  -5    6.20    0.77 
  -1  -4  -5    4.85    0.67 
   1   4   5    5.65    0.66 
  -2  -4  -5   21.04    1.08 
  -2  -4  -5   20.10    1.05 
  -2  -4  -5   19.17    1.08 
  -2  -4  -5   18.73    1.05 
  -3  -4  -5  132.37    3.80 
  -3  -4  -5  134.26    3.83 
  -3  -4  -5  132.18    4.01 
  -3  -4  -5  134.25    3.87 
  -4  -4  -5    8.33    1.04 
  -4  -4  -5    7.69    0.86 
  -5  -4  -5   32.12    1.59 
   5   4   5   39.15    1.67 
  -6  -4  -5   12.76    1.22 
   6   4   5    9.10    1.31 
  -7  -4  -5   33.41    1.74 
   7   4   5   34.24    2.12 
  -8  -4  -5    1.47    0.62 
   8   4   5    2.68    0.70 
   8   4   5    2.81    0.75 
  -9  -4  -5   18.09    1.76 
   9   4   5   10.77    1.52 
 -10  -4  -5    0.60    0.68 
  10   4   5    0.08    0.65 
 -11  -4  -5    1.09    0.84 
  11   4   5   -0.09    0.86 
 -12  -4  -5    0.87    0.97 
  12   4   5   -0.16    1.04 
  10  -5  -5    8.23    1.70 
 -10   5   5    9.53    1.62 
   9  -5  -5   13.36    2.10 
  -9   5   5   12.59    1.59 
   8  -5  -5   -0.20    0.85 
  -8   5   5    0.76    0.82 
   7  -5  -5    6.72    1.28 
  -7   5   5    8.38    1.17 
  -7   5   5    6.19    1.07 
   6  -5  -5   16.33    1.95 
  -6   5   5   17.97    1.47 
  -6   5   5   20.96    1.51 
   5  -5  -5    8.90    1.25 
  -5   5   5    7.95    0.98 
  -5   5   5    7.99    1.05 
   4  -5  -5   -0.17    0.45 
  -4   5   5    0.60    0.42 
  -4   5   5    0.15    0.39 
   3  -5  -5   55.49    2.70 
  -3   5   5   55.29    2.26 
  -3   5   5   59.44    2.33 
   2  -5  -5   10.40    1.25 
  -2   5   5   11.20    1.04 
   1  -5  -5   10.63    0.86 
   1  -5  -5   10.61    1.15 
  -1   5   5    9.22    0.89 
   0  -5  -5   11.82    0.88 
   0  -5  -5   12.39    1.22 
   0   5   5   11.41    0.82 
  -1  -5  -5   52.55    2.05 
  -1  -5  -5   53.28    2.20 
   1   5   5   57.86    2.04 
  -2  -5  -5   -0.03    0.29 
  -2  -5  -5    0.15    0.26 
  -2  -5  -5    0.04    0.30 
  -3  -5  -5   18.35    1.04 
  -3  -5  -5   18.14    1.17 
  -3  -5  -5   18.39    1.07 
  -3  -5  -5   18.47    1.21 
  -4  -5  -5    6.11    0.78 
  -4  -5  -5    6.59    0.90 
  -4  -5  -5    5.56    0.93 
  -5  -5  -5    0.31    0.34 
  -5  -5  -5    1.46    0.52 
   5   5   5    1.01    0.45 
  -6  -5  -5   45.63    2.00 
  -6  -5  -5   46.54    2.38 
   6   5   5   42.88    2.08 
  -7  -5  -5   34.63    1.82 
   7   5   5   34.72    1.94 
  -8  -5  -5    2.06    0.63 
   8   5   5    2.32    0.81 
   8   5   5    0.95    0.57 
  -9  -5  -5    3.54    0.89 
   9   5   5    2.93    0.86 
   9   5   5    2.32    0.83 
 -10  -5  -5   12.33    1.60 
  10   5   5    6.99    1.27 
 -11  -5  -5   -0.30    0.86 
  11   5   5   -0.85    0.91 
   9  -6  -5    7.32    1.51 
  -9   6   5    7.45    1.43 
   8  -6  -5    3.11    1.07 
  -8   6   5    1.91    0.98 
  -8   6   5    2.22    0.87 
   7  -6  -5   -0.06    0.75 
  -7   6   5    1.14    0.75 
  -7   6   5   -0.58    0.74 
   6  -6  -5    0.82    0.75 
  -6   6   5    1.40    0.75 
  -6   6   5    1.71    0.69 
   5  -6  -5    6.94    1.21 
  -5   6   5    5.93    0.91 
  -5   6   5    6.83    1.07 
   4  -6  -5    0.38    0.54 
  -4   6   5    0.81    0.48 
  -4   6   5    0.34    0.52 
   3  -6  -5    3.14    0.84 
  -3   6   5    2.46    0.62 
  -3   6   5    3.13    0.68 
   2  -6  -5   59.49    2.67 
  -2   6   5   52.05    2.10 
  -2   6   5   55.60    2.33 
   1  -6  -5    9.89    1.20 
  -1   6   5   11.31    0.94 
  -1   6   5   11.12    0.88 
   0  -6  -5    0.80    0.48 
   0   6   5    1.16    0.43 
   0   6   5    0.71    0.38 
  -1  -6  -5   64.52    2.63 
  -1  -6  -5   60.87    2.44 
   1   6   5   68.78    2.31 
  -2  -6  -5    0.61    0.44 
  -2  -6  -5    1.12    0.37 
  -2  -6  -5    0.13    0.33 
   2   6   5    0.94    0.36 
  -3  -6  -5   15.29    1.18 
  -3  -6  -5   15.41    1.00 
  -3  -6  -5   15.93    1.03 
  -3  -6  -5   16.89    1.23 
  -4  -6  -5    5.45    0.93 
  -4  -6  -5    5.77    0.97 
  -4  -6  -5    6.47    0.79 
  -4  -6  -5    4.63    0.70 
  -5  -6  -5    7.60    1.16 
  -5  -6  -5    8.53    0.95 
   5   6   5    7.70    1.06 
  -6  -6  -5    2.08    0.77 
  -6  -6  -5    0.95    0.49 
   6   6   5    1.34    0.51 
  -7  -6  -5   17.11    1.90 
  -7  -6  -5   16.36    1.27 
   7   6   5   15.11    1.62 
  -8  -6  -5    2.24    0.71 
  -8  -6  -5    2.95    0.93 
   8   6   5    3.31    0.91 
  -9  -6  -5   -0.04    0.63 
   9   6   5    0.71    0.86 
   9   6   5   -0.11    0.59 
 -10  -6  -5    2.07    0.81 
  10   6   5    1.86    0.90 
 -11  -6  -5    8.75    1.42 
  11   6   5    7.97    1.44 
   9  -7  -5    2.35    1.19 
   8  -7  -5   11.29    1.80 
  -8   7   5   12.26    1.54 
  -8   7   5   10.72    1.48 
   7  -7  -5    4.48    1.27 
  -7   7   5    7.01    1.22 
  -7   7   5    5.00    1.00 
   6  -7  -5   -0.52    0.65 
  -6   7   5   -0.75    0.68 
  -6   7   5   -0.63    0.60 
   5  -7  -5    0.92    0.69 
  -5   7   5    0.62    0.66 
  -5   7   5    1.27    0.66 
   4  -7  -5    2.03    0.79 
  -4   7   5    0.96    0.66 
  -4   7   5    2.82    0.64 
   3  -7  -5    9.39    1.33 
  -3   7   5   10.76    1.09 
  -3   7   5   13.21    1.36 
   2  -7  -5   16.87    1.72 
  -2   7   5   15.23    1.18 
  -2   7   5   17.41    1.33 
   1  -7  -5   24.35    1.75 
  -1   7   5   24.59    1.46 
  -1   7   5   22.66    1.27 
   0  -7  -5    0.98    0.54 
   0   7   5   -0.11    0.27 
  -1  -7  -5    6.37    0.99 
   1   7   5    6.63    0.85 
   1   7   5    4.90    0.68 
  -2  -7  -5    8.10    1.14 
  -2  -7  -5    6.25    0.95 
   2   7   5    6.19    0.80 
   2   7   5    6.15    0.76 
  -3  -7  -5    0.22    0.36 
  -3  -7  -5    0.60    0.45 
  -3  -7  -5   -0.47    0.42 
   3   7   5    0.74    0.34 
  -4  -7  -5    0.48    0.52 
  -4  -7  -5    0.39    0.50 
  -4  -7  -5    0.30    0.38 
   4   7   5    1.14    0.47 
  -5  -7  -5   16.27    1.74 
  -5  -7  -5   14.07    1.11 
   5   7   5   12.63    1.50 
  -6  -7  -5    2.17    0.84 
  -6  -7  -5    2.26    0.61 
   6   7   5    0.91    0.58 
  -7  -7  -5    3.36    1.03 
  -7  -7  -5    5.41    0.83 
   7   7   5    3.14    0.82 
  -8  -7  -5   12.74    1.40 
  -8  -7  -5   15.69    2.04 
   8   7   5   16.16    1.86 
  -9  -7  -5    0.79    0.63 
  -9  -7  -5    1.01    0.90 
   9   7   5    0.23    0.71 
 -10  -7  -5    0.98    0.92 
  10   7   5   -0.34    0.90 
 -11  -7  -5   -1.36    0.88 
  11   7   5   -0.95    0.74 
   8  -8  -5    1.87    1.27 
  -8   8   5    4.64    1.28 
   7  -8  -5    3.61    1.22 
  -7   8   5    4.72    1.15 
   6  -8  -5    0.26    0.82 
  -6   8   5   -0.34    0.84 
   5  -8  -5    0.10    0.70 
  -5   8   5    0.28    0.68 
   4  -8  -5   17.66    2.00 
  -4   8   5   17.01    1.68 
   3  -8  -5    7.51    1.32 
  -3   8   5    6.04    1.06 
   2  -8  -5    0.34    0.69 
  -2   8   5   -0.41    0.54 
   1  -8  -5    0.13    0.65 
  -1   8   5    0.33    0.37 
   0  -8  -5  164.09    5.41 
   0   8   5  154.62    4.99 
  -1  -8  -5   12.08    1.49 
   1   8   5    9.94    1.15 
  -2  -8  -5   19.50    1.43 
  -2  -8  -5   23.00    1.71 
   2   8   5   18.41    1.29 
  -3  -8  -5    4.56    0.89 
  -3  -8  -5    2.08    0.73 
   3   8   5    2.13    0.52 
   3   8   5    2.65    0.59 
  -4  -8  -5    5.32    0.79 
  -4  -8  -5    8.00    1.16 
  -4  -8  -5    7.50    1.22 
   4   8   5    5.42    0.81 
  -5  -8  -5    2.11    0.88 
  -5  -8  -5    3.36    0.66 
   5   8   5    1.75    0.75 
  -6  -8  -5    0.86    0.78 
  -6  -8  -5    1.83    0.61 
   6   8   5    1.06    0.68 
  -7  -8  -5    4.17    1.04 
  -7  -8  -5    2.42    0.69 
   7   8   5    2.33    0.85 
  -8  -8  -5    1.74    0.96 
  -8  -8  -5    1.08    0.67 
   8   8   5   -1.29    0.72 
  -9  -8  -5    5.97    1.45 
  -9  -8  -5    4.05    1.06 
   9   8   5    3.74    1.17 
 -10  -8  -5    4.20    1.48 
 -10  -8  -5    2.78    1.01 
  10   8   5    1.79    1.24 
   7  -9  -5    7.23    1.53 
  -7   9   5    8.90    1.68 
   6  -9  -5    0.25    0.96 
  -6   9   5    0.77    1.04 
   5  -9  -5    1.29    0.89 
  -5   9   5    2.58    1.08 
   4  -9  -5    1.43    0.83 
  -4   9   5   -1.05    0.65 
   3  -9  -5    8.13    1.42 
  -3   9   5    8.27    1.32 
   2  -9  -5    0.40    0.69 
  -2   9   5    0.81    0.53 
   1  -9  -5    1.46    0.81 
  -1   9   5    0.45    0.47 
   0  -9  -5    7.22    1.25 
   0   9   5    3.87    0.81 
  -1  -9  -5    0.97    0.76 
   1   9   5   -0.05    0.49 
  -2  -9  -5    2.29    0.76 
  -2  -9  -5    2.38    0.82 
   2   9   5    2.31    0.64 
  -3  -9  -5    0.03    0.69 
  -3  -9  -5   -0.10    0.63 
   3   9   5    0.19    0.43 
  -4  -9  -5    0.05    0.74 
  -4  -9  -5   -0.22    0.68 
   4   9   5   -0.09    0.42 
  -5  -9  -5   24.19    1.93 
   5   9   5   23.07    1.95 
  -6  -9  -5    3.07    0.99 
   6   9   5    1.14    0.79 
  -7  -9  -5    0.61    0.98 
   7   9   5    1.30    0.80 
  -8  -9  -5    7.73    1.66 
   8   9   5    9.13    1.72 
  -9  -9  -5    1.87    1.30 
   9   9   5    1.55    1.09 
   6 -10  -5    1.27    1.07 
  -6  10   5    1.68    1.18 
   5 -10  -5   16.16    2.30 
  -5  10   5   15.98    2.00 
   4 -10  -5    1.84    0.99 
  -4  10   5    3.06    1.08 
   3 -10  -5    7.47    1.46 
  -3  10   5    8.10    1.37 
   2 -10  -5    5.66    1.29 
  -2  10   5    6.39    1.10 
   1 -10  -5    6.02    1.33 
  -1  10   5    5.15    1.03 
   0 -10  -5   10.04    1.62 
   0  10   5    8.43    1.23 
  -1 -10  -5   53.93    3.05 
   1  10   5   51.61    2.59 
  -2 -10  -5    1.67    0.88 
  -2 -10  -5    1.27    0.88 
   2  10   5    1.64    0.55 
  -3 -10  -5    0.96    0.84 
  -3 -10  -5    0.86    0.83 
   3  10   5    1.30    0.62 
  -4 -10  -5    7.98    1.43 
  -4 -10  -5    7.71    1.44 
   4  10   5    7.12    1.07 
  -5 -10  -5   16.00    1.90 
   5  10   5   13.77    1.83 
  -6 -10  -5    3.18    1.09 
   6  10   5    1.55    0.97 
  -7 -10  -5    2.88    1.27 
   7  10   5    2.46    1.09 
  -8 -10  -5    3.65    1.33 
   8  10   5    3.01    1.18 
   4 -11  -5    4.81    1.32 
  -4  11   5    6.27    1.49 
   3 -11  -5   34.53    2.60 
  -3  11   5   37.84    2.70 
   2 -11  -5    3.43    1.14 
  -2  11   5    5.24    1.17 
   1 -11  -5    2.64    0.99 
  -1  11   5    3.18    0.94 
   0 -11  -5    1.95    1.26 
   0  11   5    5.47    1.08 
  -1 -11  -5    1.57    1.04 
   1  11   5    0.56    0.67 
  -2 -11  -5    5.61    1.43 
  -2 -11  -5    4.57    1.19 
   2  11   5    3.60    0.86 
  -3 -11  -5   -0.47    0.86 
  -3 -11  -5    0.77    1.05 
   3  11   5   -0.22    0.62 
  -4 -11  -5    2.54    1.09 
  -4 -11  -5    1.60    1.09 
   4  11   5    2.18    0.79 
  -5 -11  -5    2.37    1.13 
   5  11   5   -0.66    0.94 
  -6 -11  -5   -0.85    1.14 
   6  11   5    0.52    1.07 
  -7 -11  -5   -0.72    1.13 
   7  11   5    0.52    0.96 
   2 -12  -5   11.62    1.76 
  -2  12   5   11.69    1.62 
   1 -12  -5    6.02    1.48 
  -1  12   5    6.24    1.18 
   0 -12  -5    4.38    1.47 
   0  12   5    5.91    1.09 
  -1 -12  -5    0.89    1.18 
   1  12   5    2.69    0.86 
  -2 -12  -5    2.57    1.44 
   2  12   5    1.99    0.80 
  -3 -12  -5    8.20    2.53 
  -3 -12  -5    8.87    1.80 
   3  12   5    8.48    1.32 
  -4 -12  -5    5.27    1.46 
  -5 -12  -5   17.72    2.44 
   5  12   5   15.47    2.08 
   3   9  -6   10.22    2.00 
  -3  -9   6   10.91    1.86 
   2   9  -6    8.25    1.71 
   2   9  -6    6.71    1.38 
  -2  -9   6    6.71    1.41 
   1   9  -6   22.24    2.52 
   1   9  -6   16.89    1.90 
  -1  -9   6   23.19    2.63 
   0   9  -6    0.35    0.93 
   0  -9   6    2.31    1.25 
  -1   9  -6    4.15    1.17 
   1  -9   6    1.96    1.49 
  -2   9  -6    9.12    1.55 
   2  -9   6   10.58    2.01 
  -3   9  -6    0.69    1.11 
   3  -9   6   -1.21    1.34 
   5   8  -6    3.28    1.56 
  -5  -8   6    2.16    0.99 
   4   8  -6    0.62    1.28 
  -4  -8   6    0.14    1.04 
   3   8  -6    0.86    1.23 
  -3  -8   6    1.40    0.90 
   2   8  -6    4.84    1.36 
   2   8  -6    1.99    0.92 
  -2  -8   6    3.34    1.09 
   1   8  -6    7.94    1.48 
   1   8  -6    8.88    1.38 
  -1  -8   6    8.20    1.54 
   0   8  -6    1.61    0.93 
   0   8  -6    1.25    1.04 
   0  -8   6    0.52    0.84 
  -1   8  -6    0.28    0.77 
   1  -8   6   -0.46    0.93 
  -2   8  -6    1.95    0.94 
   2  -8   6    2.05    1.33 
  -3   8  -6    0.52    0.93 
   3  -8   6    1.32    1.28 
  -4   8  -6   84.04    3.95 
   4  -8   6   81.63    4.60 
  -5   8  -6    9.00    1.53 
   5  -8   6   12.39    2.19 
  -6   8  -6    4.82    1.41 
   6  -8   6    3.23    1.57 
   7   7  -6    4.25    1.78 
  -7  -7   6    4.78    1.38 
   6   7  -6   -0.33    1.25 
  -6  -7   6    0.21    0.87 
   5   7  -6   -0.18    1.10 
  -5  -7   6    1.33    0.85 
   4   7  -6   12.02    1.82 
  -4  -7   6    6.34    1.34 
   3   7  -6   12.39    1.67 
   3   7  -6   11.47    1.41 
  -3  -7   6   12.93    1.85 
   2   7  -6    7.53    1.39 
   2   7  -6    5.11    1.06 
  -2  -7   6    6.17    1.30 
   1   7  -6    0.89    0.99 
   1   7  -6    0.54    0.64 
  -1  -7   6    1.12    0.80 
   0   7  -6    0.85    0.85 
   0   7  -6    1.56    0.77 
   0  -7   6    1.21    0.79 
  -1   7  -6    3.49    0.91 
   1  -7   6    0.70    0.76 
  -2   7  -6    0.54    0.69 
   2  -7   6    1.40    1.00 
  -3   7  -6    0.24    0.73 
   3  -7   6   -0.99    0.81 
  -4   7  -6    0.41    0.83 
   4  -7   6    0.03    0.90 
  -5   7  -6    9.72    1.51 
   5  -7   6   10.54    1.97 
  -6   7  -6   21.52    2.21 
   6  -7   6   18.41    2.64 
  -7   7  -6   25.99    2.47 
   7  -7   6   15.46    2.35 
   8   6  -6   -0.69    1.44 
  -8  -6   6    1.12    1.13 
   7   6  -6    6.87    1.78 
  -7  -6   6    7.53    1.58 
   6   6  -6    2.79    1.35 
  -6  -6   6    1.83    0.96 
   5   6  -6    0.39    1.06 
  -5  -6   6    3.72    0.98 
   4   6  -6   17.67    2.05 
  -4  -6   6   14.83    1.83 
   3   6  -6    6.93    1.31 
   3   6  -6    3.80    0.93 
  -3  -6   6    5.18    1.05 
   2   6  -6   32.71    1.96 
   2   6  -6   35.67    2.29 
  -2  -6   6   36.17    2.32 
   1   6  -6    0.96    0.71 
   1   6  -6   -0.05    0.58 
  -1  -6   6    0.05    0.53 
   0   6  -6    6.81    1.09 
   0   6  -6    7.71    1.13 
   0  -6   6    3.84    0.93 
  -1   6  -6   10.07    1.30 
   1  -6   6    9.32    1.43 
  -2   6  -6    3.97    0.86 
   2  -6   6    3.17    0.91 
  -3   6  -6    2.72    0.86 
   3  -6   6    1.48    0.80 
  -4   6  -6    1.73    0.78 
   4  -6   6   -0.29    0.78 
  -5   6  -6   12.40    1.59 
   5  -6   6   13.23    1.95 
  -6   6  -6   13.88    1.72 
   6  -6   6   11.55    1.92 
  -7   6  -6    8.24    1.51 
   7  -6   6    8.86    1.76 
  -8   6  -6    1.73    1.08 
   8  -6   6    0.14    1.27 
   8   5  -6   12.95    2.36 
  -8  -5   6   12.38    1.89 
   7   5  -6    4.92    1.61 
  -7  -5   6    3.85    1.18 
  -7  -5   6    3.46    1.11 
   6   5  -6    1.04    0.95 
  -6  -5   6   -0.23    0.68 
  -6  -5   6    0.79    0.94 
   5   5  -6   11.42    1.81 
  -5  -5   6    9.34    1.38 
  -5  -5   6    8.08    1.33 
   4   5  -6    4.32    1.16 
  -4  -5   6    3.41    0.89 
  -4  -5   6    3.71    1.20 
   3   5  -6   12.62    1.56 
  -3  -5   6   10.50    1.50 
   2   5  -6   52.01    2.41 
   2   5  -6   55.21    2.66 
  -2  -5   6   55.31    2.80 
   1   5  -6    7.57    1.12 
   1   5  -6    8.87    1.13 
  -1  -5   6    5.46    0.99 
   0   5  -6    2.61    0.66 
   0   5  -6    2.30    0.77 
   0  -5   6    3.02    0.75 
  -1   5  -6    0.29    0.46 
   1  -5   6    0.12    0.43 
  -2   5  -6   -0.50    0.41 
   2  -5   6   -0.10    0.41 
  -3   5  -6   11.96    1.38 
   3  -5   6    9.78    1.44 
  -4   5  -6    0.87    0.63 
   4  -5   6    0.90    0.69 
  -5   5  -6   12.12    1.45 
   5  -5   6    9.21    1.54 
  -6   5  -6    0.56    0.66 
   6  -5   6    0.24    0.84 
  -7   5  -6    3.24    1.07 
   7  -5   6    5.38    1.48 
  -8   5  -6    4.50    1.13 
   8  -5   6    5.62    1.40 
  -9   5  -6    1.38    1.17 
   9  -5   6    0.36    1.20 
   9   4  -6    1.96    1.76 
  -9  -4   6    1.94    1.18 
   8   4  -6    2.74    1.29 
  -8  -4   6    1.63    0.89 
  -8  -4   6    0.71    0.91 
   7   4  -6   10.34    1.82 
  -7  -4   6    7.92    1.27 
  -7  -4   6    6.70    1.22 
   6   4  -6    1.33    0.97 
  -6  -4   6    1.85    0.74 
  -6  -4   6    1.05    0.69 
   5   4  -6    1.07    0.82 
  -5  -4   6    0.03    0.58 
  -5  -4   6    0.11    0.61 
   4   4  -6    0.87    0.89 
  -4  -4   6    0.34    0.53 
  -4  -4   6    0.72    0.63 
   3   4  -6    5.66    1.10 
   3   4  -6    6.47    0.94 
  -3  -4   6    4.09    0.71 
  -3  -4   6    4.67    0.91 
   2   4  -6   10.26    1.16 
   2   4  -6   11.37    1.36 
  -2  -4   6   11.10    1.35 
  -2  -4   6    9.44    1.02 
   1   4  -6   39.65    1.99 
   1   4  -6   42.79    2.02 
  -1  -4   6   42.57    1.74 
  -1  -4   6   39.24    2.17 
   0   4  -6    2.84    0.68 
   0  -4   6    2.96    0.70 
  -1   4  -6    8.57    1.08 
   1  -4   6   10.53    1.37 
  -2   4  -6    3.25    0.68 
   2  -4   6    3.37    0.63 
   2  -4   6    2.70    0.74 
  -3   4  -6    0.92    0.52 
   3  -4   6    0.34    0.44 
  -4   4  -6   28.74    1.76 
  -4   4  -6   27.58    1.56 
   4  -4   6   30.00    2.09 
  -5   4  -6   -0.37    0.41 
  -5   4  -6    0.08    0.51 
   5  -4   6    1.65    0.77 
  -6   4  -6    5.66    0.87 
  -6   4  -6    7.86    1.17 
   6  -4   6    6.12    1.28 
  -7   4  -6    5.06    0.91 
  -7   4  -6    4.20    1.05 
   7  -4   6    4.58    1.20 
  -8   4  -6    2.01    0.74 
  -8   4  -6    2.67    0.93 
   8  -4   6    3.58    1.15 
  -9   4  -6    3.80    1.13 
   9  -4   6    3.27    1.30 
  10  -4   6    1.11    1.20 
   9   3  -6   25.09    3.08 
  -9  -3   6   21.78    2.17 
   8   3  -6    0.79    1.20 
  -8  -3   6    0.40    0.82 
   7   3  -6    1.73    1.02 
  -7  -3   6   -0.16    0.72 
  -7  -3   6   -0.78    0.74 
   6   3  -6    0.82    0.92 
  -6  -3   6    0.14    0.65 
  -6  -3   6   -0.36    0.56 
   5   3  -6    9.09    1.46 
  -5  -3   6    6.02    0.96 
  -5  -3   6    8.01    1.18 
   4   3  -6   42.93    2.41 
  -4  -3   6   42.43    1.95 
  -4  -3   6   37.73    2.11 
   3   3  -6    7.08    0.89 
   3   3  -6    6.02    1.05 
  -3  -3   6    5.64    0.92 
  -3  -3   6    5.06    0.86 
   2   3  -6    2.13    0.59 
   2   3  -6    1.07    0.49 
  -2  -3   6    1.52    0.53 
  -2  -3   6    0.98    0.51 
   1   3  -6   21.95    1.38 
   1   3  -6   22.40    1.41 
  -1  -3   6   24.95    1.54 
  -1  -3   6   23.20    1.25 
   0   3  -6   11.85    1.00 
   0  -3   6    9.70    1.20 
   0  -3   6   11.58    1.02 
  -1   3  -6   42.27    1.95 
   1  -3   6   38.92    2.08 
   1  -3   6   39.85    1.67 
  -2   3  -6   -0.11    0.31 
   2  -3   6   -0.26    0.32 
   2  -3   6   -0.24    0.32 
  -3   3  -6   63.32    2.57 
  -3   3  -6   60.49    2.27 
   3  -3   6   55.65    2.77 
  -4   3  -6    1.77    0.54 
  -4   3  -6    3.41    0.76 
   4  -3   6    2.05    0.68 
  -5   3  -6   34.84    1.72 
  -5   3  -6   33.57    1.90 
   5  -3   6   34.69    2.19 
  -6   3  -6    0.74    0.51 
  -6   3  -6   -0.02    0.42 
   6  -3   6    0.05    0.67 
  -7   3  -6    2.02    0.66 
  -7   3  -6    3.42    0.95 
   7  -3   6    1.10    0.75 
  -8   3  -6    2.32    0.86 
  -8   3  -6    1.56    0.74 
   8  -3   6    4.42    1.17 
  -9   3  -6    0.61    0.74 
  -9   3  -6    0.98    0.79 
   9  -3   6    1.30    0.99 
 -10   3  -6    2.04    0.84 
  10  -3   6    0.42    1.19 
  10   2  -6    2.82    1.38 
 -10  -2   6   -1.66    1.12 
   9   2  -6    1.54    1.49 
  -9  -2   6    0.02    0.82 
   8   2  -6    4.14    1.35 
  -8  -2   6    2.91    0.97 
   7   2  -6   10.87    1.90 
  -7  -2   6    5.52    1.06 
  -7  -2   6    7.92    1.22 
   6   2  -6    0.20    0.77 
  -6  -2   6    0.52    0.49 
  -6  -2   6    0.44    0.57 
   5   2  -6   96.88    3.95 
  -5  -2   6   94.77    3.55 
  -5  -2   6   90.57    3.36 
   4   2  -6   15.93    1.64 
  -4  -2   6   10.26    1.10 
  -4  -2   6   12.96    1.38 
   3   2  -6   24.07    1.63 
  -3  -2   6   21.48    1.35 
  -3  -2   6   21.39    1.49 
   2   2  -6   20.15    1.25 
   2   2  -6   16.85    1.30 
  -2  -2   6   19.98    1.20 
  -2  -2   6   20.81    1.41 
   1   2  -6   15.34    1.11 
   1   2  -6   16.49    1.14 
  -1  -2   6   17.74    1.27 
  -1  -2   6   16.96    1.05 
   0   2  -6   10.94    1.09 
   0  -2   6    8.78    0.86 
   0  -2   6    9.44    1.10 
  -1   2  -6    1.05    0.39 
   1  -2   6    1.64    0.48 
   1  -2   6    1.66    0.56 
  -2   2  -6    6.19    0.86 
   2  -2   6    6.08    0.76 
   2  -2   6    8.26    1.16 
  -3   2  -6    6.90    0.82 
  -3   2  -6    7.41    0.96 
   3  -2   6    6.15    0.95 
  -4   2  -6    0.58    0.44 
  -4   2  -6    0.64    0.44 
   4  -2   6   -0.02    0.34 
  -5   2  -6   14.43    1.20 
  -5   2  -6   13.32    1.01 
   5  -2   6   15.34    1.35 
  -6   2  -6    3.88    0.87 
  -6   2  -6    2.27    0.54 
   6  -2   6    1.82    0.78 
  -7   2  -6    0.91    0.57 
  -7   2  -6    2.75    0.73 
   7  -2   6    3.95    1.08 
  -8   2  -6   38.09    2.08 
  -8   2  -6   36.57    2.11 
   8  -2   6   41.13    2.72 
  -9   2  -6    7.59    1.24 
  -9   2  -6    5.78    1.12 
   9  -2   6    6.08    1.53 
 -10   2  -6    3.08    1.00 
  10  -2   6    4.88    1.52 
 -11   2  -6    9.87    1.64 
  11  -2   6    4.43    1.75 
  10   1  -6   14.21    2.54 
 -10  -1   6   22.14    2.27 
   9   1  -6    2.75    1.53 
  -9  -1   6    2.61    1.09 
   8   1  -6   12.06    1.94 
  -8  -1   6    9.28    1.41 
   7   1  -6    1.28    0.89 
  -7  -1   6    1.00    0.63 
   6   1  -6    2.76    0.96 
  -6  -1   6    2.82    0.75 
   5   1  -6   18.66    1.92 
  -5  -1   6   17.33    1.34 
   4   1  -6   36.42    2.11 
  -4  -1   6   34.95    1.78 
   3   1  -6    4.33    0.67 
   3   1  -6    4.82    0.82 
  -3  -1   6    3.93    0.70 
   2   1  -6    0.54    0.40 
   2   1  -6    0.19    0.30 
  -2  -1   6    0.30    0.40 
  -2  -1   6    0.01    0.31 
   1   1  -6    1.33    0.45 
   1   1  -6    1.81    0.48 
  -1  -1   6    1.05    0.43 
  -1  -1   6    1.39    0.43 
   0   1  -6    0.32    0.30 
   0  -1   6   -0.08    0.26 
   0  -1   6    0.14    0.32 
  -1   1  -6   89.42    3.06 
   1  -1   6   88.62    2.90 
   1  -1   6   92.76    3.20 
  -2   1  -6   32.02    1.55 
   2  -1   6   29.93    1.64 
  -3   1  -6   52.27    2.04 
  -3   1  -6   52.00    2.18 
   3  -1   6   55.54    2.47 
  -4   1  -6   18.35    1.23 
  -4   1  -6   17.55    1.14 
   4  -1   6   17.64    1.36 
  -5   1  -6    4.67    0.80 
  -5   1  -6    2.81    0.55 
   5  -1   6    2.20    0.60 
  -6   1  -6    3.54    0.74 
  -6   1  -6    1.99    0.53 
   6  -1   6    2.23    0.66 
  -7   1  -6    0.60    0.57 
  -7   1  -6    0.88    0.52 
   7  -1   6    1.01    0.61 
  -8   1  -6    5.18    0.92 
  -8   1  -6    5.34    1.01 
   8  -1   6    5.86    1.22 
  -9   1  -6   11.45    1.51 
   9  -1   6   12.42    1.82 
 -10   1  -6   10.74    1.55 
  10  -1   6   11.17    1.88 
 -11   1  -6    9.58    1.64 
  11  -1   6   11.44    2.00 
  10   0  -6    8.80    1.73 
 -10   0   6   10.61    1.73 
   9   0  -6   34.47    2.72 
  -9   0   6   32.47    2.34 
   8   0  -6    0.21    1.15 
  -8   0   6    1.02    0.81 
   7   0  -6   54.61    3.25 
  -7   0   6   55.13    2.65 
   6   0  -6   17.86    2.02 
  -6   0   6   16.52    1.56 
   5   0  -6    8.96    1.27 
  -5   0   6    9.65    1.13 
   4   0  -6    4.78    0.92 
  -4   0   6    4.47    0.79 
   3   0  -6    1.56    0.48 
   3   0  -6    1.19    0.53 
  -3   0   6    2.84    0.58 
   2   0  -6    4.66    0.73 
   2   0  -6    5.48    0.71 
  -2   0   6    6.38    0.79 
   1   0  -6    4.38    0.65 
   1   0  -6    4.20    0.64 
  -1   0   6    4.20    0.64 
   0   0  -6   16.21    1.03 
   0   0   6   15.46    0.98 
  -1   0  -6   33.45    1.58 
   1   0   6   36.44    1.62 
   1   0   6   31.04    1.47 
  -2   0  -6   10.24    0.99 
  -2   0  -6    9.66    0.81 
   2   0   6   10.52    0.94 
  -3   0  -6    2.69    0.53 
  -3   0  -6    2.73    0.54 
   3   0   6    1.49    0.53 
  -4   0  -6  127.90    4.00 
  -4   0  -6  133.31    3.98 
   4   0   6  130.62    4.38 
  -5   0  -6   38.17    1.81 
  -5   0  -6   41.65    1.83 
   5   0   6   43.96    2.22 
  -6   0  -6    1.54    0.46 
  -6   0  -6    2.15    0.62 
   6   0   6    1.65    0.61 
  -7   0  -6    4.55    0.88 
  -7   0  -6    3.96    0.75 
   7   0   6    4.24    0.93 
  -8   0  -6    1.03    0.58 
   8   0   6    1.05    0.65 
  -9   0  -6    4.23    0.92 
   9   0   6    5.60    1.35 
 -10   0  -6    0.77    0.70 
  10   0   6    0.77    0.85 
 -11   0  -6    2.12    0.92 
  11   0   6    2.76    1.24 
  10  -1  -6   -0.61    1.10 
 -10   1   6    1.32    1.17 
   9  -1  -6   14.11    2.08 
  -9   1   6   18.57    1.97 
   8  -1  -6    0.71    1.02 
  -8   1   6    1.95    0.79 
   7  -1  -6    2.00    0.95 
  -7   1   6    2.03    0.75 
   6  -1  -6   38.88    2.54 
  -6   1   6   40.43    2.11 
   5  -1  -6   19.37    1.69 
  -5   1   6   18.72    1.36 
   4  -1  -6   87.21    3.49 
  -4   1   6   89.26    3.21 
   3  -1  -6   56.30    2.14 
   3  -1  -6   55.11    2.45 
  -3   1   6   52.67    2.18 
   2  -1  -6   43.42    1.80 
   2  -1  -6   42.79    1.96 
  -2   1   6   45.02    1.89 
   1  -1  -6    1.22    0.44 
   1  -1  -6    0.88    0.35 
  -1   1   6    0.78    0.36 
   0  -1  -6   24.98    1.27 
   0   1   6   22.53    1.22 
  -1  -1  -6    0.80    0.33 
   1   1   6    0.25    0.25 
  -2  -1  -6   20.02    1.13 
  -2  -1  -6   17.10    1.08 
   2   1   6   20.40    1.18 
  -3  -1  -6   28.22    1.37 
  -3  -1  -6   26.08    1.34 
   3   1   6   26.66    1.50 
  -4  -1  -6   38.99    1.73 
  -4  -1  -6   36.38    1.69 
   4   1   6   40.19    1.97 
  -5  -1  -6   10.22    1.07 
  -5  -1  -6    8.07    0.89 
   5   1   6    8.09    1.09 
  -6  -1  -6    0.57    0.35 
   6   1   6    1.47    0.57 
  -7  -1  -6   11.71    1.26 
   7   1   6   11.99    1.55 
  -8  -1  -6    4.37    0.89 
   8   1   6    2.78    0.79 
  -9  -1  -6   -0.56    0.41 
   9   1   6    0.02    0.57 
 -10  -1  -6    0.21    0.61 
  10   1   6   -0.19    0.66 
 -11  -1  -6    0.45    0.83 
  11   1   6    0.56    1.02 
 -12  -1  -6   33.08    2.92 
  12   1   6   29.71    3.32 
  10  -2  -6    1.18    1.09 
 -10   2   6   -0.41    1.02 
   9  -2  -6    0.17    0.90 
  -9   2   6    0.31    0.83 
   8  -2  -6   11.26    1.80 
  -8   2   6   14.16    1.66 
   7  -2  -6    1.47    0.99 
  -7   2   6    0.85    0.60 
   6  -2  -6    3.36    1.00 
  -6   2   6    2.47    0.69 
   5  -2  -6   38.29    2.32 
  -5   2   6   30.83    1.75 
   4  -2  -6   -0.05    0.34 
   4  -2  -6    0.06    0.56 
  -4   2   6    0.17    0.33 
   3  -2  -6    3.70    0.62 
   3  -2  -6    5.92    0.96 
  -3   2   6    4.51    0.65 
   2  -2  -6    1.24    0.38 
   2  -2  -6    1.13    0.48 
  -2   2   6    0.77    0.38 
   1  -2  -6   16.36    1.05 
   1  -2  -6   15.50    1.05 
  -1   2   6   14.91    1.01 
   0  -2  -6   45.59    1.77 
   0  -2  -6   44.82    1.84 
   0   2   6   46.15    1.85 
  -1  -2  -6   28.82    1.41 
   1   2   6   28.16    1.37 
  -2  -2  -6   17.46    1.07 
  -2  -2  -6   16.89    1.06 
   2   2   6   19.67    1.11 
  -3  -2  -6   20.42    1.16 
  -3  -2  -6   19.73    1.12 
   3   2   6   21.66    1.29 
  -4  -2  -6    8.56    0.95 
  -4  -2  -6    7.96    0.91 
   4   2   6    8.06    1.08 
  -5  -2  -6    5.67    0.76 
  -5  -2  -6    4.43    0.66 
   5   2   6    5.93    0.98 
  -6  -2  -6    8.89    1.03 
   6   2   6   12.36    1.45 
  -7  -2  -6   19.26    1.31 
   7   2   6   18.64    1.51 
  -8  -2  -6    0.49    0.47 
   8   2   6    1.81    0.74 
  -9  -2  -6    5.77    1.03 
   9   2   6    7.21    1.33 
 -10  -2  -6    5.49    1.07 
  10   2   6    8.35    1.60 
 -11  -2  -6    9.25    1.48 
  11   2   6    6.98    1.57 
 -12  -2  -6    3.31    1.18 
  12   2   6    1.89    1.35 
  10  -3  -6    3.37    1.29 
 -10   3   6    1.01    1.18 
   9  -3  -6    0.56    1.02 
  -9   3   6    0.74    0.90 
   8  -3  -6    7.98    1.54 
  -8   3   6    9.52    1.40 
   7  -3  -6   25.33    2.09 
  -7   3   6   23.24    1.74 
   6  -3  -6    0.52    0.84 
  -6   3   6    1.94    0.67 
   5  -3  -6   41.29    2.45 
   5  -3  -6   40.39    1.85 
  -5   3   6   44.97    2.11 
   4  -3  -6   15.32    1.61 
   4  -3  -6   12.40    0.98 
  -4   3   6   10.43    1.13 
   3  -3  -6    7.20    0.83 
   3  -3  -6    8.07    1.14 
  -3   3   6    6.26    0.79 
   2  -3  -6    3.97    0.62 
   2  -3  -6    4.10    0.82 
  -2   3   6    4.95    0.74 
   1  -3  -6    0.71    0.30 
   1  -3  -6    1.69    0.51 
  -1   3   6    0.78    0.34 
   0  -3  -6   -0.06    0.22 
   0  -3  -6    0.13    0.34 
   0   3   6    0.06    0.22 
  -1  -3  -6   57.05    2.19 
   1   3   6   55.89    2.13 
  -2  -3  -6   25.23    1.32 
  -2  -3  -6   26.25    1.34 
  -3  -3  -6    0.84    0.34 
  -3  -3  -6    1.57    0.41 
   3   3   6    0.92    0.46 
  -4  -3  -6    3.45    0.59 
  -4  -3  -6    3.40    0.62 
   4   3   6    4.28    0.84 
  -5  -3  -6   -0.03    0.26 
  -5  -3  -6    0.39    0.26 
   5   3   6    0.15    0.27 
  -6  -3  -6   10.30    1.15 
   6   3   6    8.23    1.22 
  -7  -3  -6   25.37    1.53 
   7   3   6   24.92    1.83 
  -8  -3  -6    1.65    0.61 
   8   3   6    1.45    0.62 
  -9  -3  -6    3.99    0.96 
   9   3   6    3.00    0.90 
 -10  -3  -6   12.79    1.61 
  10   3   6   12.44    1.92 
 -11  -3  -6    0.93    0.85 
  11   3   6    1.19    0.96 
 -12  -3  -6   -0.02    0.93 
  12   3   6    1.03    1.20 
  10  -4  -6    2.74    1.28 
 -10   4   6    7.66    1.54 
   9  -4  -6   -0.15    0.87 
  -9   4   6    1.57    1.01 
   8  -4  -6   -0.53    0.83 
  -8   4   6   -0.09    0.77 
   7  -4  -6   67.48    3.51 
  -7   4   6   68.33    3.07 
   6  -4  -6    0.51    0.77 
  -6   4   6   -0.29    0.54 
  -6   4   6    0.68    0.57 
   5  -4  -6    4.56    1.09 
  -5   4   6    3.51    0.83 
  -5   4   6    4.24    0.80 
   4  -4  -6    1.75    0.49 
   4  -4  -6   -0.08    0.51 
  -4   4   6    1.07    0.45 
   3  -4  -6    0.85    0.61 
   3  -4  -6    0.82    0.39 
  -3   4   6    1.56    0.46 
   2  -4  -6   68.99    2.86 
   2  -4  -6   70.94    2.59 
  -2   4   6   73.90    2.63 
   1  -4  -6   19.14    1.16 
   1  -4  -6   16.97    1.27 
  -1   4   6   18.01    1.13 
   0  -4  -6  113.26    3.54 
   0  -4  -6  107.80    3.56 
   0   4   6  114.55    3.52 
  -1  -4  -6    8.42    0.90 
  -1  -4  -6    8.04    0.89 
   1   4   6    7.28    0.83 
  -2  -4  -6   62.35    2.20 
  -2  -4  -6   64.23    2.32 
   2   4   6   64.54    2.33 
  -3  -4  -6    0.91    0.35 
  -3  -4  -6    0.94    0.33 
   3   4   6    1.45    0.46 
  -4  -4  -6    0.08    0.29 
  -4  -4  -6    0.56    0.34 
   4   4   6    0.56    0.44 
  -5  -4  -6    1.13    0.43 
   5   4   6    1.02    0.42 
  -6  -4  -6   25.33    1.44 
   6   4   6   23.99    1.63 
  -7  -4  -6   13.94    1.15 
   7   4   6   16.86    1.88 
  -8  -4  -6    1.09    0.55 
   8   4   6    1.07    0.65 
  -9  -4  -6   19.83    1.96 
   9   4   6   16.70    2.12 
 -10  -4  -6   -0.68    0.62 
  10   4   6   -0.08    0.54 
 -11  -4  -6    1.41    0.91 
  11   4   6    1.46    1.05 
   9  -5  -6    0.10    0.97 
  -9   5   6    0.29    0.89 
   8  -5  -6   71.72    3.87 
  -8   5   6   65.82    3.29 
   7  -5  -6    6.32    1.41 
  -7   5   6    7.33    1.15 
  -7   5   6    5.09    1.06 
   6  -5  -6   27.59    2.18 
  -6   5   6   32.89    1.99 
  -6   5   6   34.61    1.96 
   5  -5  -6    1.97    0.85 
  -5   5   6    1.93    0.68 
  -5   5   6    3.90    0.79 
   4  -5  -6    1.41    0.73 
  -4   5   6    1.86    0.58 
  -4   5   6    1.09    0.57 
   3  -5  -6    5.60    1.02 
   3  -5  -6    4.92    0.78 
  -3   5   6    4.78    0.70 
   2  -5  -6    6.52    0.83 
   2  -5  -6    6.14    0.99 
  -2   5   6    7.22    0.88 
   1  -5  -6   23.33    1.32 
   1  -5  -6   22.04    1.53 
  -1   5   6   23.18    1.34 
   0  -5  -6   27.95    1.57 
   0  -5  -6   25.85    1.43 
   0   5   6   28.78    1.43 
  -1  -5  -6   10.87    0.88 
  -1  -5  -6   11.96    0.99 
   1   5   6   11.32    0.91 
  -2  -5  -6    1.60    0.45 
  -2  -5  -6    1.52    0.47 
   2   5   6    0.69    0.35 
  -3  -5  -6    5.63    0.81 
  -3  -5  -6    6.10    0.81 
  -3  -5  -6    5.95    0.79 
  -3  -5  -6    6.45    0.84 
  -4  -5  -6    1.08    0.39 
  -4  -5  -6    1.37    0.51 
  -4  -5  -6    0.34    0.36 
  -5  -5  -6    7.27    0.91 
   5   5   6    8.66    1.03 
  -6  -5  -6    7.87    1.00 
   6   5   6    8.96    1.32 
  -7  -5  -6   76.90    2.98 
   7   5   6   75.21    3.46 
  -8  -5  -6   33.54    1.91 
   8   5   6   31.10    2.19 
  -9  -5  -6    1.86    0.66 
   9   5   6   -0.41    0.43 
 -10  -5  -6   -0.65    0.68 
  10   5   6    0.40    0.65 
 -11  -5  -6    3.63    1.19 
  11   5   6    1.85    0.91 
   9  -6  -6    2.14    1.10 
  -9   6   6    1.01    1.15 
   8  -6  -6   22.94    2.54 
  -8   6   6   23.39    2.17 
   7  -6  -6   11.67    1.71 
  -7   6   6   14.19    1.57 
  -7   6   6   10.02    1.28 
   6  -6  -6    3.54    1.07 
  -6   6   6    2.95    0.85 
  -6   6   6    4.21    1.03 
   5  -6  -6    4.39    1.18 
  -5   6   6    7.45    1.09 
  -5   6   6    5.64    0.91 
   4  -6  -6    3.75    0.95 
  -4   6   6    2.30    0.64 
  -4   6   6    2.62    0.70 
   3  -6  -6    0.89    0.72 
  -3   6   6    0.60    0.44 
  -3   6   6    0.65    0.44 
   2  -6  -6   21.87    1.64 
  -2   6   6   20.45    1.26 
  -2   6   6   21.25    1.50 
   1  -6  -6   78.71    2.98 
   1  -6  -6   79.63    3.19 
  -1   6   6   79.47    2.80 
   0  -6  -6   17.97    1.36 
   0  -6  -6   19.23    1.30 
   0   6   6   19.43    1.23 
  -1  -6  -6    2.93    0.69 
  -1  -6  -6    3.27    0.67 
   1   6   6    3.48    0.62 
  -2  -6  -6    1.78    0.63 
  -2  -6  -6    2.70    0.60 
   2   6   6    2.27    0.49 
  -3  -6  -6    8.94    1.08 
  -3  -6  -6   10.97    0.94 
  -3  -6  -6   10.01    1.18 
  -3  -6  -6    9.74    1.03 
  -4  -6  -6    5.36    0.77 
  -4  -6  -6    7.99    1.08 
  -4  -6  -6    7.44    0.93 
  -4  -6  -6    6.91    1.03 
  -5  -6  -6   15.21    1.17 
  -5  -6  -6   17.84    1.43 
   5   6   6   13.54    1.39 
  -6  -6  -6    0.96    0.51 
  -6  -6  -6    0.41    0.61 
   6   6   6   -0.22    0.50 
  -7  -6  -6    8.78    1.13 
   7   6   6    7.51    1.15 
  -8  -6  -6   19.22    1.49 
   8   6   6   17.93    1.81 
   8   6   6   13.03    1.73 
  -9  -6  -6    4.55    0.97 
   9   6   6    3.85    1.11 
 -10  -6  -6    1.37    0.76 
  10   6   6    1.04    0.75 
 -11  -6  -6    1.74    0.99 
  11   6   6    0.06    0.70 
   8  -7  -6    4.01    1.40 
  -8   7   6    4.13    1.45 
  -8   7   6    5.37    1.21 
   7  -7  -6    9.66    1.69 
  -7   7   6    9.50    1.46 
  -7   7   6    9.86    1.40 
   6  -7  -6    0.87    0.79 
  -6   7   6    0.96    0.78 
  -6   7   6    1.19    0.77 
   5  -7  -6    4.15    1.11 
  -5   7   6    4.54    0.91 
  -5   7   6    3.08    0.98 
   4  -7  -6    0.08    0.71 
  -4   7   6    0.87    0.55 
  -4   7   6    0.83    0.66 
   3  -7  -6    5.16    1.10 
  -3   7   6    4.21    0.79 
  -3   7   6    5.09    0.95 
   2  -7  -6   -0.12    0.59 
  -2   7   6    0.67    0.49 
  -2   7   6    0.00    0.39 
   1  -7  -6    0.39    0.52 
  -1   7   6    0.01    0.30 
  -1   7   6   -0.11    0.41 
   0  -7  -6   52.35    2.53 
   0   7   6   49.01    2.05 
   0   7   6   49.96    2.30 
  -1  -7  -6   25.97    1.68 
   1   7   6   22.19    1.33 
  -2  -7  -6   33.29    1.89 
   2   7   6   31.85    1.62 
  -3  -7  -6    5.74    1.00 
  -3  -7  -6    5.93    0.93 
   3   7   6    4.79    0.76 
  -4  -7  -6    2.00    0.68 
  -4  -7  -6    0.86    0.45 
  -4  -7  -6    1.24    0.62 
  -4  -7  -6    0.78    0.53 
  -5  -7  -6   -0.07    0.51 
  -5  -7  -6    0.91    0.55 
   5   7   6   -0.14    0.52 
  -6  -7  -6    0.64    0.66 
  -6  -7  -6    1.04    0.54 
   6   7   6    0.78    0.58 
  -7  -7  -6    0.36    0.52 
  -7  -7  -6    3.41    0.99 
   7   7   6    2.09    0.78 
  -8  -7  -6    0.33    0.61 
  -8  -7  -6    0.99    0.84 
   8   7   6    1.11    0.74 
  -9  -7  -6    3.37    0.87 
   9   7   6    3.88    1.21 
 -10  -7  -6    1.16    0.93 
  10   7   6   -0.55    0.70 
 -11  -7  -6   10.05    1.56 
  11   7   6    7.47    1.42 
   7  -8  -6    2.05    1.27 
  -7   8   6    5.42    1.40 
   6  -8  -6    4.80    1.21 
  -6   8   6    3.94    1.18 
   5  -8  -6    1.10    0.79 
  -5   8   6    0.11    0.75 
   4  -8  -6    3.83    1.04 
  -4   8   6    4.45    1.02 
  -4   8   6    4.38    1.13 
   3  -8  -6    4.66    1.16 
  -3   8   6    7.17    1.19 
  -3   8   6    5.50    0.87 
   2  -8  -6   -0.68    0.63 
  -2   8   6    1.33    0.51 
  -2   8   6   -0.11    0.58 
   1  -8  -6   13.74    1.65 
  -1   8   6   12.04    1.34 
  -1   8   6   11.22    1.10 
   0  -8  -6    4.02    0.98 
   0   8   6    2.50    0.60 
   0   8   6    3.89    0.75 
  -1  -8  -6   74.17    3.25 
   1   8   6   71.98    2.62 
   1   8   6   69.81    2.88 
  -2  -8  -6    0.24    0.63 
   2   8   6    0.73    0.46 
   2   8   6    0.17    0.35 
  -3  -8  -6    2.59    0.86 
  -3  -8  -6    3.46    0.86 
   3   8   6    2.07    0.59 
   3   8   6    3.55    0.66 
  -4  -8  -6   18.21    1.37 
  -4  -8  -6   19.01    1.54 
  -4  -8  -6   19.29    1.62 
   4   8   6   18.62    1.27 
  -5  -8  -6    6.58    1.29 
  -5  -8  -6    6.92    0.98 
   5   8   6    5.51    1.06 
  -6  -8  -6    0.48    0.74 
  -6  -8  -6    1.14    0.66 
   6   8   6    1.15    0.72 
  -7  -8  -6   -0.49    0.75 
  -7  -8  -6    0.87    0.60 
   7   8   6    0.13    0.61 
  -8  -8  -6   -0.04    0.68 
  -8  -8  -6    1.05    0.92 
   8   8   6   -0.27    0.82 
  -9  -8  -6    2.59    0.87 
  -9  -8  -6    3.17    1.28 
   9   8   6    2.33    1.05 
 -10  -8  -6   -0.47    0.68 
  10   8   6   -0.85    0.78 
   7  -9  -6   31.24    2.56 
  -7   9   6   28.31    2.45 
   6  -9  -6    0.20    0.96 
  -6   9   6    0.34    1.08 
   5  -9  -6    1.32    0.95 
  -5   9   6    1.62    1.00 
   4  -9  -6    1.54    1.01 
  -4   9   6    2.18    0.95 
   3  -9  -6    4.21    1.17 
  -3   9   6    2.88    0.95 
   2  -9  -6   -0.22    0.66 
  -2   9   6   -0.22    0.71 
   1  -9  -6    9.67    1.44 
  -1   9   6    9.37    1.27 
   0  -9  -6    1.48    0.77 
   0   9   6    0.24    0.47 
  -1  -9  -6    9.36    1.46 
   1   9   6    6.42    1.00 
  -2  -9  -6    0.02    0.63 
   2   9   6    0.63    0.52 
  -3  -9  -6    3.43    0.91 
  -3  -9  -6    2.18    0.76 
   3   9   6    2.30    0.65 
  -4  -9  -6   -0.34    0.65 
  -4  -9  -6    0.58    0.69 
   4   9   6    0.28    0.43 
  -5  -9  -6    0.69    0.83 
   5   9   6    1.71    0.79 
  -6  -9  -6    1.27    0.87 
   6   9   6    1.86    0.79 
  -7  -9  -6    6.54    1.46 
   7   9   6    4.42    1.09 
  -8  -9  -6   29.15    2.94 
   8   9   6   19.63    2.25 
  -9  -9  -6   15.67    2.33 
   9   9   6   10.06    1.79 
   5 -10  -6    3.12    1.14 
  -5  10   6    2.92    1.27 
   4 -10  -6   -0.80    0.80 
  -4  10   6    0.44    1.00 
   3 -10  -6    0.17    0.90 
  -3  10   6   -0.74    0.79 
   2 -10  -6    9.58    1.59 
  -2  10   6    5.75    1.02 
   1 -10  -6    1.37    0.92 
  -1  10   6    1.50    0.72 
   0 -10  -6    0.86    0.90 
   0  10   6    2.10    0.72 
  -1 -10  -6   -0.64    0.79 
   1  10   6    0.29    0.54 
  -2 -10  -6    0.44    0.84 
   2  10   6    0.07    0.58 
  -3 -10  -6    0.16    0.78 
  -3 -10  -6    0.33    0.83 
   3  10   6    0.01    0.56 
  -4 -10  -6   -0.21    0.85 
  -4 -10  -6   -0.41    0.83 
   4  10   6    0.49    0.56 
  -5 -10  -6    8.43    1.46 
   5  10   6    8.40    1.51 
  -6 -10  -6    0.16    0.92 
   6  10   6    0.74    0.85 
  -7 -10  -6    5.20    1.34 
   7  10   6    2.99    1.12 
  -8 -10  -6    2.72    1.44 
   8  10   6    0.98    0.98 
   4 -11  -6   16.65    2.22 
  -4  11   6   17.41    2.21 
   3 -11  -6   57.72    3.49 
  -3  11   6   54.59    3.24 
   2 -11  -6    8.39    1.67 
  -2  11   6    8.66    1.38 
   1 -11  -6    1.33    1.27 
  -1  11   6    4.44    1.01 
   0 -11  -6    0.77    1.07 
   0  11   6   -0.19    0.71 
  -1 -11  -6    0.94    0.97 
   1  11   6    0.05    0.67 
  -2 -11  -6    0.20    0.91 
   2  11   6    0.34    0.66 
  -3 -11  -6    8.97    1.68 
   3  11   6    6.74    1.17 
  -4 -11  -6    8.97    1.43 
  -4 -11  -6   11.63    1.85 
   4  11   6    8.34    1.23 
  -5 -11  -6   16.40    2.13 
   5  11   6    9.33    1.67 
  -6 -11  -6    4.61    1.50 
   6  11   6    8.73    1.67 
  -7 -11  -6    0.03    1.13 
   7  11   6    0.02    1.08 
   2 -12  -6   -2.09    0.95 
  -2  12   6   -0.26    0.85 
   1 -12  -6    5.68    1.74 
  -1  12   6    8.07    1.41 
   0 -12  -6    1.22    1.29 
   0  12   6    0.45    0.88 
  -1 -12  -6    3.09    1.42 
   1  12   6    0.11    0.81 
  -2 -12  -6    1.60    1.28 
   2  12   6    1.00    0.92 
  -3 -12  -6    3.68    1.57 
   3  12   6    4.02    1.05 
  -4 -12  -6   11.07    1.86 
  -5 -12  -6   18.59    2.40 
   5  12   6   18.29    2.25 
   0   9  -7   31.91    2.55 
   0  -9   7   29.45    2.97 
  -1   9  -7    4.09    1.30 
   1  -9   7    2.53    1.25 
   4   8  -7    1.88    1.51 
  -4  -8   7    0.57    1.11 
   3   8  -7   10.89    2.01 
  -3  -8   7    7.24    1.58 
   2   8  -7    9.98    1.54 
   2   8  -7   10.58    1.80 
  -2  -8   7   10.04    1.69 
   1   8  -7    0.29    0.98 
  -1  -8   7    2.68    1.07 
   0   8  -7    0.85    0.94 
   0  -8   7    1.66    1.01 
  -1   8  -7    1.76    1.02 
   1  -8   7    1.16    1.04 
  -2   8  -7    0.34    0.92 
   2  -8   7    0.53    0.98 
  -3   8  -7    0.14    1.02 
   3  -8   7    1.08    1.38 
  -4   8  -7   -0.56    0.93 
   4  -8   7    3.72    1.86 
   6   7  -7    7.65    1.92 
  -6  -7   7    8.96    1.64 
   5   7  -7   -1.78    1.32 
  -5  -7   7    1.39    1.10 
   4   7  -7    8.42    1.72 
  -4  -7   7    9.90    1.72 
   3   7  -7    5.22    1.39 
  -3  -7   7    4.61    1.33 
   2   7  -7   24.98    2.04 
   2   7  -7   33.15    2.40 
  -2  -7   7   29.67    2.36 
   1   7  -7    2.28    0.88 
   1   7  -7    0.75    1.02 
  -1  -7   7    1.64    0.96 
   0   7  -7   -1.09    0.71 
   0  -7   7    0.76    0.77 
  -1   7  -7    0.54    0.72 
   1  -7   7    1.66    0.91 
  -2   7  -7    0.69    0.85 
   2  -7   7    1.13    0.85 
  -3   7  -7   -0.20    0.76 
   3  -7   7   -0.06    0.93 
  -4   7  -7    6.25    1.34 
   4  -7   7    5.12    1.56 
  -5   7  -7    5.61    1.36 
   5  -7   7    3.61    1.50 
  -6   7  -7   11.30    1.76 
   6  -7   7    8.38    1.95 
   7   6  -7   25.42    2.91 
  -7  -6   7   21.68    2.45 
   6   6  -7   17.10    2.38 
  -6  -6   7   16.10    2.09 
   5   6  -7    1.03    1.21 
  -5  -6   7    2.28    0.98 
   4   6  -7    1.54    1.04 
  -4  -6   7    2.35    0.92 
   3   6  -7   27.41    1.92 
   3   6  -7   26.87    2.48 
  -3  -6   7   28.50    2.15 
   2   6  -7    5.25    1.27 
   2   6  -7    3.74    0.94 
  -2  -6   7    4.20    0.96 
   1   6  -7   10.13    1.40 
   1   6  -7    9.29    1.35 
  -1  -6   7    8.59    1.32 
   0   6  -7    1.67    0.76 
   0   6  -7    1.53    1.05 
   0  -6   7    2.22    0.91 
  -1   6  -7    0.29    0.73 
   1  -6   7    0.03    0.60 
  -2   6  -7    4.91    1.06 
   2  -6   7    4.13    1.01 
  -3   6  -7    2.90    0.93 
   3  -6   7    2.02    0.81 
  -4   6  -7    1.16    0.78 
   4  -6   7    0.09    0.80 
  -5   6  -7    0.59    0.79 
   5  -6   7    1.54    1.00 
  -6   6  -7    0.84    0.94 
   6  -6   7    0.45    1.22 
  -7   6  -7    4.02    1.33 
   7  -6   7    1.06    1.43 
   8   5  -7    2.45    1.58 
   7   5  -7    0.09    1.34 
  -7  -5   7    0.21    0.91 
   6   5  -7    8.70    1.77 
  -6  -5   7    9.16    1.56 
   5   5  -7    2.20    1.16 
  -5  -5   7    2.04    0.79 
   4   5  -7    3.26    1.16 
  -4  -5   7    4.53    1.00 
   3   5  -7  113.72    4.36 
   3   5  -7  107.58    3.92 
  -3  -5   7  103.31    4.34 
   2   5  -7    8.77    1.34 
   2   5  -7    7.53    1.12 
  -2  -5   7    5.29    1.05 
   1   5  -7   11.89    1.43 
   1   5  -7   12.17    1.46 
  -1  -5   7   14.35    1.73 
   0   5  -7    0.28    0.57 
   0  -5   7    0.53    0.61 
  -1   5  -7   -0.23    0.57 
   1  -5   7    0.91    0.59 
  -2   5  -7   11.37    1.47 
   2  -5   7   12.82    1.69 
  -3   5  -7    0.86    0.62 
   3  -5   7   -0.33    0.56 
  -4   5  -7    1.01    0.70 
   4  -5   7    0.52    0.67 
  -5   5  -7    2.33    0.93 
   5  -5   7   -0.03    0.85 
  -6   5  -7   -0.33    0.74 
   6  -5   7    1.15    1.10 
  -7   5  -7    6.79    1.30 
   7  -5   7    6.40    1.74 
  -8   5  -7    2.39    1.15 
   8  -5   7    0.35    1.28 
   8   4  -7   -1.09    1.47 
  -8  -4   7    0.46    1.03 
   7   4  -7    2.68    1.18 
  -7  -4   7   -0.43    0.94 
  -7  -4   7    0.97    0.84 
   6   4  -7   -0.51    0.97 
  -6  -4   7    1.16    0.82 
  -6  -4   7   -0.59    0.78 
   5   4  -7   41.32    2.78 
  -5  -4   7   45.44    2.34 
  -5  -4   7   42.17    2.53 
   4   4  -7    4.70    1.14 
  -4  -4   7    3.56    0.83 
  -4  -4   7    3.54    0.89 
   3   4  -7    7.89    1.35 
  -3  -4   7    8.43    1.25 
  -3  -4   7    6.39    0.97 
   2   4  -7    6.82    1.06 
   2   4  -7    7.11    1.18 
  -2  -4   7    9.08    0.97 
  -2  -4   7    7.32    1.14 
   1   4  -7   42.12    2.11 
   1   4  -7   38.19    2.07 
  -1  -4   7   40.63    2.28 
  -1  -4   7   38.34    1.81 
   0   4  -7    0.02    0.51 
   0  -4   7    0.49    0.46 
   0  -4   7   -0.06    0.45 
  -1   4  -7    0.06    0.43 
   1  -4   7   -0.32    0.41 
   1  -4   7    0.72    0.49 
  -2   4  -7   13.25    1.49 
   2  -4   7   10.90    1.50 
  -3   4  -7   13.35    1.49 
   3  -4   7   13.66    1.28 
   3  -4   7    9.28    1.42 
  -4   4  -7    9.23    1.31 
  -4   4  -7    6.91    0.88 
   4  -4   7    7.59    1.36 
  -5   4  -7    5.42    1.04 
  -5   4  -7    6.55    0.90 
   5  -4   7    3.88    0.99 
  -6   4  -7   -0.53    0.61 
  -6   4  -7    1.42    0.73 
   6  -4   7    0.08    0.77 
  -7   4  -7   -0.46    0.82 
   7  -4   7    0.17    0.93 
  -8   4  -7    3.63    1.16 
   8  -4   7    3.82    1.31 
  -9   4  -7    2.38    1.11 
   9  -4   7    2.02    1.31 
   9   3  -7    6.49    1.95 
  -9  -3   7    4.04    1.27 
   8   3  -7   12.89    2.24 
  -8  -3   7   12.72    1.63 
   7   3  -7   -0.03    1.08 
  -7  -3   7    1.53    0.78 
   6   3  -7    1.96    1.02 
  -6  -3   7   -0.07    0.70 
  -6  -3   7    1.39    0.77 
   5   3  -7    5.67    1.31 
  -5  -3   7    6.85    1.06 
  -5  -3   7    4.62    1.01 
   4   3  -7   81.71    3.60 
  -4  -3   7   77.48    3.35 
  -4  -3   7   84.06    3.11 
   3   3  -7   -0.06    0.55 
   3   3  -7   -0.08    0.71 
  -3  -3   7    0.43    0.49 
  -3  -3   7   -0.08    0.62 
   2   3  -7  121.21    4.09 
   2   3  -7  124.77    4.25 
  -2  -3   7  125.42    3.87 
  -2  -3   7  123.61    4.39 
   1   3  -7   17.20    1.31 
   1   3  -7   15.47    1.30 
  -1  -3   7   17.47    1.36 
  -1  -3   7   14.98    1.14 
   0   3  -7    0.37    0.42 
   0  -3   7    0.46    0.43 
   0  -3   7    0.63    0.42 
  -1   3  -7   -0.19    0.42 
   1  -3   7    0.63    0.41 
   1  -3   7    0.04    0.41 
  -2   3  -7    2.44    0.65 
   2  -3   7    4.24    0.74 
   2  -3   7    3.34    0.85 
  -3   3  -7   17.16    1.34 
   3  -3   7   14.68    1.19 
   3  -3   7   14.68    1.70 
  -4   3  -7    1.74    0.53 
  -4   3  -7    2.29    0.73 
   4  -3   7    1.47    0.62 
  -5   3  -7   36.43    1.85 
  -5   3  -7   38.30    2.15 
   5  -3   7   39.81    2.45 
  -6   3  -7    3.91    0.90 
  -6   3  -7    3.57    0.80 
   6  -3   7    4.33    1.04 
  -7   3  -7    1.25    0.74 
  -7   3  -7   -0.48    0.49 
   7  -3   7   -0.29    0.75 
  -8   3  -7    0.34    0.62 
  -8   3  -7    0.48    0.76 
   8  -3   7    1.01    1.02 
  -9   3  -7    4.72    1.13 
  -9   3  -7   -0.13    0.68 
   9  -3   7    0.66    1.00 
 -10   3  -7    0.24    0.81 
  10  -3   7   -2.50    1.09 
   9   2  -7    2.95    1.66 
  -9  -2   7    3.67    1.29 
   8   2  -7    2.73    1.36 
  -8  -2   7   -1.60    0.84 
   7   2  -7   13.74    2.10 
  -7  -2   7   11.34    1.49 
   6   2  -7    2.44    1.11 
  -6  -2   7    2.45    0.85 
   5   2  -7    4.09    1.16 
  -5  -2   7    4.67    0.95 
   4   2  -7   25.97    1.95 
  -4  -2   7   22.70    1.58 
  -4  -2   7   23.46    1.55 
   3   2  -7   52.65    2.29 
   3   2  -7   52.80    2.60 
  -3  -2   7   49.76    2.40 
  -3  -2   7   59.57    2.32 
   2   2  -7   -0.22    0.42 
   2   2  -7   -1.10    0.43 
  -2  -2   7   -0.30    0.48 
  -2  -2   7    0.52    0.43 
   1   2  -7   19.74    1.34 
  -1  -2   7   21.11    1.48 
  -1  -2   7   18.75    1.21 
   0   2  -7   15.70    1.18 
   0  -2   7   14.14    1.07 
   0  -2   7   12.14    1.39 
  -1   2  -7   22.91    1.46 
   1  -2   7   24.84    1.58 
   1  -2   7   26.08    1.42 
  -2   2  -7    6.09    0.88 
   2  -2   7    5.77    0.81 
   2  -2   7    6.67    1.04 
  -3   2  -7   23.80    1.53 
  -3   2  -7   18.93    1.33 
   3  -2   7   23.56    1.63 
  -4   2  -7   65.03    2.54 
  -4   2  -7   68.84    2.82 
   4  -2   7   70.37    3.14 
  -5   2  -7    4.36    0.84 
  -5   2  -7    3.34    0.68 
   5  -2   7    2.66    0.75 
  -6   2  -7    4.59    0.83 
  -6   2  -7    5.57    1.05 
   6  -2   7    3.54    0.91 
  -7   2  -7    2.17    0.84 
  -7   2  -7    1.95    0.66 
   7  -2   7    0.19    0.57 
  -8   2  -7    2.65    0.93 
  -8   2  -7    1.47    0.68 
   8  -2   7    2.28    1.11 
  -9   2  -7    0.06    0.59 
  -9   2  -7   -0.05    0.82 
   9  -2   7    0.68    0.94 
 -10   2  -7    3.90    1.07 
  10  -2   7    5.59    1.57 
   9   1  -7   31.59    3.53 
  -9  -1   7   38.03    2.64 
   8   1  -7   -0.50    1.26 
  -8  -1   7    0.81    0.82 
   7   1  -7    4.86    1.36 
  -7  -1   7    6.72    1.24 
   6   1  -7   19.22    2.13 
  -6  -1   7   18.12    1.71 
   5   1  -7   -0.83    0.61 
  -5  -1   7    0.59    0.57 
   4   1  -7    1.09    0.75 
  -4  -1   7    0.59    0.58 
   3   1  -7    0.58    0.63 
   3   1  -7    0.96    0.47 
  -3  -1   7    0.86    0.46 
   2   1  -7    0.45    0.49 
   2   1  -7    0.71    0.44 
  -2  -1   7   -0.19    0.41 
  -2  -1   7    0.39    0.34 
   1   1  -7    9.98    1.10 
   1   1  -7    9.48    1.04 
  -1  -1   7    8.93    0.98 
  -1  -1   7    7.55    0.98 
   0   1  -7   22.08    1.37 
   0  -1   7   21.95    1.42 
   0  -1   7   20.66    1.25 
  -1   1  -7   12.43    1.03 
   1  -1   7   13.07    1.03 
   1  -1   7   12.33    1.33 
  -2   1  -7    6.68    0.93 
   2  -1   7    6.43    1.03 
   2  -1   7    8.86    0.98 
  -3   1  -7    1.16    0.50 
  -3   1  -7    2.80    0.60 
   3  -1   7    2.43    0.63 
  -4   1  -7   -0.15    0.29 
  -4   1  -7    0.67    0.46 
   4  -1   7    0.26    0.37 
  -5   1  -7    4.11    0.74 
  -5   1  -7    7.37    1.05 
   5  -1   7    5.48    0.98 
  -6   1  -7   -0.12    0.33 
  -6   1  -7    0.66    0.55 
   6  -1   7   -0.48    0.38 
  -7   1  -7    1.21    0.65 
  -7   1  -7    1.70    0.61 
   7  -1   7    2.40    0.82 
  -8   1  -7    8.24    1.21 
  -8   1  -7   10.68    1.38 
   8  -1   7    8.50    1.52 
  -9   1  -7    4.32    1.12 
  -9   1  -7    3.81    0.91 
   9  -1   7    1.99    0.99 
 -10   1  -7    0.82    0.73 
  10  -1   7    0.76    1.02 
 -11   1  -7    2.38    1.15 
  11  -1   7    1.29    1.31 
  10   0  -7    0.22    1.73 
 -10   0   7   -0.76    1.12 
   9   0  -7   21.27    2.81 
  -9   0   7   20.16    2.18 
   8   0  -7    9.62    1.81 
  -8   0   7    7.70    1.33 
   7   0  -7    3.34    1.28 
  -7   0   7    3.36    0.96 
   6   0  -7   10.17    1.67 
  -6   0   7    8.98    1.21 
   5   0  -7   34.08    2.30 
  -5   0   7   30.61    1.87 
   4   0  -7   23.61    1.74 
  -4   0   7   22.34    1.56 
   3   0  -7    0.14    0.48 
   3   0  -7   -0.16    0.41 
  -3   0   7    0.37    0.36 
   2   0  -7    0.68    0.47 
   2   0  -7    0.69    0.44 
  -2   0   7    0.39    0.37 
   1   0  -7    2.57    0.56 
   1   0  -7    4.06    0.68 
  -1   0   7    3.36    0.63 
   0   0  -7   10.10    1.09 
   0   0   7    9.37    1.00 
   0   0   7    9.06    0.97 
  -1   0  -7   10.65    1.10 
   1   0   7   10.66    1.06 
   1   0   7   11.61    1.22 
  -2   0  -7    0.88    0.40 
   2   0   7    1.41    0.52 
   2   0   7    2.03    0.55 
  -3   0  -7   26.27    1.44 
  -3   0  -7   26.81    1.54 
   3   0   7   28.23    1.70 
  -4   0  -7   10.38    1.04 
  -4   0  -7   10.83    1.17 
   4   0   7    7.70    1.12 
  -5   0  -7    1.10    0.53 
  -5   0  -7    1.04    0.38 
   5   0   7    0.62    0.39 
  -6   0  -7   17.71    1.27 
  -6   0  -7   18.33    1.36 
   6   0   7   17.46    1.49 
  -7   0  -7    0.26    0.38 
  -7   0  -7    0.19    0.55 
   7   0   7    0.13    0.43 
  -8   0  -7   12.75    1.46 
  -8   0  -7   14.30    1.58 
   8   0   7    9.19    1.50 
  -9   0  -7    2.92    0.83 
   9   0   7    2.05    0.93 
 -10   0  -7    3.55    1.13 
  10   0   7    2.97    1.13 
 -11   0  -7   -0.06    0.78 
  11   0   7   -1.36    1.03 
  10  -1  -7    2.73    1.37 
 -10   1   7    6.59    1.56 
   9  -1  -7    5.23    1.58 
  -9   1   7    2.07    1.14 
   8  -1  -7    2.08    1.34 
  -8   1   7    1.51    0.89 
   7  -1  -7    7.17    1.56 
  -7   1   7    7.68    1.27 
   6  -1  -7    6.49    1.35 
  -6   1   7    6.52    1.07 
   5  -1  -7   35.87    2.37 
  -5   1   7   35.98    2.02 
   4  -1  -7   10.02    1.04 
   4  -1  -7    7.51    1.22 
  -4   1   7    8.01    1.14 
   3  -1  -7   16.15    1.59 
   3  -1  -7   13.70    1.09 
  -3   1   7   16.29    1.16 
   2  -1  -7    4.63    0.84 
   2  -1  -7    4.49    0.70 
  -2   1   7    4.42    0.72 
   1  -1  -7    9.41    1.00 
   1  -1  -7    8.58    0.99 
  -1   1   7   10.55    1.08 
   0  -1  -7   17.41    1.15 
   0   1   7   16.88    1.12 
  -1  -1  -7   44.73    1.95 
   1   1   7   44.85    1.84 
   1   1   7   42.77    1.90 
  -2  -1  -7    1.10    0.43 
   2   1   7    0.99    0.47 
   2   1   7    0.79    0.37 
  -3  -1  -7   20.75    1.28 
  -3  -1  -7   20.08    1.25 
   3   1   7   21.13    1.40 
  -4  -1  -7   -0.16    0.18 
  -4  -1  -7    0.35    0.35 
   4   1   7    0.02    0.43 
  -5  -1  -7   14.65    1.09 
  -5  -1  -7   14.22    1.16 
   5   1   7   14.42    1.26 
  -6  -1  -7   10.68    1.16 
  -6  -1  -7   10.30    1.20 
   6   1   7    8.64    1.29 
  -7  -1  -7   17.31    1.62 
  -7  -1  -7   15.11    1.46 
   7   1   7   11.99    1.59 
  -8  -1  -7    0.74    0.52 
   8   1   7    0.03    0.46 
  -9  -1  -7   16.97    1.86 
   9   1   7   13.12    1.86 
 -10  -1  -7    0.31    0.59 
  10   1   7    0.94    0.83 
 -11  -1  -7   -0.15    0.79 
  11   1   7    0.91    1.01 
  10  -2  -7    2.85    1.08 
   9  -2  -7    2.49    1.26 
  -9   2   7    1.54    1.20 
   8  -2  -7    1.33    1.11 
  -8   2   7    0.88    0.83 
   7  -2  -7    3.55    1.32 
  -7   2   7    6.61    1.19 
   6  -2  -7   38.77    2.66 
  -6   2   7   39.48    2.21 
   5  -2  -7    1.08    0.86 
  -5   2   7    1.85    0.69 
   4  -2  -7    1.69    0.57 
   4  -2  -7    1.03    0.74 
  -4   2   7    1.81    0.52 
   3  -2  -7   19.70    1.49 
   3  -2  -7   16.78    1.16 
  -3   2   7   16.32    1.14 
   2  -2  -7   -0.05    0.40 
   2  -2  -7   -0.22    0.31 
  -2   2   7   -0.09    0.22 
   1  -2  -7   10.77    0.93 
   1  -2  -7   10.32    1.08 
  -1   2   7   11.79    1.15 
   0  -2  -7    3.26    0.62 
   0   2   7    2.40    0.49 
  -1  -2  -7    0.26    0.28 
   1   2   7    0.27    0.28 
  -2  -2  -7    2.95    0.59 
   2   2   7    2.53    0.57 
   2   2   7    2.47    0.56 
  -3  -2  -7   -0.05    0.26 
  -3  -2  -7   -0.39    0.24 
   3   2   7    0.15    0.36 
  -4  -2  -7   41.47    1.87 
  -4  -2  -7   42.50    1.88 
   4   2   7   41.52    2.10 
  -5  -2  -7   19.31    1.24 
  -5  -2  -7   18.91    1.24 
   5   2   7   20.33    1.46 
  -6  -2  -7   39.88    1.89 
  -6  -2  -7   38.23    1.91 
   6   2   7   40.86    2.27 
  -7  -2  -7   43.99    2.12 
   7   2   7   47.06    2.58 
  -8  -2  -7   12.32    1.45 
   8   2   7   10.47    1.62 
  -9  -2  -7    2.18    0.79 
   9   2   7    4.05    1.03 
 -10  -2  -7    0.29    0.64 
  10   2   7   -0.20    0.55 
 -11  -2  -7    1.20    0.88 
  11   2   7    1.68    1.18 
   9  -3  -7    1.46    1.11 
  -9   3   7   -0.33    1.17 
   8  -3  -7   10.46    1.96 
  -8   3   7    8.72    1.42 
   7  -3  -7    6.94    1.49 
  -7   3   7    8.78    1.43 
   6  -3  -7   30.72    2.35 
  -6   3   7   31.07    1.97 
   5  -3  -7    3.13    0.69 
   5  -3  -7    4.41    1.13 
  -5   3   7    2.90    0.78 
   4  -3  -7    8.36    0.99 
   4  -3  -7   10.32    1.44 
  -4   3   7    9.68    1.16 
   3  -3  -7    8.35    1.17 
   3  -3  -7    6.43    0.88 
  -3   3   7    6.89    0.89 
   2  -3  -7    0.23    0.33 
   2  -3  -7    0.47    0.46 
  -2   3   7   -0.04    0.25 
   1  -3  -7    2.49    0.56 
   1  -3  -7    1.46    0.58 
  -1   3   7    1.60    0.40 
   0  -3  -7   17.74    1.20 
   0  -3  -7   19.48    1.24 
   0   3   7   18.54    1.19 
  -1  -3  -7   23.03    1.37 
   1   3   7   25.20    1.39 
  -2  -3  -7   46.20    1.97 
   2   3   7   44.17    1.94 
  -3  -3  -7    6.71    0.85 
  -3  -3  -7    6.80    0.89 
   3   3   7    7.40    1.00 
  -4  -3  -7    0.82    0.39 
  -4  -3  -7    1.02    0.42 
   4   3   7    1.41    0.59 
  -5  -3  -7    1.23    0.48 
  -5  -3  -7    0.95    0.39 
   5   3   7    1.54    0.54 
  -6  -3  -7   10.70    1.27 
   6   3   7    9.52    1.32 
  -7  -3  -7   22.19    1.46 
   7   3   7   21.17    1.67 
  -8  -3  -7    2.83    0.77 
   8   3   7    1.59    0.69 
  -9  -3  -7    3.14    0.87 
   9   3   7    2.36    0.86 
 -10  -3  -7    5.99    1.17 
  10   3   7    4.99    1.27 
 -11  -3  -7    0.74    0.80 
  11   3   7    0.50    0.81 
   9  -4  -7    0.23    0.97 
  -9   4   7    0.56    1.14 
   8  -4  -7    1.07    1.03 
  -8   4   7    1.49    0.93 
   7  -4  -7   19.92    2.40 
  -7   4   7   14.43    1.70 
   6  -4  -7    7.20    1.43 
  -6   4   7    8.61    1.12 
  -6   4   7    5.01    0.97 
   5  -4  -7    2.32    0.99 
   5  -4  -7    1.99    0.65 
  -5   4   7    1.67    0.61 
   4  -4  -7    4.34    0.78 
   4  -4  -7    4.00    1.06 
  -4   4   7    3.90    0.80 
   3  -4  -7   20.27    1.30 
   3  -4  -7   18.83    1.60 
  -3   4   7   20.28    1.31 
   2  -4  -7    0.76    0.56 
   2  -4  -7    0.41    0.36 
  -2   4   7    0.78    0.37 
   1  -4  -7   40.87    1.91 
   1  -4  -7   41.81    2.12 
  -1   4   7   42.17    1.88 
   0  -4  -7   39.44    1.80 
   0  -4  -7   37.41    1.84 
   0   4   7   37.31    1.78 
  -1  -4  -7    3.43    0.61 
  -1  -4  -7    4.41    0.70 
   1   4   7    3.03    0.62 
  -2  -4  -7   39.77    1.87 
   2   4   7   42.74    1.89 
  -3  -4  -7    6.10    0.85 
  -3  -4  -7    6.51    0.84 
   3   4   7    6.65    0.99 
  -4  -4  -7    9.79    1.05 
  -4  -4  -7    8.57    1.00 
   4   4   7   12.34    1.41 
  -5  -4  -7   14.84    1.09 
  -5  -4  -7   14.97    1.14 
   5   4   7   14.04    1.25 
  -6  -4  -7    7.49    1.04 
   6   4   7    7.91    1.28 
  -7  -4  -7   11.55    1.32 
   7   4   7   11.88    1.61 
  -8  -4  -7   33.60    1.93 
   8   4   7   29.71    2.21 
  -9  -4  -7   23.86    2.17 
   9   4   7   19.00    2.32 
 -10  -4  -7    4.75    1.07 
  10   4   7    2.47    1.04 
 -11  -4  -7    1.00    0.97 
  11   4   7   -0.07    0.77 
   9  -5  -7    1.79    1.21 
  -9   5   7    0.88    1.15 
   8  -5  -7    5.62    1.44 
  -8   5   7    5.78    1.24 
   7  -5  -7   16.78    2.32 
  -7   5   7   17.80    1.85 
  -7   5   7   18.65    1.76 
   6  -5  -7   28.16    2.43 
  -6   5   7   31.60    2.01 
  -6   5   7   34.72    1.98 
   5  -5  -7    6.24    1.25 
  -5   5   7    5.80    1.01 
  -5   5   7    7.12    1.08 
   4  -5  -7    0.06    0.45 
   4  -5  -7    0.11    0.71 
  -4   5   7    0.30    0.51 
   3  -5  -7    2.13    0.79 
   3  -5  -7    3.22    0.67 
  -3   5   7    2.35    0.57 
   2  -5  -7   -0.07    0.34 
   2  -5  -7    0.30    0.59 
  -2   5   7   -0.28    0.30 
   1  -5  -7    4.68    0.72 
   1  -5  -7    7.62    1.10 
  -1   5   7    7.63    0.90 
   0  -5  -7    6.67    0.91 
   0  -5  -7    6.88    0.99 
   0   5   7    7.61    0.91 
  -1  -5  -7   69.47    2.64 
  -1  -5  -7   62.56    2.55 
   1   5   7   70.30    2.60 
  -2  -5  -7    0.06    0.36 
  -2  -5  -7    0.14    0.36 
   2   5   7    0.51    0.36 
  -3  -5  -7    2.71    0.60 
  -3  -5  -7    2.60    0.61 
  -3  -5  -7    3.87    0.70 
   3   5   7    3.87    0.75 
  -4  -5  -7    3.37    0.66 
  -4  -5  -7    2.16    0.59 
   4   5   7    4.17    0.88 
  -5  -5  -7    2.66    0.63 
  -5  -5  -7    2.03    0.56 
   5   5   7    1.13    0.52 
  -6  -5  -7   40.52    2.01 
   6   5   7   41.98    2.29 
  -7  -5  -7    3.59    0.77 
   7   5   7    4.51    1.03 
  -8  -5  -7   37.23    2.03 
   8   5   7   31.79    2.30 
  -9  -5  -7    3.02    0.84 
   9   5   7    0.49    0.67 
 -10  -5  -7   10.58    1.55 
  10   5   7    8.53    1.58 
 -11  -5  -7    0.09    0.86 
  11   5   7    1.15    0.89 
   8  -6  -7    0.73    1.06 
  -8   6   7   -0.16    1.03 
   7  -6  -7    0.28    0.84 
  -7   6   7   -0.05    0.82 
  -7   6   7   -1.36    0.83 
   6  -6  -7    0.97    0.99 
  -6   6   7    0.49    0.79 
  -6   6   7    1.63    0.79 
   5  -6  -7   -0.58    0.85 
  -5   6   7    1.48    0.69 
  -5   6   7    0.82    0.66 
   4  -6  -7   16.83    1.98 
  -4   6   7   15.00    1.46 
  -4   6   7   18.17    1.45 
   3  -6  -7    5.18    1.10 
  -3   6   7    4.88    0.79 
   2  -6  -7   10.58    1.25 
   2  -6  -7   10.54    1.44 
  -2   6   7    8.99    1.01 
   1  -6  -7   16.75    1.25 
   1  -6  -7   19.03    1.51 
  -1   6   7   19.51    1.25 
   0  -6  -7   47.33    2.16 
   0  -6  -7   44.39    2.24 
   0   6   7   46.86    2.06 
  -1  -6  -7    8.87    1.14 
  -1  -6  -7    6.70    0.97 
   1   6   7    6.24    0.87 
  -2  -6  -7   31.52    1.69 
  -2  -6  -7   29.32    1.69 
   2   6   7   32.63    1.65 
  -3  -6  -7    3.24    0.69 
  -3  -6  -7    3.29    0.68 
   3   6   7    2.13    0.51 
  -4  -6  -7   15.17    1.16 
  -4  -6  -7   15.86    1.21 
  -4  -6  -7   13.48    1.35 
  -5  -6  -7    4.76    0.80 
  -5  -6  -7    4.98    0.84 
   5   6   7    2.88    0.87 
   5   6   7    3.45    0.76 
  -6  -6  -7    0.64    0.49 
   6   6   7    0.40    0.51 
   6   6   7   -0.28    0.42 
  -7  -6  -7    4.50    0.91 
   7   6   7    2.97    0.88 
  -8  -6  -7    6.35    1.05 
   8   6   7    4.94    1.12 
  -9  -6  -7    1.28    0.66 
   9   6   7    0.78    0.69 
 -10  -6  -7    3.56    0.95 
  10   6   7    1.29    0.95 
 -11  -6  -7    0.51    0.99 
  11   6   7    0.61    0.74 
   8  -7  -7    0.12    1.05 
  -8   7   7    0.52    1.14 
   7  -7  -7    0.86    1.00 
  -7   7   7    1.25    1.04 
  -7   7   7    2.60    1.00 
   6  -7  -7   -0.03    0.97 
  -6   7   7   -0.16    0.84 
  -6   7   7    0.81    0.78 
   5  -7  -7   -0.02    0.86 
  -5   7   7    1.45    0.71 
  -5   7   7    1.00    0.79 
   4  -7  -7    7.60    1.43 
  -4   7   7    8.42    1.24 
  -4   7   7    6.88    1.05 
   3  -7  -7    5.10    1.09 
  -3   7   7    3.35    0.75 
  -3   7   7    4.31    0.90 
   2  -7  -7    3.77    0.93 
  -2   7   7    3.87    0.66 
  -2   7   7    4.16    0.92 
   1  -7  -7   51.50    2.66 
  -1   7   7   52.34    2.23 
   0  -7  -7   -0.27    0.48 
   0  -7  -7    0.01    0.59 
   0   7   7    0.68    0.32 
  -1  -7  -7   55.01    2.45 
  -1  -7  -7   51.65    2.53 
   1   7   7   54.06    2.24 
  -2  -7  -7    4.56    0.93 
  -2  -7  -7    3.17    0.72 
   2   7   7    2.09    0.54 
  -3  -7  -7    2.22    0.67 
  -3  -7  -7    3.66    0.85 
   3   7   7    3.03    0.57 
  -4  -7  -7    6.94    1.00 
  -4  -7  -7    5.04    0.96 
  -4  -7  -7    7.90    1.12 
  -4  -7  -7    6.69    0.96 
  -5  -7  -7   10.33    1.20 
  -5  -7  -7   11.61    1.49 
  -5  -7  -7   13.89    1.35 
  -6  -7  -7    2.86    0.73 
  -6  -7  -7    3.76    0.96 
   6   7   7    2.15    0.73 
  -7  -7  -7    1.16    0.61 
   7   7   7    0.27    0.56 
   7   7   7    0.21    0.62 
  -8  -7  -7   -0.86    0.50 
   8   7   7   -0.22    0.53 
  -9  -7  -7   21.75    2.05 
   9   7   7   20.18    2.42 
 -10  -7  -7    0.25    0.77 
  10   7   7    0.05    0.66 
   7  -8  -7   13.99    2.05 
  -7   8   7   14.85    1.86 
   6  -8  -7    0.33    0.94 
  -6   8   7    0.05    1.03 
  -6   8   7    0.08    0.98 
   5  -8  -7    0.83    0.97 
  -5   8   7    0.36    1.00 
  -5   8   7    1.69    0.85 
   4  -8  -7    3.10    1.17 
  -4   8   7    2.11    0.96 
  -4   8   7    2.48    0.81 
   3  -8  -7    8.12    1.45 
  -3   8   7    9.16    1.36 
  -3   8   7    6.84    0.98 
   2  -8  -7    0.45    0.82 
  -2   8   7    0.96    0.63 
  -2   8   7    0.13    0.42 
   1  -8  -7    3.10    0.96 
  -1   8   7    2.71    0.69 
  -1   8   7    2.73    0.60 
   0  -8  -7   -0.04    0.69 
   0   8   7    0.72    0.45 
   0   8   7    0.61    0.44 
  -1  -8  -7    4.90    1.00 
   1   8   7    2.95    0.73 
   1   8   7    5.46    0.76 
  -2  -8  -7   -0.18    0.61 
   2   8   7   -0.74    0.31 
   2   8   7    0.34    0.43 
  -3  -8  -7    2.65    0.90 
  -3  -8  -7    4.40    0.89 
   3   8   7    2.26    0.58 
   3   8   7    1.01    0.56 
  -4  -8  -7   80.42    3.32 
  -4  -8  -7   72.39    3.18 
   4   8   7   72.17    2.84 
  -5  -8  -7   30.04    1.79 
  -5  -8  -7   26.66    1.99 
   5   8   7   27.45    1.72 
  -6  -8  -7   17.77    1.95 
  -6  -8  -7   17.07    1.59 
   6   8   7   12.82    1.50 
  -7  -8  -7    5.70    1.22 
  -7  -8  -7    3.04    0.86 
   7   8   7    3.91    0.91 
  -8  -8  -7    6.19    1.14 
  -9  -8  -7    1.03    0.74 
   9   8   7    1.63    0.82 
 -10  -8  -7   -0.16    0.78 
  10   8   7    1.71    0.79 
   6  -9  -7   -1.53    0.89 
  -6   9   7   -0.91    1.05 
   5  -9  -7   -0.39    0.80 
  -5   9   7    1.25    1.07 
   4  -9  -7    5.50    1.49 
  -4   9   7    6.14    1.40 
   3  -9  -7    2.94    1.11 
  -3   9   7    3.03    1.12 
   2  -9  -7    1.33    1.00 
  -2   9   7    0.11    0.72 
   1  -9  -7   -1.05    0.76 
  -1   9   7    1.30    0.62 
   0  -9  -7   11.68    1.63 
   0   9   7   11.54    1.41 
  -1  -9  -7   12.03    1.62 
   1   9   7   12.34    1.41 
  -2  -9  -7    0.68    0.77 
   2   9   7    0.45    0.45 
  -3  -9  -7    1.55    0.82 
  -3  -9  -7    0.34    0.77 
   3   9   7    0.48    0.53 
  -4  -9  -7    6.14    1.15 
  -4  -9  -7    6.63    1.31 
   4   9   7    3.53    0.78 
  -5  -9  -7   20.19    2.04 
   5   9   7   17.29    1.35 
  -6  -9  -7   16.30    1.99 
   6   9   7   10.00    1.45 
  -7  -9  -7    9.83    1.65 
   7   9   7    9.51    1.52 
  -8  -9  -7    2.57    1.26 
   8   9   7   -0.30    0.89 
   5 -10  -7    1.45    1.03 
  -5  10   7   -0.84    1.03 
   4 -10  -7    1.75    1.35 
  -4  10   7    0.07    1.01 
   3 -10  -7   12.00    2.05 
  -3  10   7   13.20    1.85 
   2 -10  -7    9.07    1.80 
  -2  10   7   10.78    1.54 
   1 -10  -7    0.79    0.98 
  -1  10   7   -0.92    0.61 
   0 -10  -7    1.91    0.97 
   0  10   7    1.95    0.80 
  -1 -10  -7   -0.77    0.79 
   1  10   7    0.53    0.67 
  -2 -10  -7    0.35    0.81 
   2  10   7   -0.54    0.48 
  -3 -10  -7    4.38    1.18 
   3  10   7    2.83    0.79 
  -4 -10  -7   19.03    2.13 
  -4 -10  -7   18.75    2.03 
   4  10   7   16.98    1.44 
  -5 -10  -7    0.49    0.85 
   5  10   7    0.28    0.66 
  -6 -10  -7    1.27    1.07 
   6  10   7    2.41    0.93 
  -7 -10  -7    6.49    1.59 
   7  10   7    4.37    1.31 
  -8 -10  -7    3.80    1.35 
   8  10   7    1.69    1.13 
   4 -11  -7    2.49    1.19 
  -4  11   7    5.82    1.54 
   3 -11  -7    3.43    1.57 
  -3  11   7   -0.42    1.12 
   2 -11  -7    4.67    1.62 
  -2  11   7    4.21    1.01 
   1 -11  -7    4.36    1.51 
  -1  11   7    1.57    0.86 
   0 -11  -7    3.28    1.28 
   0  11   7    1.99    0.86 
  -1 -11  -7    4.86    1.50 
   1  11   7    5.94    1.16 
  -2 -11  -7    6.17    1.47 
   2  11   7    4.56    1.07 
  -3 -11  -7    4.64    1.28 
   3  11   7    2.03    0.79 
  -4 -11  -7   11.72    1.89 
   4  11   7    8.41    1.24 
  -5 -11  -7   13.90    1.97 
   5  11   7   11.24    1.80 
  -6 -11  -7    1.42    1.23 
   6  11   7    2.37    1.14 
  -7 -11  -7    2.47    1.42 
   7  11   7    0.63    1.20 
   1 -12  -7    2.65    1.43 
  -1  12   7    2.17    0.95 
   0 -12  -7   -0.39    1.34 
   0  12   7   -0.25    0.85 
  -1 -12  -7   -0.49    1.26 
   1  12   7    0.09    0.88 
  -2 -12  -7   -0.40    1.14 
   2  12   7    1.12    0.93 
  -3 -12  -7    1.46    1.28 
   3  12   7    1.58    0.91 
  -4 -12  -7   14.11    2.16 
   4  12   7   13.63    1.93 
   2   8  -8    0.47    1.30 
  -2  -8   8    0.43    1.04 
   1   8  -8   -1.11    1.04 
  -1  -8   8    1.75    1.00 
   0   8  -8    1.81    1.14 
   0  -8   8    2.19    1.11 
  -1   8  -8    6.53    1.44 
   1  -8   8    5.75    1.26 
  -2   8  -8    2.77    1.25 
   2  -8   8    1.57    1.14 
   4   7  -8    7.63    1.87 
  -4  -7   8    3.83    1.29 
   3   7  -8    2.94    1.32 
  -3  -7   8    2.02    1.12 
   2   7  -8    0.03    0.93 
  -2  -7   8    1.79    1.08 
   1   7  -8    9.68    1.51 
  -1  -7   8    8.96    1.60 
   0   7  -8   -0.37    0.84 
   0  -7   8    0.00    0.78 
  -1   7  -8    0.09    0.94 
   1  -7   8    1.35    1.00 
  -2   7  -8    0.43    0.93 
   2  -7   8    1.51    1.05 
  -3   7  -8   -0.14    1.08 
   3  -7   8    1.47    1.05 
  -4   7  -8    0.68    1.03 
   4  -7   8   -0.22    0.99 
  -5   7  -8   31.27    2.58 
   5  -7   8   25.02    3.16 
   6   6  -8   -0.63    1.57 
  -6  -6   8    0.85    1.05 
   5   6  -8    0.82    1.31 
  -5  -6   8    0.87    0.97 
   4   6  -8    6.95    1.54 
  -4  -6   8    8.39    1.44 
   3   6  -8   27.70    2.39 
   3   6  -8   25.16    2.72 
  -3  -6   8   27.85    2.21 
   2   6  -8   13.38    1.80 
   2   6  -8   11.31    1.50 
  -2  -6   8   11.45    1.66 
   1   6  -8    4.66    1.10 
  -1  -6   8    4.78    1.14 
   0   6  -8    3.33    1.01 
   0  -6   8    3.72    1.03 
  -1   6  -8    1.14    0.75 
   1  -6   8    0.80    0.78 
  -2   6  -8    4.33    1.03 
   2  -6   8    3.90    1.24 
  -3   6  -8    1.84    0.97 
   3  -6   8    0.69    0.81 
  -4   6  -8   -0.57    0.82 
   4  -6   8    0.43    0.80 
  -5   6  -8    0.73    0.99 
   5  -6   8   -0.18    0.89 
  -6   6  -8    1.39    1.24 
   6  -6   8    2.25    1.43 
  -7   6  -8   -2.15    1.03 
   7  -6   8    1.55    1.35 
   7   5  -8    2.82    1.55 
   6   5  -8    0.65    1.42 
  -6  -5   8    0.48    0.92 
   5   5  -8    5.87    1.56 
  -5  -5   8    7.95    1.40 
   4   5  -8    0.07    1.01 
  -4  -5   8    1.83    0.84 
   3   5  -8    4.85    1.10 
   3   5  -8    8.33    1.52 
  -3  -5   8    6.57    1.23 
   2   5  -8   22.34    1.84 
   2   5  -8   25.53    2.09 
  -2  -5   8   21.49    1.85 
   1   5  -8    9.71    1.43 
   1   5  -8   11.65    1.45 
  -1  -5   8   10.76    1.50 
   0   5  -8    7.65    1.22 
   0  -5   8    6.17    1.19 
  -1   5  -8    1.15    0.75 
   1  -5   8    0.69    0.66 
  -2   5  -8    0.86    0.71 
   2  -5   8    1.58    0.83 
  -3   5  -8    0.23    0.63 
   3  -5   8    0.52    0.64 
  -4   5  -8    1.29    0.80 
   4  -5   8    1.24    0.79 
  -5   5  -8    5.98    1.35 
   5  -5   8    5.76    1.41 
  -6   5  -8   -0.08    0.95 
   6  -5   8    1.68    1.12 
  -7   5  -8    0.14    1.02 
   7  -5   8   -0.79    1.21 
  -8   5  -8   12.06    1.83 
   8  -5   8    7.49    1.94 
   7   4  -8    2.83    1.69 
  -7  -4   8    1.55    1.06 
   6   4  -8    1.03    1.21 
  -6  -4   8   -0.02    0.89 
  -6  -4   8    0.45    0.80 
   5   4  -8    0.99    1.12 
  -5  -4   8    0.69    0.76 
  -5  -4   8   -0.04    0.78 
   4   4  -8    1.90    1.08 
  -4  -4   8    2.52    0.87 
  -4  -4   8    2.27    0.86 
   3   4  -8   18.49    2.01 
   3   4  -8   17.34    1.76 
  -3  -4   8   15.58    1.80 
  -3  -4   8   18.31    1.62 
   2   4  -8    1.17    0.88 
   2   4  -8    1.54    0.70 
  -2  -4   8    0.28    0.60 
  -2  -4   8    1.45    0.64 
   1   4  -8    8.76    1.25 
  -1  -4   8    7.86    1.23 
  -1  -4   8    9.87    1.12 
   0   4  -8    1.57    0.68 
   0  -4   8    1.07    0.56 
   0  -4   8    2.13    0.66 
  -1   4  -8   -0.21    0.55 
   1  -4   8   -0.47    0.48 
   1  -4   8   -0.32    0.55 
  -2   4  -8    6.82    1.17 
   2  -4   8    5.37    1.19 
   2  -4   8    7.60    0.99 
  -3   4  -8    4.90    1.02 
   3  -4   8    4.32    0.92 
   3  -4   8    4.74    1.00 
  -4   4  -8   19.50    1.67 
   4  -4   8   23.29    2.02 
   4  -4   8   26.11    2.55 
  -5   4  -8    2.66    0.86 
   5  -4   8    1.35    0.82 
  -6   4  -8   22.48    2.14 
   6  -4   8   18.64    2.23 
  -7   4  -8    3.13    1.07 
   7  -4   8    2.19    1.27 
  -8   4  -8    2.24    1.13 
   8  -4   8    1.77    1.33 
  -9   4  -8    0.91    1.17 
   9  -4   8   -1.42    1.22 
   8   3  -8   22.77    2.86 
  -8  -3   8   18.46    2.16 
   7   3  -8   -2.34    1.31 
  -7  -3   8    1.87    1.01 
   6   3  -8    1.67    1.20 
  -6  -3   8    1.70    0.96 
   5   3  -8   10.43    1.65 
  -5  -3   8   10.09    1.33 
  -5  -3   8    5.67    1.22 
   4   3  -8    0.22    0.94 
  -4  -3   8    0.30    0.64 
  -4  -3   8    0.74    0.62 
   3   3  -8    2.83    0.80 
   3   3  -8    3.69    1.06 
  -3  -3   8    1.59    0.81 
  -3  -3   8    3.18    0.80 
   2   3  -8   17.25    1.48 
   2   3  -8   17.86    1.71 
  -2  -3   8   16.44    1.46 
  -2  -3   8   18.20    1.32 
   1   3  -8    1.47    0.68 
   1   3  -8    0.96    0.71 
  -1  -3   8    1.27    0.55 
  -1  -3   8    0.82    0.58 
   0   3  -8    1.16    0.56 
   0  -3   8    0.81    0.50 
   0  -3   8    0.10    0.41 
  -1   3  -8    0.29    0.52 
   1  -3   8    0.73    0.49 
   1  -3   8    0.28    0.50 
  -2   3  -8    0.59    0.53 
   2  -3   8    0.99    0.56 
   2  -3   8    0.80    0.52 
  -3   3  -8    4.97    1.01 
   3  -3   8    2.01    0.74 
   3  -3   8    4.37    0.80 
  -4   3  -8    0.61    0.64 
   4  -3   8   -0.42    0.52 
  -5   3  -8   11.66    1.45 
  -5   3  -8    8.20    1.08 
   5  -3   8   10.15    1.61 
  -6   3  -8    2.64    0.86 
  -6   3  -8    0.64    0.60 
   6  -3   8    1.98    0.90 
  -7   3  -8    9.11    1.25 
  -7   3  -8   16.64    1.87 
   7  -3   8   11.45    1.71 
  -8   3  -8    0.07    0.74 
  -8   3  -8    1.41    0.94 
   8  -3   8    1.84    1.13 
  -9   3  -8    0.60    0.80 
  -9   3  -8   -0.24    1.07 
   9  -3   8    0.77    1.26 
   8   2  -8    1.62    1.51 
  -8  -2   8    1.11    1.04 
   7   2  -8    1.81    1.25 
  -7  -2   8    0.39    0.94 
   6   2  -8    2.91    1.23 
  -6  -2   8    3.34    0.97 
   5   2  -8    4.26    1.31 
  -5  -2   8    3.35    0.93 
   4   2  -8    7.99    1.40 
  -4  -2   8    4.42    0.89 
  -4  -2   8    4.59    0.95 
   3   2  -8   16.45    1.33 
   3   2  -8   16.34    1.71 
  -3  -2   8   17.39    1.33 
  -3  -2   8   14.54    1.28 
   2   2  -8    4.60    0.99 
   2   2  -8    5.92    0.95 
  -2  -2   8    4.95    0.87 
  -2  -2   8    4.95    0.85 
   1   2  -8    9.89    1.22 
  -1  -2   8   10.41    1.09 
  -1  -2   8    7.74    1.07 
   0   2  -8    6.23    1.01 
   0  -2   8    7.53    1.01 
   0  -2   8    6.48    1.04 
  -1   2  -8    2.67    0.69 
   1  -2   8    2.76    0.70 
   1  -2   8    2.08    0.58 
  -2   2  -8    2.22    0.65 
   2  -2   8    2.44    0.65 
   2  -2   8    1.06    0.56 
  -3   2  -8    2.02    0.62 
   3  -2   8    1.50    0.61 
   3  -2   8    3.87    0.75 
  -4   2  -8    0.34    0.53 
  -4   2  -8    0.76    0.45 
   4  -2   8    1.14    0.65 
  -5   2  -8    0.40    0.43 
  -5   2  -8    1.37    0.73 
   5  -2   8    0.96    0.59 
  -6   2  -8    2.88    0.95 
  -6   2  -8    0.90    0.54 
   6  -2   8    0.93    0.69 
  -7   2  -8    0.94    0.74 
  -7   2  -8   -0.17    0.54 
   7  -2   8    0.97    0.71 
  -8   2  -8    0.44    0.63 
  -8   2  -8    2.24    0.86 
   8  -2   8    2.41    0.88 
  -9   2  -8    6.89    1.27 
  -9   2  -8    4.17    1.04 
   9  -2   8    6.09    1.59 
 -10   2  -8    2.25    0.98 
  10  -2   8    2.72    1.40 
   9   1  -8   -1.00    1.82 
  -9  -1   8    2.37    1.42 
   8   1  -8   26.69    3.22 
  -8  -1   8   24.25    2.30 
   7   1  -8    0.62    1.27 
  -7  -1   8    2.70    1.02 
   6   1  -8    7.85    1.53 
  -6  -1   8    5.61    1.14 
   5   1  -8    7.67    1.43 
  -5  -1   8    4.62    1.00 
   4   1  -8   26.22    1.66 
   4   1  -8   28.94    2.09 
  -4  -1   8   28.07    1.85 
   3   1  -8    0.40    0.67 
   3   1  -8    0.46    0.49 
  -3  -1   8    0.14    0.47 
   2   1  -8    9.71    1.20 
   2   1  -8   12.57    1.27 
  -2  -1   8   12.07    1.20 
   1   1  -8    0.88    0.48 
  -1  -1   8    2.05    0.60 
  -1  -1   8    2.13    0.66 
   0   1  -8   -0.05    0.40 
   0  -1   8   -0.50    0.43 
   0  -1   8   -0.26    0.36 
  -1   1  -8    6.77    0.97 
   1  -1   8    7.32    1.07 
   1  -1   8    7.08    0.93 
  -2   1  -8    9.56    1.19 
   2  -1   8   11.76    1.19 
   2  -1   8   11.51    1.38 
  -3   1  -8   38.71    2.05 
   3  -1   8   40.51    2.20 
   3  -1   8   38.33    1.91 
  -4   1  -8   18.11    1.74 
  -4   1  -8   15.10    1.15 
   4  -1   8   12.45    1.54 
  -5   1  -8    0.33    0.53 
  -5   1  -8   -0.06    0.39 
   5  -1   8   -0.28    0.41 
  -6   1  -8    1.24    0.68 
  -6   1  -8    1.40    0.60 
   6  -1   8    1.44    0.67 
  -7   1  -8    5.58    1.00 
  -7   1  -8    4.89    1.10 
   7  -1   8    5.62    1.28 
  -8   1  -8    0.59    0.62 
  -8   1  -8   -1.29    0.63 
   8  -1   8   -0.31    0.69 
  -9   1  -8   24.34    1.87 
  -9   1  -8   26.26    2.02 
   9  -1   8   24.68    2.71 
 -10   1  -8    0.83    0.83 
  10  -1   8   -0.91    1.16 
   9   0  -8    5.66    1.88 
  -9   0   8    8.07    1.78 
   8   0  -8    0.22    1.23 
  -8   0   8    2.60    1.09 
   7   0  -8    0.72    1.17 
  -7   0   8    0.18    0.87 
   6   0  -8    4.17    1.32 
  -6   0   8    8.74    1.33 
   5   0  -8    9.39    1.60 
  -5   0   8    8.11    1.25 
   4   0  -8   27.36    2.12 
  -4   0   8   27.04    1.81 
   3   0  -8   -0.27    0.47 
   3   0  -8   -0.30    0.59 
  -3   0   8    0.03    0.45 
   2   0  -8    0.22    0.46 
   2   0  -8   -0.20    0.55 
  -2   0   8    0.35    0.41 
   1   0  -8    5.45    0.89 
  -1   0   8    5.88    0.84 
   0   0  -8    0.83    0.43 
   0   0   8    0.71    0.45 
  -1   0  -8   58.72    2.52 
   1   0   8   64.91    2.51 
   1   0   8   60.99    2.58 
  -2   0  -8    6.00    0.95 
   2   0   8    6.72    1.11 
   2   0   8    5.10    0.75 
  -3   0  -8   95.67    3.53 
   3   0   8   99.35    3.71 
  -4   0  -8   14.86    1.28 
  -4   0  -8   16.01    1.14 
   4   0   8   14.77    1.30 
  -5   0  -8    0.28    0.34 
  -5   0  -8    0.89    0.60 
   5   0   8    0.99    0.58 
  -6   0  -8   -0.21    0.51 
  -6   0  -8   -0.09    0.41 
   6   0   8    0.11    0.40 
  -7   0  -8    3.50    0.86 
  -7   0  -8    2.91    0.72 
   7   0   8    2.00    0.73 
  -8   0  -8    4.98    0.97 
  -8   0  -8    5.92    1.11 
   8   0   8    2.53    0.81 
  -9   0  -8    0.38    0.62 
   9   0   8    0.45    0.62 
 -10   0  -8   -0.76    0.62 
  10   0   8    0.59    0.95 
 -11   0  -8    2.56    1.12 
  11   0   8    2.69    1.29 
   9  -1  -8    2.07    1.73 
  -9   1   8    0.73    1.31 
   8  -1  -8    0.46    1.33 
  -8   1   8    0.61    0.98 
   7  -1  -8   10.56    1.92 
  -7   1   8    6.21    1.28 
   6  -1  -8    2.35    1.08 
  -6   1   8    2.92    0.94 
   5  -1  -8    0.66    0.88 
  -5   1   8   -0.48    0.60 
   4  -1  -8   14.78    1.38 
   4  -1  -8   12.29    1.58 
  -4   1   8   10.24    1.26 
   3  -1  -8    7.59    1.22 
   3  -1  -8    6.18    0.93 
  -3   1   8    6.04    0.91 
   2  -1  -8    3.06    0.62 
   2  -1  -8    2.94    0.79 
  -2   1   8    2.33    0.60 
   1  -1  -8    3.53    0.73 
   1  -1  -8    4.65    0.81 
  -1   1   8    4.70    0.75 
   0  -1  -8    0.67    0.41 
   0   1   8    0.94    0.43 
  -1  -1  -8   -0.20    0.28 
   1   1   8   -0.33    0.33 
   1   1   8   -0.26    0.31 
  -2  -1  -8   27.54    1.59 
   2   1   8   24.23    1.46 
   2   1   8   24.97    1.55 
  -3  -1  -8    8.35    1.04 
  -3  -1  -8   11.02    1.27 
   3   1   8   10.76    1.34 
  -4  -1  -8   -0.32    0.42 
  -4  -1  -8    0.31    0.27 
   4   1   8   -0.14    0.33 
  -5  -1  -8    5.69    0.87 
  -5  -1  -8    5.89    0.98 
   5   1   8    6.29    1.07 
  -6  -1  -8    1.02    0.62 
  -6  -1  -8    0.71    0.46 
   6   1   8    0.43    0.48 
  -7  -1  -8   11.11    1.34 
  -7  -1  -8    9.28    1.25 
   7   1   8   10.54    1.53 
  -8  -1  -8    0.51    0.56 
   8   1   8    0.07    0.53 
  -9  -1  -8    1.90    0.78 
   9   1   8    0.80    0.74 
 -10  -1  -8    1.69    0.80 
  10   1   8    1.16    0.84 
 -11  -1  -8    1.49    1.05 
  11   1   8    3.06    1.24 
   9  -2  -8    1.43    1.41 
  -9   2   8   -0.56    1.18 
   8  -2  -8    3.67    1.52 
  -8   2   8    3.16    1.22 
   7  -2  -8   27.25    2.87 
  -7   2   8   22.07    2.09 
   6  -2  -8    6.59    1.48 
  -6   2   8    4.14    1.04 
   5  -2  -8    1.28    0.62 
   5  -2  -8    2.64    1.05 
  -5   2   8    1.55    0.77 
   4  -2  -8    0.55    0.47 
   4  -2  -8    0.08    0.69 
  -4   2   8    0.38    0.44 
   3  -2  -8   23.41    1.72 
   3  -2  -8   21.30    1.40 
  -3   2   8   21.13    1.45 
   2  -2  -8   -0.28    0.34 
   2  -2  -8   -0.43    0.50 
  -2   2   8   -0.14    0.33 
   1  -2  -8    0.23    0.36 
   1  -2  -8   -0.07    0.42 
  -1   2   8    0.12    0.32 
   0  -2  -8    1.82    0.51 
   0   2   8    2.25    0.57 
  -1  -2  -8   36.48    1.84 
   1   2   8   34.90    1.80 
  -2  -2  -8    3.73    0.72 
   2   2   8    2.34    0.54 
   2   2   8    2.52    0.68 
  -3  -2  -8    1.97    0.51 
  -3  -2  -8    3.43    0.76 
   3   2   8    2.20    0.66 
  -4  -2  -8    1.30    0.43 
  -4  -2  -8    2.30    0.65 
   4   2   8    1.90    0.56 
  -5  -2  -8    0.85    0.56 
  -5  -2  -8    0.55    0.32 
   5   2   8    0.93    0.53 
  -6  -2  -8    0.89    0.42 
  -6  -2  -8    2.11    0.70 
   6   2   8    0.74    0.58 
  -7  -2  -8    7.76    1.16 
  -7  -2  -8    8.61    1.17 
   7   2   8    6.98    1.25 
  -8  -2  -8    1.53    0.65 
   8   2   8    0.96    0.68 
  -9  -2  -8    3.35    0.90 
   9   2   8    1.91    0.75 
 -10  -2  -8    3.10    0.96 
  10   2   8    1.05    0.81 
 -11  -2  -8   -0.21    0.86 
  11   2   8   -0.46    0.69 
   9  -3  -8    4.00    1.77 
  -9   3   8    0.51    1.23 
   8  -3  -8    0.82    1.36 
  -8   3   8    1.76    1.03 
   7  -3  -8    3.50    1.44 
  -7   3   8    3.45    1.02 
   6  -3  -8    3.06    1.20 
  -6   3   8    2.80    0.91 
   5  -3  -8   36.58    1.98 
   5  -3  -8   44.49    2.70 
  -5   3   8   44.91    2.36 
   4  -3  -8   34.12    1.84 
   4  -3  -8   33.76    2.21 
  -4   3   8   31.10    1.84 
   3  -3  -8    9.52    1.35 
   3  -3  -8    8.12    1.03 
  -3   3   8    8.34    1.04 
   2  -3  -8    2.11    0.72 
   2  -3  -8    2.60    0.60 
  -2   3   8    2.65    0.61 
   1  -3  -8    0.53    0.53 
   1  -3  -8    0.30    0.38 
  -1   3   8    0.26    0.26 
   0  -3  -8    0.19    0.35 
   0  -3  -8   -0.47    0.43 
   0   3   8   -0.23    0.22 
  -1  -3  -8   17.82    1.28 
   1   3   8   15.21    1.12 
  -2  -3  -8   26.38    1.52 
   2   3   8   24.19    1.42 
  -3  -3  -8   13.03    1.34 
  -3  -3  -8   13.69    1.15 
   3   3   8   13.00    1.13 
  -4  -3  -8   24.13    1.47 
  -4  -3  -8   25.61    1.53 
   4   3   8   22.71    1.58 
  -5  -3  -8   66.89    2.74 
  -5  -3  -8   71.23    2.81 
   5   3   8   71.94    3.07 
  -6  -3  -8   19.80    1.43 
  -6  -3  -8   19.29    1.41 
   6   3   8   17.92    1.53 
  -7  -3  -8    5.91    1.06 
  -7  -3  -8    6.20    1.04 
   7   3   8    4.40    0.99 
  -8  -3  -8   10.08    1.38 
   8   3   8    7.58    1.39 
  -9  -3  -8    0.95    0.64 
   9   3   8    0.25    0.66 
 -10  -3  -8    8.95    1.43 
  10   3   8   10.34    1.78 
 -11  -3  -8    2.05    1.09 
  11   3   8    1.32    0.90 
   9  -4  -8    8.93    2.19 
  -9   4   8    8.15    1.84 
   8  -4  -8    2.82    1.56 
  -8   4   8    2.94    1.26 
   7  -4  -8    2.95    1.35 
  -7   4   8    4.17    1.09 
   6  -4  -8   16.59    2.17 
  -6   4   8   14.51    1.66 
   5  -4  -8   11.67    1.73 
   5  -4  -8   11.43    1.27 
  -5   4   8   11.80    1.41 
   4  -4  -8    0.23    0.49 
   4  -4  -8    0.70    0.82 
  -4   4   8   -0.25    0.37 
   3  -4  -8    7.40    1.03 
   3  -4  -8    5.87    1.17 
  -3   4   8    6.48    0.91 
   2  -4  -8   47.31    2.18 
   2  -4  -8   46.77    2.38 
  -2   4   8   42.81    2.10 
   1  -4  -8    5.48    0.99 
   1  -4  -8    5.88    0.87 
  -1   4   8    4.76    0.70 
   0  -4  -8    2.34    0.65 
   0  -4  -8    1.46    0.49 
   0   4   8    2.54    0.56 
  -1  -4  -8    0.71    0.44 
  -1  -4  -8    1.28    0.49 
   1   4   8    1.08    0.38 
  -2  -4  -8    0.71    0.50 
   2   4   8    0.49    0.31 
  -3  -4  -8   17.80    1.32 
   3   4   8   16.50    1.30 
  -4  -4  -8   10.57    1.20 
  -4  -4  -8   10.70    1.27 
   4   4   8    9.96    1.31 
  -5  -4  -8    0.58    0.40 
  -5  -4  -8    0.57    0.50 
   5   4   8    0.91    0.51 
  -6  -4  -8   10.72    1.28 
  -6  -4  -8   10.97    1.31 
   6   4   8   12.35    1.56 
  -7  -4  -8    8.87    1.25 
   7   4   8    7.30    1.30 
  -8  -4  -8   22.85    1.64 
   8   4   8   20.95    1.82 
  -9  -4  -8    0.81    0.61 
   9   4   8    0.56    0.71 
 -10  -4  -8    4.57    1.07 
  10   4   8    0.90    0.77 
 -11  -4  -8    1.72    1.10 
  11   4   8    1.32    0.91 
   8  -5  -8   -3.32    1.23 
  -8   5   8    1.34    1.09 
   7  -5  -8   20.46    2.60 
  -7   5   8   18.09    2.03 
  -7   5   8   20.65    2.35 
   6  -5  -8    1.48    1.12 
  -6   5   8    2.14    0.86 
  -6   5   8    1.58    0.80 
   5  -5  -8    1.53    0.93 
  -5   5   8    1.92    0.76 
   4  -5  -8    7.92    1.13 
   4  -5  -8    7.07    1.36 
  -4   5   8    7.99    1.17 
   3  -5  -8   27.04    1.98 
   3  -5  -8   26.33    1.64 
  -3   5   8   24.91    1.58 
   2  -5  -8   24.72    1.84 
   2  -5  -8   23.42    1.52 
  -2   5   8   22.97    1.46 
   1  -5  -8    5.59    1.01 
   1  -5  -8    5.06    0.82 
  -1   5   8    5.46    0.79 
   0  -5  -8  115.56    4.06 
   0  -5  -8  124.54    4.12 
   0   5   8  130.55    4.11 
  -1  -5  -8    1.51    0.54 
  -1  -5  -8    0.55    0.52 
   1   5   8    0.43    0.36 
  -2  -5  -8    0.13    0.40 
  -2  -5  -8   -0.17    0.40 
   2   5   8   -0.07    0.28 
  -3  -5  -8    1.41    0.57 
   3   5   8    0.91    0.38 
  -4  -5  -8    1.20    0.49 
  -4  -5  -8    2.49    0.66 
   4   5   8    1.09    0.60 
  -5  -5  -8    6.25    0.97 
  -5  -5  -8    4.62    0.87 
   5   5   8    6.78    1.12 
  -6  -5  -8   -0.27    0.46 
  -6  -5  -8    0.14    0.45 
   6   5   8    1.01    0.64 
  -7  -5  -8    3.82    0.85 
   7   5   8    1.61    0.75 
  -8  -5  -8   -0.35    0.55 
   8   5   8    0.13    0.56 
  -9  -5  -8   48.61    2.57 
   9   5   8   49.76    3.11 
 -10  -5  -8    4.90    1.16 
  10   5   8    2.83    1.12 
 -11  -5  -8   15.18    1.94 
  11   5   8   12.79    1.91 
   8  -6  -8    1.81    1.27 
  -8   6   8    3.12    1.29 
   7  -6  -8    7.39    1.80 
  -7   6   8    9.12    1.47 
  -7   6   8    7.01    1.43 
   6  -6  -8    0.86    0.98 
  -6   6   8    1.97    0.81 
  -6   6   8    0.28    0.79 
   5  -6  -8    4.16    1.28 
  -5   6   8    2.46    0.85 
  -5   6   8    3.68    0.88 
   4  -6  -8    1.96    1.00 
  -4   6   8    2.13    0.75 
  -4   6   8    0.63    0.80 
   3  -6  -8    6.24    1.00 
   3  -6  -8    6.27    1.26 
  -3   6   8    6.52    1.00 
   2  -6  -8    1.75    0.84 
   2  -6  -8    0.77    0.54 
  -2   6   8    2.04    0.58 
   1  -6  -8   40.06    2.21 
   1  -6  -8   34.00    1.91 
  -1   6   8   38.91    1.93 
   0  -6  -8    8.86    1.22 
   0  -6  -8    9.25    1.22 
   0   6   8    8.58    1.08 
  -1  -6  -8   78.31    3.03 
  -1  -6  -8   76.74    3.02 
   1   6   8   75.29    2.92 
  -2  -6  -8   -0.30    0.43 
  -2  -6  -8    0.35    0.52 
   2   6   8    0.30    0.38 
  -3  -6  -8   13.22    1.39 
  -3  -6  -8   11.74    1.30 
   3   6   8   10.90    1.18 
  -4  -6  -8    0.56    0.49 
  -4  -6  -8    0.80    0.54 
   4   6   8    1.10    0.56 
  -5  -6  -8    5.71    0.94 
  -5  -6  -8    3.65    0.80 
   5   6   8    3.66    0.82 
  -6  -6  -8    8.03    1.16 
   6   6   8    5.87    1.12 
  -7  -6  -8    6.05    1.05 
   7   6   8    6.34    1.24 
  -8  -6  -8   25.20    1.75 
   8   6   8   23.17    2.05 
  -9  -6  -8    9.60    1.47 
   9   6   8    8.61    1.58 
 -10  -6  -8    7.37    1.38 
  10   6   8    3.71    1.25 
   7  -7  -8    3.65    1.66 
  -7   7   8    2.47    1.24 
  -7   7   8    3.10    1.19 
   6  -7  -8    8.73    1.97 
  -6   7   8   10.41    1.62 
  -6   7   8    6.91    1.32 
   5  -7  -8    1.76    1.12 
  -5   7   8    2.05    0.83 
  -5   7   8    1.66    0.94 
   4  -7  -8    2.98    1.15 
  -4   7   8    3.81    1.03 
  -4   7   8    4.17    0.96 
   3  -7  -8   -0.19    0.75 
  -3   7   8   -0.40    0.69 
  -3   7   8    0.49    0.50 
   2  -7  -8    1.19    0.76 
  -2   7   8   -0.06    0.44 
   1  -7  -8    9.20    1.25 
   1  -7  -8    9.58    1.39 
  -1   7   8    8.82    1.08 
   0  -7  -8  147.59    5.07 
   0  -7  -8  149.22    4.88 
   0   7   8  148.17    4.69 
  -1  -7  -8   44.99    2.36 
  -1  -7  -8   42.03    2.24 
   1   7   8   47.35    2.16 
  -2  -7  -8    2.72    0.81 
  -2  -7  -8    2.12    0.64 
   2   7   8    2.51    0.59 
  -3  -7  -8   13.19    1.47 
  -3  -7  -8   11.24    1.35 
   3   7   8   11.17    1.25 
  -4  -7  -8    0.07    0.62 
  -4  -7  -8    1.81    0.61 
   4   7   8    1.16    0.65 
  -5  -7  -8    5.72    1.01 
  -5  -7  -8    4.58    0.93 
   5   7   8    5.66    1.14 
  -6  -7  -8    3.16    0.83 
  -6  -7  -8    2.23    0.74 
   6   7   8    2.85    0.76 
   6   7   8    2.52    0.81 
  -7  -7  -8    1.19    0.68 
   7   7   8    0.76    0.72 
  -8  -7  -8   17.17    1.87 
   8   7   8   14.90    1.90 
  -9  -7  -8    1.41    0.75 
   9   7   8   -0.61    0.68 
 -10  -7  -8    9.83    1.54 
  10   7   8   11.99    1.94 
   7  -8  -8   -0.05    1.08 
  -7   8   8   -1.11    1.15 
   6  -8  -8   -2.10    1.25 
  -6   8   8    0.01    1.14 
  -6   8   8    0.35    1.02 
   5  -8  -8    3.82    1.34 
  -5   8   8    2.03    0.88 
  -5   8   8    2.77    1.07 
   4  -8  -8    1.43    1.12 
  -4   8   8    0.80    0.91 
  -4   8   8    0.53    0.74 
   3  -8  -8    0.79    0.91 
  -3   8   8    1.91    0.71 
  -3   8   8    0.71    0.73 
   2  -8  -8    0.44    0.83 
  -2   8   8    0.66    0.63 
  -2   8   8   -0.40    0.42 
   1  -8  -8    2.94    0.93 
  -1   8   8    1.19    0.66 
  -1   8   8    1.88    0.61 
   0  -8  -8   20.95    2.07 
   0   8   8   17.94    1.35 
  -1  -8  -8    0.11    0.66 
  -1  -8  -8    0.62    0.68 
   1   8   8    0.07    0.44 
  -2  -8  -8    1.43    0.72 
  -2  -8  -8    1.35    0.74 
   2   8   8    0.02    0.44 
  -3  -8  -8    0.98    0.63 
  -3  -8  -8    0.27    0.64 
   3   8   8    0.84    0.53 
  -4  -8  -8   18.31    1.80 
  -4  -8  -8   17.88    1.57 
  -4  -8  -8   17.22    1.48 
   4   8   8   15.79    1.27 
  -5  -8  -8    1.73    0.75 
  -5  -8  -8    2.65    0.86 
  -5  -8  -8    3.12    0.91 
  -6  -8  -8    1.27    0.75 
   6   8   8    0.92    0.86 
   6   8   8    1.28    0.73 
  -7  -8  -8    3.36    0.93 
   7   8   8    2.37    0.84 
  -8  -8  -8    3.50    0.98 
   8   8   8    2.19    1.01 
  -9  -8  -8    1.43    0.92 
   9   8   8    0.62    0.86 
   6  -9  -8    5.63    1.65 
  -6   9   8    8.21    1.65 
   5  -9  -8    0.69    1.32 
  -5   9   8   -1.19    1.08 
   4  -9  -8    0.61    1.16 
  -4   9   8   -0.85    0.96 
   3  -9  -8    2.97    1.28 
  -3   9   8    4.73    1.22 
   2  -9  -8   18.00    2.18 
  -2   9   8   13.70    1.79 
   1  -9  -8    3.15    1.15 
  -1   9   8    1.02    0.70 
   0  -9  -8   12.26    1.63 
   0   9   8    9.31    1.32 
  -1  -9  -8    1.67    0.90 
   1   9   8    1.00    0.55 
  -2  -9  -8    0.45    0.74 
   2   9   8    0.70    0.54 
  -3  -9  -8    9.90    1.47 
   3   9   8    9.05    1.17 
  -4  -9  -8    3.37    0.99 
  -4  -9  -8    4.19    1.04 
   4   9   8    2.01    0.66 
   4   9   8    4.43    1.14 
  -5  -9  -8    0.22    0.71 
  -5  -9  -8    1.25    0.84 
   5   9   8    0.40    0.50 
   5   9   8    0.24    0.69 
  -6  -9  -8    0.58    0.86 
  -6  -9  -8    1.02    0.80 
   6   9   8   -0.28    0.70 
  -7  -9  -8    1.25    0.87 
   7   9   8    3.04    1.64 
  -8  -9  -8    0.44    0.84 
   8   9   8    2.47    0.82 
  -9  -9  -8   23.84    2.25 
   9   9   8   14.03    2.02 
   4 -10  -8    4.55    1.57 
  -4  10   8    4.87    1.49 
   3 -10  -8    1.87    1.41 
  -3  10   8    2.09    1.25 
   2 -10  -8    0.24    1.01 
  -2  10   8   -0.44    0.92 
   1 -10  -8   33.54    2.62 
  -1  10   8   25.17    2.04 
   0 -10  -8   -0.13    0.88 
   0  10   8   -0.36    0.65 
  -1 -10  -8   10.50    1.57 
   1  10   8    9.27    1.38 
  -2 -10  -8    4.47    1.21 
   2  10   8    3.51    0.90 
  -3 -10  -8    4.50    1.19 
   3  10   8    1.40    0.66 
  -4 -10  -8   -0.41    0.88 
   4  10   8   -0.34    0.52 
  -5 -10  -8    3.67    1.07 
  -5 -10  -8    4.57    1.24 
   5  10   8    2.47    0.73 
  -6 -10  -8    1.28    1.01 
   6  10   8    0.86    0.98 
  -7 -10  -8   12.28    1.96 
   7  10   8   11.21    1.72 
   3 -11  -8    5.59    1.91 
  -3  11   8    7.33    1.65 
   2 -11  -8    7.77    1.94 
  -2  11   8    7.30    1.45 
   1 -11  -8   17.33    2.25 
  -1  11   8   12.96    1.78 
   0 -11  -8    8.26    1.66 
   0  11   8    6.39    1.37 
  -1 -11  -8   11.02    1.86 
   1  11   8   13.80    1.78 
  -2 -11  -8    0.05    1.07 
   2  11   8    2.61    0.90 
  -3 -11  -8    6.52    1.45 
   3  11   8    7.33    1.26 
  -4 -11  -8    1.28    1.15 
   4  11   8   -0.36    0.65 
  -6 -11  -8    2.72    1.51 
   6  11   8    1.47    1.02 
   0 -12  -8    4.00    1.58 
   0  12   8    6.39    1.30 
  -1 -12  -8    4.08    1.52 
   1  12   8    0.16    0.87 
  -2 -12  -8    1.78    1.24 
   2  12   8    0.87    1.01 
  -3 -12  -8    0.29    1.27 
   3  12   8    0.47    0.86 
  -4 -12  -8    0.34    1.27 
   4  12   8    1.52    0.86 
   2   7  -9    1.22    1.08 
  -2  -7   9    4.78    1.20 
   1   7  -9    0.63    0.99 
  -1  -7   9   -0.18    1.01 
   0   7  -9    0.91    1.06 
   0  -7   9    1.56    1.11 
  -1   7  -9   -2.25    0.96 
   1  -7   9   -0.46    0.90 
  -2   7  -9    0.27    1.12 
   2  -7   9    1.86    1.05 
  -3   7  -9    1.43    1.14 
   3  -7   9   -0.79    1.01 
   4   6  -9    4.87    1.83 
  -4  -6   9    2.08    1.22 
  -3  -6   9    1.32    0.97 
   2   6  -9   10.20    1.53 
  -2  -6   9    7.25    1.41 
   1   6  -9    8.29    1.36 
  -1  -6   9    8.15    1.49 
   0   6  -9    8.38    1.44 
   0  -6   9    5.85    1.40 
  -1   6  -9    4.25    1.20 
   1  -6   9    1.40    0.95 
  -2   6  -9    7.89    1.47 
   2  -6   9    5.24    1.24 
  -3   6  -9    1.17    1.03 
   3  -6   9    2.09    1.02 
  -4   6  -9    3.05    1.11 
   4  -6   9    1.55    1.01 
  -5   6  -9   18.77    2.22 
   5  -6   9   15.49    2.18 
   5   5  -9   -1.12    1.41 
  -5  -5   9    0.07    0.93 
   4   5  -9    1.21    1.24 
  -4  -5   9    0.85    0.91 
   3   5  -9    9.99    1.71 
   3   5  -9   11.51    1.63 
  -3  -5   9   12.18    1.60 
   2   5  -9    7.23    1.27 
  -2  -5   9    4.97    1.05 
   1   5  -9   10.68    1.51 
  -1  -5   9   10.95    1.69 
   0   5  -9   12.03    1.56 
   0  -5   9   11.70    1.59 
  -1   5  -9    2.26    0.90 
   1  -5   9    2.86    0.93 
  -2   5  -9    3.75    1.00 
   2  -5   9    2.44    1.01 
  -3   5  -9   -0.26    0.83 
   3  -5   9    1.50    0.83 
  -4   5  -9    9.71    1.57 
   4  -5   9    8.45    1.60 
  -5   5  -9    2.69    1.09 
   5  -5   9   -0.25    0.86 
  -6   5  -9   11.25    1.75 
   6  -5   9    8.19    1.61 
  -7   5  -9    0.85    1.18 
   7  -5   9    0.89    1.06 
   6   4  -9    2.05    1.63 
   5   4  -9    0.49    1.25 
  -5  -4   9    1.21    1.39 
   4   4  -9    1.49    1.14 
  -4  -4   9    0.74    0.77 
   3   4  -9    5.96    1.18 
   3   4  -9    7.99    1.36 
  -3  -4   9    4.37    0.94 
   2   4  -9    0.12    0.72 
   2   4  -9   -0.55    0.94 
  -2  -4   9   -0.17    0.66 
   1   4  -9    1.42    0.73 
  -1  -4   9    0.36    0.63 
   0   4  -9   -0.46    0.66 
   0  -4   9    0.10    0.59 
  -1   4  -9   19.89    1.95 
   1  -4   9   18.19    2.07 
  -2   4  -9    2.18    0.90 
   2  -4   9    1.14    0.77 
  -3   4  -9   11.97    1.58 
   3  -4   9    9.11    1.57 
  -4   4  -9   24.65    2.01 
   4  -4   9   21.63    2.59 
  -5   4  -9    7.95    1.40 
   5  -4   9    4.10    1.09 
  -6   4  -9    1.85    1.01 
   6  -4   9   -1.67    0.77 
  -7   4  -9   17.59    2.16 
   7  -4   9   12.26    2.06 
  -8   4  -9    4.58    1.51 
   8  -4   9    6.57    1.72 
   7   3  -9    3.19    1.58 
  -7  -3   9    1.69    1.23 
   6   3  -9   -1.10    1.32 
  -6  -3   9    0.46    1.06 
   5   3  -9   12.28    1.97 
  -5  -3   9   11.18    1.48 
   4   3  -9    0.40    1.04 
  -4  -3   9    1.25    0.95 
  -4  -3   9    0.67    0.76 
   3   3  -9    0.62    0.90 
   3   3  -9   -0.30    0.67 
  -3  -3   9   -0.14    0.64 
  -3  -3   9   -0.13    0.81 
   2   3  -9    5.15    1.09 
   2   3  -9    4.41    0.97 
  -2  -3   9    5.16    0.97 
  -2  -3   9    4.23    0.94 
   1   3  -9    4.49    0.97 
  -1  -3   9    5.36    0.89 
  -1  -3   9    3.72    0.82 
   0   3  -9    1.13    0.72 
   0  -3   9    1.63    0.69 
   0  -3   9    1.65    0.67 
  -1   3  -9    0.76    0.70 
   1  -3   9   -0.51    0.49 
   1  -3   9    0.58    0.62 
  -2   3  -9    1.90    0.78 
   2  -3   9    3.21    0.91 
   2  -3   9    4.52    0.94 
  -3   3  -9    3.40    0.95 
   3  -3   9    4.38    0.94 
   3  -3   9    3.10    0.92 
  -4   3  -9   33.27    2.16 
   4  -3   9   31.48    2.40 
   4  -3   9   35.09    2.04 
  -5   3  -9   19.09    1.95 
   5  -3   9   16.19    2.11 
  -6   3  -9    0.63    0.65 
  -6   3  -9    2.08    0.95 
   6  -3   9    0.46    0.77 
  -7   3  -9    6.62    1.30 
  -7   3  -9    4.79    0.98 
   7  -3   9    4.37    1.13 
  -8   3  -9    4.06    1.08 
  -8   3  -9    8.61    1.47 
   8  -3   9    4.32    1.32 
  -9   3  -9    1.62    1.30 
   9  -3   9    1.82    1.27 
   8   2  -9   -2.49    1.47 
  -8  -2   9    2.31    1.33 
   7   2  -9    2.12    1.54 
  -7  -2   9    1.70    1.14 
   6   2  -9    2.73    1.35 
  -6  -2   9    0.38    0.97 
   5   2  -9    5.86    1.40 
  -5  -2   9    6.02    1.13 
   4   2  -9   32.83    2.43 
   4   2  -9   33.07    2.01 
  -4  -2   9   31.29    2.14 
   3   2  -9    6.31    1.10 
   3   2  -9    8.02    1.41 
  -3  -2   9    7.09    1.07 
  -3  -2   9    6.49    1.02 
   2   2  -9    2.61    0.98 
   2   2  -9    3.22    0.88 
  -2  -2   9    2.07    0.79 
  -2  -2   9    3.35    0.85 
   1   2  -9    0.93    0.61 
  -1  -2   9    1.06    0.57 
  -1  -2   9    0.87    0.57 
   0   2  -9    0.54    0.60 
   0  -2   9   -0.05    0.47 
   0  -2   9    0.63    0.48 
  -1   2  -9   13.57    1.52 
   1  -2   9   13.43    1.33 
   1  -2   9   10.74    1.44 
  -2   2  -9    0.02    0.49 
   2  -2   9    0.46    0.52 
   2  -2   9    1.15    0.60 
  -3   2  -9   29.91    2.01 
   3  -2   9   33.97    1.94 
   3  -2   9   30.85    2.16 
  -4   2  -9    3.73    0.95 
   4  -2   9    2.74    0.80 
   4  -2   9    2.26    0.83 
  -5   2  -9   68.12    2.91 
  -5   2  -9   75.53    3.26 
   5  -2   9   61.20    3.36 
  -6   2  -9    1.27    0.78 
  -6   2  -9    2.61    0.71 
   6  -2   9    0.92    0.65 
  -7   2  -9    3.15    1.05 
  -7   2  -9    2.43    0.77 
   7  -2   9    3.38    1.06 
  -8   2  -9   -1.22    0.93 
  -8   2  -9    0.45    0.75 
   8  -2   9    0.05    0.88 
  -9   2  -9   -0.05    0.80 
  -9   2  -9   -0.51    1.04 
   9  -2   9    1.51    1.01 
   8   1  -9   -0.96    1.45 
  -8  -1   9    0.62    1.21 
   7   1  -9   -2.56    1.44 
  -7  -1   9   -0.54    0.92 
   6   1  -9    6.03    1.64 
  -6  -1   9    5.61    1.25 
   5   1  -9    4.33    1.32 
  -5  -1   9    4.44    1.10 
   4   1  -9   12.59    1.71 
   4   1  -9    7.46    1.12 
  -4  -1   9    9.06    1.34 
   3   1  -9    8.30    1.33 
   3   1  -9    6.77    1.07 
  -3  -1   9    7.91    1.10 
   2   1  -9   19.35    1.76 
   2   1  -9   18.34    1.59 
  -2  -1   9   19.62    1.45 
   1   1  -9    2.09    0.70 
  -1  -1   9    1.25    0.57 
  -1  -1   9    3.02    0.75 
   0   1  -9   10.91    1.34 
   0  -1   9   10.71    1.21 
   0  -1   9    8.84    1.16 
  -1   1  -9   18.62    1.55 
   1  -1   9   18.48    1.46 
   1  -1   9   22.16    1.48 
  -2   1  -9    0.50    0.47 
   2  -1   9    1.14    0.63 
   2  -1   9   -0.19    0.53 
  -3   1  -9   14.22    1.55 
   3  -1   9   16.70    1.81 
   3  -1   9   17.04    1.36 
  -4   1  -9   81.94    3.44 
   4  -1   9   88.68    3.75 
  -5   1  -9    4.16    0.87 
  -5   1  -9    6.62    1.18 
   5  -1   9    5.41    1.11 
  -6   1  -9    1.56    0.83 
  -6   1  -9    1.51    0.65 
   6  -1   9    1.64    0.70 
  -7   1  -9    0.33    0.58 
  -7   1  -9    2.86    0.97 
   7  -1   9    2.67    0.92 
  -8   1  -9    0.21    0.64 
  -8   1  -9    1.67    0.88 
   8  -1   9    1.41    0.83 
  -9   1  -9    0.65    0.94 
  -9   1  -9   -0.45    0.66 
   9  -1   9    2.70    0.98 
 -10   1  -9    0.87    0.91 
  10  -1   9   -3.17    0.87 
   8   0  -9    4.31    1.75 
  -8   0   9    3.38    1.37 
   7   0  -9    0.62    1.26 
  -7   0   9   -0.16    0.91 
   6   0  -9    0.15    1.03 
  -6   0   9   -0.44    0.83 
   5   0  -9    0.90    1.02 
  -5   0   9   -0.38    0.74 
   4   0  -9   34.76    2.55 
   4   0  -9   33.93    2.04 
  -4   0   9   41.36    2.28 
   3   0  -9   10.57    1.51 
   3   0  -9   10.60    1.29 
  -3   0   9   11.04    1.27 
   2   0  -9    5.02    1.06 
   2   0  -9    3.96    0.81 
  -2   0   9    3.31    0.73 
   1   0  -9    1.12    0.57 
  -1   0   9    1.33    0.58 
   0   0  -9    3.11    0.73 
   0   0   9    3.11    0.73 
  -1   0  -9   10.93    1.26 
   1   0   9    8.87    1.22 
   1   0   9   13.08    1.35 
  -2   0  -9    1.01    0.52 
   2   0   9   -0.12    0.44 
   2   0   9    0.63    0.51 
  -3   0  -9   17.92    1.77 
   3   0   9   17.57    1.37 
   3   0   9   16.15    1.70 
  -4   0  -9  129.04    4.36 
  -4   0  -9  125.29    4.48 
   4   0   9  129.52    4.77 
  -5   0  -9    5.08    1.05 
  -5   0  -9    5.65    0.92 
   5   0   9    4.70    0.98 
  -6   0  -9    9.96    1.39 
  -6   0  -9    9.64    1.25 
   6   0   9    8.10    1.49 
  -7   0  -9    1.03    0.58 
  -7   0  -9    1.69    0.92 
   7   0   9    2.44    0.87 
  -8   0  -9    1.12    0.84 
  -8   0  -9   -0.60    0.58 
   8   0   9    0.08    0.60 
  -9   0  -9    0.70    0.94 
  -9   0  -9    1.21    0.77 
   9   0   9    0.53    0.66 
 -10   0  -9   -0.55    0.70 
  10   0   9    0.15    0.70 
   8  -1  -9   -0.43    1.40 
  -8   1   9    0.91    1.11 
   7  -1  -9    1.83    1.24 
  -7   1   9    0.61    0.95 
   6  -1  -9    0.27    1.05 
  -6   1   9    1.28    0.81 
   5  -1  -9   -0.42    0.96 
  -5   1   9    0.51    0.72 
   4  -1  -9    5.11    1.28 
   4  -1  -9    3.67    0.87 
  -4   1   9    3.98    0.89 
   3  -1  -9    8.74    1.20 
   3  -1  -9   10.47    1.48 
  -3   1   9   10.21    1.25 
   2  -1  -9   15.66    1.56 
   2  -1  -9   12.89    1.39 
  -2   1   9   12.80    1.39 
   1  -1  -9    2.46    0.70 
  -1   1   9    3.31    0.74 
   0  -1  -9   20.06    1.45 
   0   1   9   21.74    1.45 
  -1  -1  -9    6.04    0.98 
   1   1   9    6.73    0.95 
  -2  -1  -9   80.30    3.15 
   2   1   9   77.63    3.09 
   2   1   9   77.64    3.07 
  -3  -1  -9    8.71    1.20 
   3   1   9    6.10    1.02 
   3   1   9    7.53    1.03 
  -4  -1  -9   12.57    1.43 
  -4  -1  -9   11.25    1.26 
   4   1   9   14.63    1.68 
  -5  -1  -9   54.30    2.58 
  -5  -1  -9   51.72    2.40 
   5   1   9   52.19    2.74 
  -6  -1  -9   20.96    1.65 
  -6  -1  -9   18.71    1.45 
   6   1   9   18.76    2.08 
  -7  -1  -9    2.06    0.85 
  -7  -1  -9    1.46    0.57 
   7   1   9    1.56    0.75 
  -8  -1  -9    7.50    1.33 
  -8  -1  -9    7.99    1.27 
   8   1   9    8.35    1.57 
  -9  -1  -9   -0.16    0.62 
   9   1   9   -0.14    0.63 
 -10  -1  -9   -0.81    0.75 
  10   1   9   -0.50    0.76 
   8  -2  -9    9.76    2.00 
  -8   2   9    6.45    1.51 
   7  -2  -9   12.15    2.00 
  -7   2   9   10.75    1.64 
   6  -2  -9   10.72    1.85 
  -6   2   9    8.28    1.39 
   5  -2  -9   -0.53    0.57 
   5  -2  -9   -0.09    0.90 
  -5   2   9    0.45    0.67 
   4  -2  -9    2.76    0.77 
   4  -2  -9    3.18    1.11 
  -4   2   9    1.91    0.61 
   3  -2  -9   20.42    1.52 
   3  -2  -9   24.09    1.85 
  -3   2   9   22.93    1.61 
   2  -2  -9    0.83    0.55 
   2  -2  -9    1.23    0.67 
  -2   2   9    0.23    0.48 
   1  -2  -9    1.17    0.53 
  -1   2   9    2.68    0.69 
   0  -2  -9    5.23    0.90 
   0   2   9    6.54    0.94 
  -1  -2  -9   14.27    1.20 
   1   2   9   13.24    1.36 
  -2  -2  -9   36.97    2.02 
   2   2   9   33.15    1.88 
  -3  -2  -9   54.60    2.48 
   3   2   9   50.18    2.47 
   3   2   9   53.53    2.42 
  -4  -2  -9    1.71    0.52 
  -4  -2  -9    1.82    0.72 
   4   2   9    1.97    0.67 
  -5  -2  -9   28.07    1.78 
  -5  -2  -9   30.09    1.73 
   5   2   9   26.30    1.87 
  -6  -2  -9    2.25    0.63 
  -6  -2  -9    2.33    0.76 
   6   2   9    3.01    0.76 
  -7  -2  -9   50.43    2.47 
  -7  -2  -9   48.99    2.44 
   7   2   9   49.43    2.84 
  -8  -2  -9   21.83    1.94 
  -8  -2  -9   19.49    1.99 
   8   2   9   17.50    2.20 
  -9  -2  -9    1.50    0.75 
   9   2   9    2.30    0.94 
 -10  -2  -9    4.41    1.31 
  10   2   9    1.59    1.01 
 -11  -2  -9   -0.01    0.97 
  11   2   9    0.92    0.94 
   8  -3  -9    2.35    1.40 
  -8   3   9    1.19    1.23 
   7  -3  -9    1.22    1.24 
  -7   3   9    1.24    1.02 
   6  -3  -9    0.09    0.87 
   6  -3  -9    0.86    1.09 
  -6   3   9    1.40    0.83 
   5  -3  -9    3.96    1.11 
   5  -3  -9    3.07    0.80 
  -5   3   9    1.74    0.78 
   4  -3  -9    1.24    0.67 
   4  -3  -9    2.65    1.05 
  -4   3   9    2.57    0.68 
   3  -3  -9    0.11    0.47 
   3  -3  -9    1.06    0.78 
  -3   3   9    0.29    0.41 
   2  -3  -9    1.16    0.73 
   2  -3  -9    1.63    0.59 
  -2   3   9    0.98    0.46 
   1  -3  -9    2.19    0.76 
   1  -3  -9    2.27    0.68 
  -1   3   9    2.48    0.56 
   0  -3  -9   -0.14    0.51 
   0  -3  -9    0.49    0.48 
   0   3   9   -0.28    0.24 
  -1  -3  -9   39.06    2.04 
   1   3   9   38.40    1.96 
  -2  -3  -9    0.43    0.46 
   2   3   9    0.05    0.31 
  -3  -3  -9   15.35    1.58 
   3   3   9   12.44    1.31 
   3   3   9   13.16    1.43 
  -4  -3  -9    6.90    1.08 
  -4  -3  -9    5.72    0.93 
   4   3   9    6.74    1.03 
  -5  -3  -9    6.51    1.03 
  -5  -3  -9    6.75    1.12 
   5   3   9    5.52    1.05 
  -6  -3  -9   19.65    1.47 
  -6  -3  -9   24.18    1.67 
   6   3   9   21.61    1.73 
  -7  -3  -9    1.08    0.68 
  -7  -3  -9    0.84    0.48 
   7   3   9    0.29    0.53 
  -8  -3  -9    1.96    0.73 
   8   3   9    1.45    0.70 
  -9  -3  -9    4.06    0.99 
   9   3   9    4.12    1.14 
 -10  -3  -9   16.39    2.03 
  10   3   9   14.37    2.10 
 -11  -3  -9    0.86    1.00 
  11   3   9    1.14    0.92 
   8  -4  -9    2.56    1.62 
  -8   4   9    0.64    1.22 
   7  -4  -9    1.31    1.28 
  -7   4   9    1.03    0.99 
   6  -4  -9    0.62    1.03 
   6  -4  -9    0.00    0.70 
  -6   4   9    1.86    0.87 
   5  -4  -9    0.57    0.69 
   5  -4  -9    0.53    0.98 
  -5   4   9    1.00    0.69 
   4  -4  -9    2.01    0.68 
   4  -4  -9    1.01    0.99 
  -4   4   9    0.59    0.47 
   3  -4  -9    1.95    0.68 
   3  -4  -9    3.14    0.95 
  -3   4   9    2.01    0.59 
   2  -4  -9   11.55    1.32 
   2  -4  -9   12.03    1.51 
  -2   4   9    9.47    1.16 
   1  -4  -9   11.11    1.30 
   1  -4  -9   12.31    1.44 
  -1   4   9   14.63    1.18 
   0  -4  -9    4.62    0.86 
   0  -4  -9    5.23    0.94 
   0   4   9    4.16    0.73 
  -1  -4  -9   74.03    3.05 
   1   4   9   72.53    2.93 
  -2  -4  -9   10.78    1.31 
   2   4   9    8.21    1.05 
  -3  -4  -9    1.68    0.61 
   3   4   9    2.74    0.60 
  -4  -4  -9    5.40    0.93 
  -4  -4  -9    5.65    0.99 
   4   4   9    5.80    0.98 
  -5  -4  -9    0.10    0.40 
  -5  -4  -9    1.71    0.69 
   5   4   9    0.42    0.52 
  -6  -4  -9    0.66    0.52 
  -6  -4  -9    0.10    0.58 
   6   4   9    0.52    0.57 
  -7  -4  -9    2.11    0.85 
  -7  -4  -9    4.80    0.97 
   7   4   9    4.00    0.96 
  -8  -4  -9    2.00    0.76 
   8   4   9    0.80    0.63 
  -9  -4  -9   12.54    1.59 
   9   4   9    7.56    1.51 
 -10  -4  -9   14.94    2.00 
  10   4   9    8.96    1.76 
 -11  -4  -9   -0.14    0.95 
  11   4   9    0.32    0.96 
   8  -5  -9    5.90    1.98 
  -8   5   9    1.85    1.30 
   7  -5  -9   19.45    2.64 
  -7   5   9   17.14    2.09 
   6  -5  -9    1.98    1.24 
  -6   5   9    1.33    1.00 
  -6   5   9    2.86    1.08 
   5  -5  -9    1.36    1.07 
   5  -5  -9    1.91    0.78 
  -5   5   9    0.95    0.82 
   4  -5  -9    1.19    0.84 
   4  -5  -9    1.43    0.70 
  -4   5   9    0.70    0.60 
   3  -5  -9   10.13    1.47 
   3  -5  -9    8.87    1.27 
  -3   5   9    7.75    1.04 
   2  -5  -9   -0.08    0.44 
   2  -5  -9    1.03    0.81 
  -2   5   9    0.15    0.43 
   1  -5  -9   17.12    1.38 
   1  -5  -9   18.92    1.79 
  -1   5   9   19.32    1.42 
   0  -5  -9   77.54    3.10 
   0  -5  -9   79.62    3.08 
   0   5   9   77.31    3.09 
  -1  -5  -9   18.41    1.45 
  -1  -5  -9   22.35    1.57 
   1   5   9   22.83    1.49 
  -2  -5  -9   78.25    3.09 
   2   5   9   74.91    3.05 
  -3  -5  -9    2.16    0.70 
   3   5   9    0.79    0.43 
  -4  -5  -9    9.60    1.27 
  -4  -5  -9   10.83    1.31 
   4   5   9    9.36    1.24 
  -5  -5  -9    0.31    0.55 
  -5  -5  -9    0.21    0.43 
   5   5   9   -0.02    0.50 
  -6  -5  -9    1.48    0.67 
  -6  -5  -9    2.50    0.80 
   6   5   9    2.09    0.74 
  -7  -5  -9    1.18    0.67 
   7   5   9    1.19    0.73 
  -8  -5  -9   16.61    1.87 
   8   5   9   17.31    2.15 
  -9  -5  -9   12.79    1.68 
   9   5   9   12.62    1.93 
 -10  -5  -9   11.80    1.78 
  10   5   9    9.77    1.77 
   7  -6  -9   11.33    2.18 
  -7   6   9   11.63    2.43 
  -7   6   9   11.39    1.81 
   6  -6  -9    0.88    1.23 
  -6   6   9    0.70    0.92 
  -6   6   9    1.13    0.93 
   5  -6  -9   -0.07    0.97 
  -5   6   9   -0.37    0.88 
  -5   6   9    0.80    0.82 
   4  -6  -9   12.56    1.89 
   4  -6  -9   12.28    1.52 
  -4   6   9   16.36    1.76 
   3  -6  -9    1.32    0.92 
   3  -6  -9    0.14    0.53 
  -3   6   9    0.79    0.55 
   2  -6  -9    0.71    0.80 
   2  -6  -9    0.17    0.48 
  -2   6   9    0.86    0.52 
   1  -6  -9    1.40    0.77 
   1  -6  -9    0.05    0.43 
  -1   6   9    0.28    0.43 
   0  -6  -9    0.50    0.58 
   0  -6  -9    0.22    0.43 
   0   6   9   -0.58    0.38 
  -1  -6  -9   53.96    2.53 
  -1  -6  -9   55.10    2.61 
   1   6   9   56.04    2.52 
  -2  -6  -9   29.54    1.73 
  -2  -6  -9   29.28    1.85 
   2   6   9   28.34    1.74 
  -3  -6  -9    1.40    0.64 
   3   6   9    1.23    0.47 
  -4  -6  -9    1.50    0.67 
   4   6   9    1.37    0.55 
   4   6   9    0.95    0.62 
  -5  -6  -9    4.03    0.89 
  -5  -6  -9    4.43    0.95 
   5   6   9    3.40    0.94 
  -6  -6  -9    3.80    0.84 
  -6  -6  -9    4.10    0.90 
   6   6   9    5.13    1.12 
  -7  -6  -9    8.99    1.33 
   7   6   9    8.27    1.51 
  -8  -6  -9   24.34    1.87 
   8   6   9   26.60    2.78 
  -9  -6  -9    0.89    0.79 
   9   6   9   -0.14    0.73 
 -10  -6  -9    1.44    0.88 
  10   6   9   -0.92    0.75 
   7  -7  -9    7.00    1.95 
  -7   7   9    6.95    1.63 
  -7   7   9    5.94    1.58 
   6  -7  -9    4.82    1.59 
  -6   7   9    4.60    1.19 
  -6   7   9    1.32    1.21 
   5  -7  -9    1.41    1.20 
  -5   7   9    2.00    1.04 
  -5   7   9    2.84    0.97 
   4  -7  -9    1.45    1.14 
  -4   7   9    0.83    0.86 
  -4   7   9    1.58    0.84 
   3  -7  -9    6.94    1.35 
  -3   7   9    3.69    0.84 
   2  -7  -9    6.58    1.12 
   2  -7  -9   10.31    1.57 
  -2   7   9    6.90    1.03 
   1  -7  -9    2.03    0.73 
   1  -7  -9    2.86    0.87 
  -1   7   9    3.86    0.79 
   0  -7  -9   -0.27    0.65 
   0  -7  -9    0.71    0.58 
   0   7   9    0.20    0.44 
  -1  -7  -9  103.28    4.02 
  -1  -7  -9  111.63    4.05 
   1   7   9  107.69    3.88 
  -2  -7  -9    0.20    0.55 
  -2  -7  -9    0.56    0.56 
   2   7   9    0.83    0.53 
  -3  -7  -9    6.70    1.12 
  -3  -7  -9    5.52    1.03 
   3   7   9    6.26    0.94 
  -4  -7  -9    5.31    0.93 
  -4  -7  -9    3.65    0.87 
   4   7   9    3.91    0.79 
  -5  -7  -9    4.19    0.97 
  -5  -7  -9    4.92    0.98 
   5   7   9    4.92    1.07 
  -6  -7  -9   -0.08    0.65 
  -6  -7  -9   -1.20    0.50 
   6   7   9    0.11    0.70 
  -7  -7  -9    0.52    0.72 
   7   7   9    0.62    0.72 
  -8  -7  -9    4.96    1.04 
   8   7   9    2.67    1.02 
  -9  -7  -9   -0.16    0.71 
   9   7   9    0.20    0.74 
 -10  -7  -9    3.63    1.16 
  10   7   9    2.03    0.94 
   6  -8  -9   -0.51    1.34 
  -6   8   9    0.08    1.22 
  -6   8   9    0.32    1.13 
   5  -8  -9   20.20    2.62 
  -5   8   9   21.19    2.32 
  -5   8   9   16.22    1.90 
   4  -8  -9    1.44    1.06 
  -4   8   9    0.70    0.96 
  -4   8   9    1.57    0.89 
   3  -8  -9   14.65    1.97 
  -3   8   9   12.96    1.69 
  -3   8   9   11.49    1.42 
   2  -8  -9    3.69    1.12 
  -2   8   9    2.60    1.09 
  -2   8   9    1.91    0.64 
   1  -8  -9    3.16    1.02 
  -1   8   9    2.36    0.67 
   0  -8  -9    5.00    1.07 
   0  -8  -9    4.03    0.95 
   0   8   9    3.41    0.80 
  -1  -8  -9   13.20    1.58 
  -1  -8  -9   11.25    1.56 
   1   8   9   11.59    1.33 
  -2  -8  -9    4.08    0.97 
  -2  -8  -9    3.14    0.96 
   2   8   9    2.54    0.68 
  -3  -8  -9    7.72    1.29 
  -3  -8  -9    9.75    1.39 
   3   8   9    7.35    1.11 
  -4  -8  -9    3.83    0.98 
  -4  -8  -9    4.92    1.07 
   4   8   9    4.10    0.81 
  -5  -8  -9   32.67    2.13 
  -5  -8  -9   27.67    1.91 
   5   8   9   32.22    2.11 
   5   8   9   30.57    1.90 
  -6  -8  -9    0.09    0.68 
  -6  -8  -9   -1.22    0.67 
   6   8   9    1.10    0.78 
  -7  -8  -9   -0.23    0.69 
   7   8   9    0.69    0.65 
  -8  -8  -9   10.45    1.54 
   8   8   9    9.31    1.59 
  -9  -8  -9    2.77    0.95 
   9   8   9    0.24    0.82 
   5  -9  -9    5.87    1.67 
  -5   9   9    2.16    1.43 
   4  -9  -9    1.01    1.24 
  -4   9   9   -0.77    1.08 
   3  -9  -9    9.49    1.71 
  -3   9   9    6.94    1.47 
   2  -9  -9    6.61    1.47 
  -2   9   9    5.57    1.23 
   1  -9  -9   44.56    2.77 
  -1   9   9   37.55    2.63 
  -1   9   9   39.92    2.36 
   0  -9  -9    9.35    1.51 
   0   9   9    9.16    1.42 
   0   9   9    8.22    1.10 
  -1  -9  -9   12.06    1.63 
   1   9   9   15.07    1.82 
   1   9   9    9.90    1.13 
  -2  -9  -9    1.51    0.91 
   2   9   9   -0.14    0.51 
  -3  -9  -9    4.45    1.13 
   3   9   9    1.57    0.68 
  -4  -9  -9    3.36    1.03 
   4   9   9    3.79    0.81 
  -5  -9  -9   29.57    2.19 
   5   9   9   29.71    1.89 
   6   9   9    2.75    1.05 
  -7  -9  -9    2.58    0.92 
   7   9   9    1.44    0.94 
  -8  -9  -9    0.92    0.88 
   8   9   9   -0.08    0.77 
   4 -10  -9    0.74    1.42 
  -4  10   9   -1.38    1.19 
   3 -10  -9    7.03    1.66 
  -3  10   9    1.83    1.22 
   2 -10  -9   11.74    1.95 
  -2  10   9   10.34    1.69 
   1 -10  -9    6.93    1.55 
  -1  10   9    6.60    1.29 
   0 -10  -9    7.53    1.45 
   0  10   9    7.17    1.29 
  -1 -10  -9   30.00    2.43 
   1  10   9   26.48    2.03 
  -2 -10  -9    2.53    1.16 
   2  10   9    2.96    0.87 
  -3 -10  -9    3.23    1.02 
   3  10   9    2.40    0.84 
  -4 -10  -9    5.12    1.25 
   4  10   9    2.72    0.79 
  -5 -10  -9   -0.24    0.89 
   5  10   9    0.44    0.62 
   7  10   9    7.59    1.51 
   2 -11  -9   24.62    2.79 
  -2  11   9   23.59    2.63 
   1 -11  -9    2.84    1.35 
  -1  11   9    1.67    1.07 
   0 -11  -9    4.79    1.50 
   0  11   9    3.31    1.14 
  -1 -11  -9   -0.29    1.17 
   1  11   9   -0.61    0.80 
  -2 -11  -9    4.62    1.39 
   2  11   9    3.74    1.07 
  -3 -11  -9   12.68    1.95 
   3  11   9   12.92    1.67 
  -4 -11  -9    0.43    1.15 
   4  11   9    0.46    0.76 
  -5 -11  -9    2.81    1.24 
   6  11   9    1.93    1.23 
   2   6 -10    9.82    1.58 
  -2  -6  10   11.82    1.88 
   1   6 -10   -0.04    1.01 
  -1  -6  10    0.41    0.98 
   0   6 -10   14.04    1.81 
   0  -6  10    7.68    1.48 
  -1   6 -10    1.32    1.04 
   1  -6  10    1.32    1.01 
  -2   6 -10    1.39    1.06 
   2  -6  10    1.71    1.08 
  -3   6 -10    0.73    0.97 
   3  -6  10   -0.03    1.03 
  -4   6 -10   -0.33    1.01 
   4  -6  10    0.34    1.02 
  -4  -5  10   -0.25    1.02 
  -3  -5  10    6.61    1.47 
   2   5 -10    0.94    1.07 
  -2  -5  10    2.38    1.03 
   1   5 -10    0.96    0.98 
  -1  -5  10    0.81    0.79 
   0   5 -10   -0.41    0.83 
   0  -5  10    0.99    0.86 
  -1   5 -10   -0.25    0.86 
   1  -5  10    0.55    0.86 
  -2   5 -10   -0.18    0.82 
   2  -5  10    0.13    0.95 
  -3   5 -10    2.68    1.05 
   3  -5  10    0.14    0.88 
  -4   5 -10    1.20    1.03 
   4  -5  10    2.00    1.09 
  -5   5 -10    1.07    1.26 
   5  -5  10    0.03    1.00 
  -6   5 -10   -0.47    1.22 
   6  -5  10    0.44    1.09 
   5   4 -10    2.68    1.56 
   4   4 -10    2.60    1.48 
   3   4 -10    1.94    1.00 
  -3  -4  10    3.89    1.08 
   2   4 -10    1.05    0.94 
  -2  -4  10    1.62    0.82 
   1   4 -10    1.85    0.90 
  -1  -4  10    3.79    1.10 
   0   4 -10    0.78    0.82 
   0  -4  10    0.76    0.69 
  -1   4 -10    0.75    0.86 
   1  -4  10    1.47    0.86 
  -2   4 -10    0.17    0.80 
   2  -4  10   -1.57    0.64 
  -3   4 -10    1.36    0.96 
   3  -4  10    1.77    0.90 
  -4   4 -10    1.30    0.96 
   4  -4  10    1.34    0.94 
  -5   4 -10    4.72    1.29 
   5  -4  10    3.47    1.10 
  -6   4 -10   13.60    1.89 
   6  -4  10    8.08    1.55 
  -7   4 -10    5.18    1.41 
   7  -4  10    1.80    1.22 
   6   3 -10    2.16    1.53 
  -6  -3  10   -0.15    1.12 
   5   3 -10    0.40    1.25 
  -5  -3  10    0.95    1.09 
   4   3 -10    3.13    1.31 
  -4  -3  10    1.98    1.09 
   3   3 -10    1.06    1.12 
   3   3 -10   -0.71    0.68 
  -3  -3  10    0.30    0.70 
  -3  -3  10    1.57    0.91 
   2   3 -10    1.58    0.89 
  -2  -3  10    0.21    0.68 
  -2  -3  10    0.54    0.77 
   1   3 -10    9.59    1.42 
  -1  -3  10   12.74    1.38 
  -1  -3  10    5.14    1.01 
   0   3 -10    0.14    0.69 
   0  -3  10   -0.05    0.57 
   0  -3  10   -0.42    0.69 
  -1   3 -10    9.67    1.43 
   1  -3  10   10.81    1.54 
   1  -3  10   10.22    1.37 
  -2   3 -10    1.05    0.79 
   2  -3  10    0.59    0.70 
   2  -3  10    0.26    0.69 
  -3   3 -10    9.74    1.46 
   3  -3  10    7.30    1.20 
   3  -3  10    8.44    1.51 
  -4   3 -10   13.69    1.84 
   4  -3  10   12.77    1.55 
   4  -3  10    9.63    1.69 
  -5   3 -10   10.92    1.65 
   5  -3  10    9.75    1.67 
   5  -3  10   11.25    1.45 
  -6   3 -10    2.15    1.15 
   6  -3  10    2.84    1.08 
  -7   3 -10    5.50    1.44 
   7  -3  10    5.93    1.38 
  -8   3 -10    9.95    1.86 
   8  -3  10   10.11    1.77 
   7   2 -10    0.27    1.56 
  -7  -2  10    1.91    1.29 
   6   2 -10    9.54    2.01 
  -6  -2  10    7.34    1.35 
   5   2 -10    8.69    1.71 
  -5  -2  10    6.21    1.28 
   4   2 -10   24.98    2.60 
   4   2 -10   26.94    2.33 
  -4  -2  10   25.94    2.10 
   3   2 -10    3.99    1.10 
   3   2 -10    1.22    0.77 
  -3  -2  10    2.14    0.74 
   2   2 -10   11.35    1.40 
  -2  -2  10   11.61    1.36 
  -2  -2  10   11.11    1.45 
   1   2 -10   17.07    1.81 
  -1  -2  10   19.54    1.56 
  -1  -2  10   13.82    1.56 
   0   2 -10   23.86    1.82 
   0  -2  10   22.70    1.65 
   0  -2  10   21.94    1.69 
  -1   2 -10   -0.41    0.60 
   1  -2  10    0.00    0.58 
   1  -2  10    0.13    0.61 
  -2   2 -10    0.75    0.64 
   2  -2  10    0.19    0.61 
   2  -2  10    0.21    0.63 
  -3   2 -10    4.50    1.08 
   3  -2  10    5.22    1.06 
   3  -2  10    3.30    0.92 
  -4   2 -10    5.54    1.21 
   4  -2  10    4.25    1.09 
   4  -2  10    5.50    1.06 
  -5   2 -10   15.63    1.88 
   5  -2  10   17.05    1.70 
   5  -2  10   12.67    1.84 
  -6   2 -10    0.43    0.83 
  -6   2 -10    0.77    0.64 
   6  -2  10    0.02    0.74 
  -7   2 -10    1.02    0.73 
  -7   2 -10    0.08    0.89 
   7  -2  10   -0.77    0.75 
  -8   2 -10    0.13    0.77 
  -8   2 -10    0.03    1.09 
   8  -2  10    0.66    0.88 
   7   1 -10   13.79    2.33 
  -7  -1  10   13.00    2.00 
   6   1 -10   -2.30    1.29 
  -6  -1  10   -0.93    0.88 
   5   1 -10   16.59    2.31 
  -5  -1  10   16.90    1.94 
   4   1 -10    2.84    0.92 
   4   1 -10    3.93    1.32 
  -4  -1  10    4.06    1.11 
   3   1 -10   33.16    2.48 
   3   1 -10   32.90    2.11 
  -3  -1  10   30.20    1.98 
   2   1 -10    3.47    1.17 
   2   1 -10    3.18    0.93 
  -2  -1  10    3.23    0.79 
   1   1 -10    2.46    0.82 
  -1  -1  10    1.90    0.67 
  -1  -1  10    2.05    0.64 
   0   1 -10   39.76    2.33 
   0  -1  10   43.99    2.27 
  -1   1 -10    1.92    0.74 
   1  -1  10    3.07    0.80 
   1  -1  10    1.66    0.66 
  -2   1 -10    0.39    0.62 
   2  -1  10    0.43    0.55 
   2  -1  10   -0.09    0.58 
  -3   1 -10    2.52    0.95 
   3  -1  10    0.83    0.68 
   3  -1  10    1.32    0.72 
  -4   1 -10   10.64    1.47 
   4  -1  10    9.06    1.38 
   4  -1  10    6.93    1.12 
  -5   1 -10    2.94    0.96 
   5  -1  10    1.94    0.86 
  -6   1 -10    8.96    1.25 
  -6   1 -10    8.54    1.37 
   6  -1  10    9.96    1.66 
  -7   1 -10    3.33    1.12 
  -7   1 -10    1.98    0.73 
   7  -1  10    3.74    1.12 
  -8   1 -10    1.63    0.84 
  -8   1 -10    0.33    1.01 
   8  -1  10    4.35    1.35 
  -9   1 -10    0.93    0.81 
  -9   1 -10    2.27    1.28 
   9  -1  10    2.75    1.10 
   7   0 -10    1.30    1.66 
  -7   0  10    2.60    1.28 
   6   0 -10    2.51    1.41 
  -6   0  10    1.47    1.00 
   5   0 -10   21.65    2.37 
  -5   0  10   21.39    2.13 
   4   0 -10    0.53    0.98 
   4   0 -10    0.00    0.75 
  -4   0  10    0.23    0.68 
   3   0 -10    1.52    0.95 
   3   0 -10    1.54    0.74 
  -3   0  10   -0.03    0.61 
   2   0 -10   12.59    1.55 
   2   0 -10   13.62    1.59 
  -2   0  10   13.92    1.49 
   1   0 -10    4.57    0.94 
  -1   0  10    3.84    0.86 
   0   0 -10    0.89    0.63 
   0   0  10    1.61    0.68 
  -1   0 -10    1.03    0.54 
   1   0  10    0.16    0.48 
   1   0  10   -0.28    0.46 
  -2   0 -10    5.38    1.01 
   2   0  10    5.77    1.01 
   2   0  10    7.97    1.15 
  -3   0 -10   24.15    1.81 
   3   0  10   24.36    1.73 
   3   0  10   23.99    1.76 
  -4   0 -10   33.93    2.14 
   4   0  10   35.04    2.08 
   4   0  10   32.21    2.13 
  -5   0 -10    0.37    0.54 
  -5   0 -10    1.50    0.74 
   5   0  10    0.00    0.54 
  -6   0 -10    1.57    0.85 
  -6   0 -10    1.10    0.61 
   6   0  10    0.98    0.65 
  -7   0 -10   -0.69    0.74 
  -7   0 -10   -0.97    0.48 
   7   0  10   -0.01    0.68 
  -8   0 -10    1.33    0.99 
  -8   0 -10    0.46    0.68 
   8   0  10    0.07    0.74 
  -9   0 -10    4.00    1.05 
  -9   0 -10    2.01    1.12 
   9   0  10    2.05    1.13 
   7  -1 -10    2.18    1.57 
  -7   1  10    3.81    1.29 
   6  -1 -10    0.37    1.15 
  -6   1  10    1.32    1.00 
   5  -1 -10    2.05    1.09 
  -5   1  10    1.77    0.98 
   4  -1 -10    0.94    0.98 
   4  -1 -10    0.20    0.69 
  -4   1  10    0.54    0.63 
   3  -1 -10   20.90    1.73 
   3  -1 -10   20.19    2.09 
  -3   1  10   22.75    1.68 
   2  -1 -10    9.05    1.41 
   2  -1 -10    9.04    1.28 
  -2   1  10    8.17    1.13 
   1  -1 -10    1.41    0.66 
  -1   1  10    1.06    0.60 
   0  -1 -10    4.86    0.93 
   0   1  10    6.52    1.06 
  -1  -1 -10    0.00    0.50 
   1   1  10    0.02    0.47 
  -2  -1 -10    0.07    0.51 
   2   1  10    0.25    0.43 
   2   1  10   -0.25    0.49 
  -3  -1 -10   20.08    1.62 
   3   1  10   18.46    1.47 
   3   1  10   19.81    1.52 
  -4  -1 -10    5.86    1.16 
   4   1  10    5.44    0.99 
   4   1  10    3.78    0.96 
  -5  -1 -10    6.65    1.08 
  -5  -1 -10    9.73    1.42 
   5   1  10    5.35    1.14 
  -6  -1 -10   14.39    1.75 
  -6  -1 -10   13.21    1.52 
   6   1  10   11.23    1.70 
  -7  -1 -10   -0.35    0.49 
  -7  -1 -10    1.03    0.71 
   7   1  10    0.94    0.66 
  -8  -1 -10    9.95    1.49 
  -8  -1 -10   15.59    1.80 
   8   1  10   10.58    1.69 
  -9  -1 -10    5.93    1.21 
   9   1  10    3.67    1.18 
 -10  -1 -10    0.03    0.89 
  10   1  10    0.05    0.80 
   7  -2 -10    0.89    1.34 
  -7   2  10    1.40    1.07 
   6  -2 -10   42.91    3.07 
  -6   2  10   41.34    2.71 
   5  -2 -10    4.92    1.26 
   5  -2 -10    2.38    0.87 
  -5   2  10    2.22    1.03 
   4  -2 -10    2.64    1.04 
   4  -2 -10    3.72    0.91 
  -4   2  10    3.55    0.86 
   3  -2 -10    5.69    1.05 
   3  -2 -10    2.36    0.99 
  -3   2  10    3.00    0.75 
   2  -2 -10   31.25    2.00 
   2  -2 -10   31.32    2.05 
  -2   2  10   30.56    1.95 
   1  -2 -10    2.16    0.72 
  -1   2  10    1.59    0.62 
   0  -2 -10    5.26    1.01 
   0   2  10    4.65    0.90 
  -1  -2 -10    4.04    0.88 
   1   2  10    3.89    0.81 
  -2  -2 -10    3.95    0.92 
   2   2  10    2.17    0.70 
  -3  -2 -10   10.89    1.40 
   3   2  10    8.75    1.20 
   3   2  10    8.73    1.20 
  -4  -2 -10   16.85    1.82 
   4   2  10   18.19    1.77 
   4   2  10   15.50    1.74 
  -5  -2 -10    0.25    0.44 
  -5  -2 -10    1.24    0.73 
   5   2  10    1.09    0.57 
  -6  -2 -10   -0.09    0.64 
  -6  -2 -10   -0.19    0.38 
   6   2  10    0.13    0.55 
  -7  -2 -10    9.09    1.30 
  -7  -2 -10   10.97    1.48 
   7   2  10   11.41    1.68 
  -8  -2 -10    4.80    1.07 
  -8  -2 -10    4.02    1.06 
   8   2  10    3.28    1.07 
  -9  -2 -10    1.94    0.93 
   9   2  10    0.88    0.80 
 -10  -2 -10   -0.47    0.84 
  10   2  10    0.37    0.89 
   7  -3 -10    2.30    1.49 
  -7   3  10    2.05    1.13 
   6  -3 -10    3.28    1.45 
  -6   3  10    3.01    1.07 
   5  -3 -10    1.54    1.13 
   5  -3 -10    1.25    0.78 
  -5   3  10    3.74    1.04 
   4  -3 -10    2.41    0.84 
   4  -3 -10    3.70    1.12 
  -4   3  10    3.20    0.78 
   3  -3 -10   38.96    2.21 
   3  -3 -10   42.75    2.60 
  -3   3  10   42.62    2.27 
   2  -3 -10    1.38    0.83 
   2  -3 -10    0.56    0.57 
  -2   3  10   -0.32    0.41 
   1  -3 -10   25.28    1.82 
   1  -3 -10   29.57    1.92 
  -1   3  10   27.68    1.74 
   0  -3 -10    9.97    1.32 
   0   3  10   11.04    1.26 
  -1  -3 -10    5.80    1.03 
   1   3  10    3.46    0.69 
  -2  -3 -10   18.95    1.51 
   2   3  10   15.32    1.55 
  -3  -3 -10    0.47    0.63 
   3   3  10    0.17    0.44 
   3   3  10   -0.21    0.41 
  -4  -3 -10    1.22    0.65 
   4   3  10   -0.01    0.45 
   4   3  10   -0.03    0.44 
  -5  -3 -10    8.15    1.17 
  -5  -3 -10   10.72    1.44 
   5   3  10    8.64    1.35 
  -6  -3 -10    3.58    0.96 
  -6  -3 -10    3.84    0.87 
   6   3  10    1.83    0.73 
  -7  -3 -10    0.94    0.75 
  -7  -3 -10    0.34    0.44 
   7   3  10    0.37    0.65 
  -8  -3 -10    1.83    0.82 
  -8  -3 -10    5.53    1.15 
   8   3  10    2.18    0.88 
  -9  -3 -10    0.77    0.78 
   9   3  10    1.37    0.78 
 -10  -3 -10    1.47    0.95 
  10   3  10    0.33    0.84 
   7  -4 -10    1.39    1.56 
  -7   4  10    3.18    1.30 
   6  -4 -10    0.25    0.96 
   6  -4 -10    0.66    1.23 
  -6   4  10    0.65    0.89 
   5  -4 -10    4.89    1.04 
   5  -4 -10    5.89    1.55 
  -5   4  10    5.61    1.27 
   4  -4 -10   10.32    1.72 
   4  -4 -10   13.26    1.53 
  -4   4  10   13.53    1.50 
   3  -4 -10    1.75    1.05 
   3  -4 -10    1.08    0.69 
  -3   4  10    2.67    0.66 
   2  -4 -10    0.41    0.79 
   2  -4 -10   -0.29    0.56 
  -2   4  10    0.13    0.43 
   1  -4 -10   10.24    1.33 
   1  -4 -10   12.06    1.53 
  -1   4  10   11.27    1.33 
   0  -4 -10    0.29    0.46 
   0  -4 -10   -0.35    0.64 
   0   4  10    0.22    0.40 
  -1  -4 -10   -0.51    0.50 
   1   4  10    0.26    0.33 
  -2  -4 -10   50.71    2.58 
   2   4  10   48.47    2.44 
  -3  -4 -10    2.83    0.86 
   3   4  10    3.15    0.68 
  -4  -4 -10    2.31    0.83 
   4   4  10    1.16    0.57 
   4   4  10    1.36    0.56 
  -5  -4 -10   18.19    1.86 
  -5  -4 -10   15.52    1.74 
   5   4  10   15.70    1.73 
  -6  -4 -10    5.29    1.08 
  -6  -4 -10    7.42    1.30 
   6   4  10    5.55    1.08 
  -7  -4 -10    1.50    0.76 
  -7  -4 -10    1.11    0.81 
   7   4  10    2.32    0.85 
  -8  -4 -10    3.00    0.86 
   8   4  10   -0.28    0.59 
  -9  -4 -10    0.36    0.85 
   9   4  10   -0.34    0.69 
 -10  -4 -10    0.03    0.97 
  10   4  10   -0.26    0.70 
   7  -5 -10    8.01    1.94 
  -7   5  10    6.48    1.53 
   6  -5 -10    0.79    1.27 
  -6   5  10    2.48    1.09 
   5  -5 -10   -0.67    0.68 
   5  -5 -10    0.10    1.07 
  -5   5  10    1.18    0.87 
   4  -5 -10    0.39    0.65 
   4  -5 -10    0.27    0.94 
  -4   5  10    0.90    0.68 
   3  -5 -10   40.38    2.31 
   3  -5 -10   45.44    2.73 
  -3   5  10   44.65    2.36 
   2  -5 -10   55.67    2.70 
   2  -5 -10   53.10    2.94 
  -2   5  10   50.63    2.57 
   1  -5 -10    0.15    0.55 
   1  -5 -10   -0.37    0.75 
  -1   5  10   -0.34    0.42 
   0  -5 -10   22.35    1.64 
   0  -5 -10   23.36    1.64 
   0   5  10   23.94    1.68 
  -1  -5 -10   -0.76    0.52 
  -1  -5 -10    1.06    0.62 
   1   5  10    0.92    0.45 
  -2  -5 -10    4.03    0.94 
   2   5  10    2.85    0.73 
  -3  -5 -10    5.90    1.07 
   3   5  10    5.03    0.87 
  -4  -5 -10    0.58    0.63 
   4   5  10   -0.09    0.40 
   4   5  10    1.06    0.48 
  -5  -5 -10   -0.03    0.61 
  -5  -5 -10    0.51    0.69 
   5   5  10    0.03    0.54 
  -6  -5 -10    4.78    1.06 
  -6  -5 -10    2.89    1.00 
   6   5  10    4.62    1.09 
  -7  -5 -10    1.07    0.83 
  -7  -5 -10    1.44    0.79 
   7   5  10    1.78    0.78 
  -8  -5 -10   12.63    1.65 
   8   5  10   11.38    1.87 
  -9  -5 -10    2.73    0.93 
   9   5  10    1.13    0.85 
 -10  -5 -10    1.78    1.14 
  10   5  10    0.52    0.78 
   6  -6 -10   20.30    2.63 
  -6   6  10   21.34    2.15 
  -6   6  10   20.55    2.34 
   5  -6 -10    0.02    1.20 
  -5   6  10    1.30    1.04 
   4  -6 -10   -1.41    1.06 
   4  -6 -10    0.57    0.77 
  -4   6  10    1.20    0.82 
   3  -6 -10    5.49    1.11 
   3  -6 -10    7.89    1.47 
  -3   6  10    6.33    1.08 
   2  -6 -10    0.19    0.81 
   2  -6 -10    0.74    0.67 
  -2   6  10    0.14    0.45 
   1  -6 -10   33.07    2.23 
   1  -6 -10   35.10    2.08 
  -1   6  10   35.56    2.04 
   0  -6 -10    5.61    1.11 
   0  -6 -10    6.17    1.08 
   0   6  10    3.48    0.75 
  -1  -6 -10    0.71    0.67 
  -1  -6 -10   -0.06    0.55 
   1   6  10   -0.44    0.41 
  -2  -6 -10    0.93    0.62 
  -2  -6 -10    1.03    0.72 
   2   6  10    0.03    0.42 
  -3  -6 -10    4.40    0.95 
   3   6  10    3.81    0.82 
  -4  -6 -10    4.66    1.01 
   4   6  10    4.20    0.90 
  -5  -6 -10    4.77    1.03 
   5   6  10    4.14    1.03 
  -6  -6 -10    3.50    1.02 
  -6  -6 -10    4.07    0.96 
   6   6  10    4.38    1.06 
  -7  -6 -10    0.41    0.68 
  -7  -6 -10    0.10    0.73 
   7   6  10    0.39    0.68 
  -8  -6 -10   11.43    1.61 
   8   6  10   10.87    1.72 
  -9  -6 -10    1.52    0.91 
   9   6  10    0.25    0.74 
 -10  -6 -10    2.40    1.15 
  10   6  10   -0.11    0.85 
   6  -7 -10    1.53    1.55 
  -6   7  10    3.34    1.43 
  -6   7  10    2.30    1.29 
   5  -7 -10   11.80    2.10 
  -5   7  10   14.24    1.88 
  -5   7  10   11.63    1.67 
   4  -7 -10   -0.12    1.03 
  -4   7  10    1.77    0.91 
  -4   7  10   -0.13    1.11 
   3  -7 -10   -0.80    0.99 
   3  -7 -10   -0.53    0.67 
  -3   7  10    0.88    0.68 
   2  -7 -10    0.65    0.65 
   2  -7 -10   -0.28    0.77 
  -2   7  10    0.09    0.56 
   1  -7 -10   24.03    2.02 
   1  -7 -10   23.53    1.79 
  -1   7  10   24.20    1.69 
   0  -7 -10    4.07    1.04 
   0  -7 -10    3.52    0.99 
   0   7  10    2.56    0.67 
  -1  -7 -10   50.12    2.63 
  -1  -7 -10   53.20    2.66 
   1   7  10   48.97    2.47 
  -2  -7 -10   23.22    1.78 
  -2  -7 -10   23.32    1.72 
   2   7  10   21.26    1.61 
  -3  -7 -10    7.23    1.17 
  -3  -7 -10   10.30    1.38 
   3   7  10    5.78    1.01 
  -4  -7 -10    6.41    1.13 
   4   7  10    3.57    0.83 
  -5  -7 -10    1.21    0.77 
   5   7  10    0.94    0.76 
   5   7  10    0.50    0.53 
  -6  -7 -10    3.71    1.00 
  -6  -7 -10    1.65    0.86 
   6   7  10    3.12    1.00 
  -7  -7 -10    0.07    0.68 
   7   7  10    1.65    0.84 
  -8  -7 -10   36.32    2.41 
   8   7  10   36.65    2.72 
  -9  -7 -10    8.72    1.53 
   9   7  10    8.82    1.70 
   5  -8 -10    4.03    1.69 
  -5   8  10    6.22    1.53 
  -5   8  10    5.59    1.38 
   4  -8 -10    2.12    1.25 
  -4   8  10    3.72    1.30 
  -4   8  10    2.61    0.98 
   3  -8 -10    4.27    1.37 
  -3   8  10    3.77    0.91 
  -3   8  10    4.01    1.29 
   2  -8 -10    0.36    0.92 
  -2   8  10    0.27    0.53 
   1  -8 -10    4.31    1.17 
   1  -8 -10    4.80    1.05 
  -1   8  10    5.10    0.95 
   0  -8 -10   22.29    1.91 
   0  -8 -10   24.89    2.01 
   0   8  10   23.26    1.76 
  -1  -8 -10    9.26    1.45 
  -1  -8 -10    6.90    1.29 
   1   8  10    6.70    1.11 
  -2  -8 -10   13.00    1.64 
  -2  -8 -10   13.05    1.58 
   2   8  10   11.73    1.43 
  -3  -8 -10   -1.19    0.69 
  -3  -8 -10   -0.13    0.68 
   3   8  10    0.12    0.52 
  -4  -8 -10    3.43    0.92 
   4   8  10    3.83    0.84 
  -5  -8 -10    6.97    1.27 
   5   8  10    3.67    0.87 
  -6  -8 -10    7.32    1.27 
   6   8  10    2.97    1.06 
  -7  -8 -10   -0.25    0.76 
   7   8  10    0.06    0.75 
  -8  -8 -10    1.95    1.08 
   8   8  10    2.22    1.05 
  -9  -8 -10   -0.91    0.99 
   9   8  10   -0.63    0.75 
   4  -9 -10    1.64    1.43 
  -4   9  10    3.57    1.39 
   3  -9 -10   21.62    2.60 
  -3   9  10   16.60    2.12 
  -3   9  10   24.18    2.49 
   2  -9 -10    1.74    1.15 
  -2   9  10    0.93    0.96 
  -2   9  10   -0.14    0.64 
   1  -9 -10   14.51    1.97 
  -1   9  10   17.11    2.04 
  -1   9  10   11.57    1.41 
   0  -9 -10   14.27    1.88 
   0   9  10   12.12    1.34 
  -1  -9 -10    0.95    0.85 
  -1  -9 -10    1.25    0.93 
   1   9  10    1.05    0.57 
  -2  -9 -10    0.40    0.76 
  -2  -9 -10    1.02    0.90 
   2   9  10   -0.23    0.47 
  -3  -9 -10   12.11    1.59 
  -3  -9 -10   11.22    1.51 
   3   9  10   11.66    1.45 
  -4  -9 -10   15.41    1.76 
  -4  -9 -10   13.03    1.59 
   4   9  10   11.54    1.48 
  -5  -9 -10   18.77    1.96 
   5   9  10   13.39    1.57 
  -6  -9 -10    0.40    0.86 
   6   9  10    1.81    0.79 
  -7  -9 -10    1.31    1.02 
   7   9  10   -0.12    1.12 
  -8  -9 -10    2.86    1.16 
   8   9  10    0.98    1.06 
   3 -10 -10    1.48    1.37 
  -3  10  10   -0.21    1.26 
   2 -10 -10    0.21    1.22 
  -2  10  10    0.77    1.16 
   1 -10 -10    9.76    1.87 
  -1  10  10    8.05    1.42 
   0 -10 -10    1.76    1.18 
   0  10  10    2.66    0.94 
  -1 -10 -10    3.14    1.27 
   1  10  10    5.81    1.14 
  -2 -10 -10    1.88    1.12 
   2  10  10    2.36    0.93 
  -3 -10 -10    1.86    1.00 
   3  10  10    1.60    0.94 
  -4 -10 -10   -0.27    0.90 
   4  10  10   -1.65    0.71 
   5  10  10   -0.36    0.71 
   1 -11 -10   19.01    2.44 
  -1  11  10   16.14    2.04 
   0 -11 -10    8.25    1.86 
   0  11  10   12.63    1.79 
  -1 -11 -10    0.07    1.11 
   1  11  10    1.64    0.95 
  -2 -11 -10    8.57    1.72 
   2  11  10    9.48    1.49 
  -3 -11 -10    0.78    1.06 
   3  11  10    0.47    0.84 
  -4 -11 -10   -0.47    1.22 
   4  11  10    0.51    0.74 
  -5 -11 -10    1.60    1.48 
   5  11  10    0.13    0.90 
   2   5 -11    1.57    1.18 
  -2  -5  11    0.75    1.05 
   1   5 -11    0.13    1.14 
  -1  -5  11   -0.75    0.95 
   0   5 -11    3.27    1.23 
   0  -5  11    4.58    1.20 
  -1   5 -11   18.05    2.08 
   1  -5  11   13.76    2.22 
  -2   5 -11    6.44    1.39 
   2  -5  11    5.00    1.38 
  -3   5 -11    0.00    1.02 
   3  -5  11   -1.71    0.92 
   2   4 -11    0.85    1.02 
  -2  -4  11    2.32    1.08 
   1   4 -11    0.47    1.01 
  -1  -4  11    0.25    0.78 
   0   4 -11    8.11    1.49 
   0  -4  11    5.63    1.24 
  -1   4 -11    2.11    1.01 
   1  -4  11    0.71    0.92 
  -2   4 -11    1.41    1.02 
   2  -4  11    1.90    1.00 
  -3   4 -11    0.91    0.89 
   3  -4  11    0.64    0.94 
  -4   4 -11   14.46    2.01 
   4  -4  11   10.53    1.88 
  -5   4 -11    0.91    1.25 
   5  -4  11    2.44    1.04 
   5   3 -11    3.81    1.78 
  -5  -3  11    5.30    1.49 
  -4  -3  11    0.72    1.25 
   3   3 -11    1.60    1.06 
  -3  -3  11    2.86    1.29 
   2   3 -11    0.42    0.93 
  -2  -3  11    1.14    0.91 
   1   3 -11    0.28    0.90 
  -1  -3  11    0.79    0.84 
  -1  -3  11    0.16    0.70 
   0   3 -11    5.51    1.24 
   0  -3  11    8.38    1.42 
   0  -3  11   11.75    1.47 
  -1   3 -11    4.98    1.25 
   1  -3  11    8.80    1.22 
   1  -3  11    4.54    1.15 
  -2   3 -11    3.53    1.09 
   2  -3  11    3.64    1.14 
   2  -3  11    6.69    1.19 
  -3   3 -11    1.79    0.97 
   3  -3  11    0.39    0.84 
   3  -3  11    2.32    1.26 
  -4   3 -11   -0.32    0.99 
   4  -3  11   -0.74    0.79 
  -5   3 -11    2.52    1.22 
   5  -3  11    2.31    1.09 
  -6   3 -11    1.27    1.32 
   6  -3  11    0.14    1.05 
  -7   3 -11    5.27    1.55 
   7  -3  11    3.58    1.33 
   5   2 -11    4.76    1.86 
  -5  -2  11    6.73    1.43 
   4   2 -11    1.47    1.42 
  -4  -2  11    1.47    1.07 
   3   2 -11    1.43    0.91 
  -3  -2  11    1.71    0.89 
   2   2 -11    2.58    1.03 
  -2  -2  11    3.00    0.86 
   1   2 -11    0.38    0.81 
  -1  -2  11    1.79    0.80 
  -1  -2  11    1.52    0.78 
   0   2 -11    6.66    1.35 
   0  -2  11    5.13    1.08 
   0  -2  11    5.70    1.13 
  -1   2 -11    1.54    0.86 
   1  -2  11    0.73    0.80 
   1  -2  11    1.05    0.85 
  -2   2 -11    0.75    0.79 
   2  -2  11   -0.44    0.66 
   2  -2  11    1.11    0.79 
  -3   2 -11   -0.56    0.65 
   3  -2  11    0.61    0.81 
   3  -2  11    0.06    0.68 
  -4   2 -11   14.42    1.87 
   4  -2  11   13.51    1.91 
   4  -2  11   18.83    1.88 
  -5   2 -11    8.86    1.57 
   5  -2  11    7.13    1.48 
   5  -2  11    9.35    1.47 
  -6   2 -11    3.46    1.18 
   6  -2  11    2.74    1.05 
   6  -2  11    2.68    1.08 
  -7   2 -11    0.76    1.03 
  -7   2 -11   -0.46    0.85 
   7  -2  11    1.17    0.98 
   8  -2  11   -0.06    0.97 
   6   1 -11    1.82    1.68 
  -6  -1  11    0.18    1.16 
   5   1 -11   -0.43    1.34 
  -5  -1  11    0.29    1.13 
   4   1 -11    1.58    0.97 
   4   1 -11    1.11    1.23 
  -4  -1  11   -0.79    0.98 
   3   1 -11   19.28    1.93 
  -3  -1  11   21.29    2.05 
   2   1 -11    0.45    0.79 
  -2  -1  11    0.37    0.70 
   1   1 -11   15.91    1.82 
  -1  -1  11   16.19    1.61 
   0   1 -11    2.19    0.85 
   0  -1  11    5.43    0.92 
   0  -1  11    2.45    0.74 
  -1   1 -11    5.98    1.12 
   1  -1  11    5.14    1.02 
   1  -1  11    6.30    1.05 
  -2   1 -11    6.48    1.24 
   2  -1  11    6.76    1.17 
   2  -1  11    5.59    1.23 
  -3   1 -11    1.05    0.83 
   3  -1  11    0.08    0.67 
   3  -1  11    0.59    0.73 
  -4   1 -11    1.62    0.96 
   4  -1  11   -0.30    0.69 
   4  -1  11   -0.02    0.71 
  -5   1 -11    5.62    1.28 
   5  -1  11    2.88    0.98 
   5  -1  11    3.86    1.08 
  -6   1 -11    4.67    1.24 
   6  -1  11    3.50    1.07 
  -7   1 -11    3.89    1.24 
  -7   1 -11    0.94    0.75 
   7  -1  11    1.46    0.96 
  -8   1 -11    8.93    1.70 
  -8   1 -11    7.06    1.32 
   8  -1  11    4.39    1.27 
   6   0 -11    0.48    1.43 
  -6   0  11    0.71    1.11 
   5   0 -11   -0.87    1.32 
  -5   0  11   -0.23    1.08 
   4   0 -11   -0.57    1.13 
   4   0 -11    0.21    0.83 
  -4   0  11    0.79    0.93 
   3   0 -11    0.51    0.76 
   3   0 -11    0.11    1.05 
  -3   0  11   -0.31    0.66 
   2   0 -11   15.32    1.74 
  -2   0  11   16.98    1.73 
   1   0 -11    4.78    1.08 
  -1   0  11    7.39    1.12 
   0   0 -11    2.04    0.79 
   0   0  11    3.69    0.86 
  -1   0 -11    0.10    0.57 
   1   0  11    1.14    0.65 
   1   0  11   -0.22    0.48 
  -2   0 -11   16.15    1.83 
   2   0  11   17.58    1.79 
   2   0  11   13.56    1.62 
  -3   0 -11    1.55    0.79 
   3   0  11   -0.21    0.70 
   3   0  11    0.51    0.76 
  -4   0 -11  101.17    4.21 
   4   0  11  100.60    4.38 
   4   0  11  116.47    4.27 
  -5   0 -11   31.68    2.28 
   5   0  11   27.90    2.18 
   5   0  11   32.17    2.15 
  -6   0 -11    5.90    1.16 
  -6   0 -11    8.38    1.47 
   6   0  11    4.90    1.19 
  -7   0 -11    0.51    0.68 
  -7   0 -11    0.33    0.97 
   7   0  11   -1.30    0.66 
  -8   0 -11    0.89    1.14 
  -8   0 -11   -0.13    0.67 
   8   0  11    0.53    0.82 
  -9   0 -11    3.04    1.08 
  -9   0 -11    4.90    1.47 
   9   0  11    3.34    1.16 
   6  -1 -11    1.58    1.53 
  -6   1  11    2.65    1.22 
   5  -1 -11    3.60    1.49 
  -5   1  11    2.24    1.16 
   4  -1 -11   29.28    2.11 
   4  -1 -11   32.43    2.54 
  -4   1  11   31.44    2.20 
   3  -1 -11   32.53    2.22 
   3  -1 -11   27.89    2.26 
  -3   1  11   29.77    2.07 
   2  -1 -11    8.15    1.26 
   2  -1 -11   11.81    1.49 
  -2   1  11   11.11    1.41 
   1  -1 -11    1.19    0.79 
  -1   1  11    2.43    0.76 
   0  -1 -11    2.43    0.81 
   0   1  11    5.11    1.06 
  -1  -1 -11    4.48    0.96 
   1   1  11    3.63    0.84 
  -2  -1 -11   -0.46    0.57 
   2   1  11    0.47    0.63 
   2   1  11   -0.80    0.51 
  -3  -1 -11    1.35    0.76 
   3   1  11    0.81    0.65 
   3   1  11    0.38    0.53 
  -4  -1 -11   16.37    1.87 
   4   1  11   20.23    1.93 
   4   1  11   17.76    1.98 
  -5  -1 -11    7.82    1.25 
   5   1  11    6.38    1.25 
   5   1  11    7.18    1.20 
  -6  -1 -11    9.58    1.42 
  -6  -1 -11    9.09    1.45 
   6   1  11    7.12    1.31 
  -7  -1 -11    1.94    0.90 
  -7  -1 -11    0.27    0.59 
   7   1  11    1.06    0.77 
  -8  -1 -11    0.47    0.93 
  -8  -1 -11   -0.16    0.63 
   8   1  11    0.75    0.91 
  -9  -1 -11    3.75    1.63 
  -9  -1 -11    2.31    1.00 
   9   1  11    2.06    1.02 
   7  -2 -11   -0.56    1.41 
  -7   2  11    3.06    1.46 
   6  -2 -11    1.63    1.43 
  -6   2  11    1.19    1.18 
   5  -2 -11    4.91    1.56 
   5  -2 -11    3.53    1.06 
  -5   2  11    4.63    1.39 
   4  -2 -11   -0.99    1.00 
   4  -2 -11   -0.46    0.74 
  -4   2  11    0.70    0.78 
   3  -2 -11   11.47    1.72 
   3  -2 -11   15.06    1.68 
  -3   2  11   11.85    1.47 
   2  -2 -11   27.29    2.05 
   2  -2 -11   21.79    1.88 
  -2   2  11   23.71    1.80 
   1  -2 -11    1.03    0.71 
  -1   2  11    0.65    0.66 
   0  -2 -11    0.31    0.56 
   0   2  11    0.45    0.61 
  -1  -2 -11    5.50    1.12 
   1   2  11    5.67    1.00 
  -2  -2 -11   10.74    1.49 
   2   2  11    8.21    1.19 
  -3  -2 -11    0.68    0.77 
   3   2  11    2.15    0.70 
   3   2  11    1.95    0.72 
  -4  -2 -11    6.04    1.22 
   4   2  11    4.73    0.96 
   4   2  11    6.05    1.14 
  -5  -2 -11   20.67    1.78 
   5   2  11   20.03    2.15 
   5   2  11   22.52    1.72 
  -6  -2 -11    2.79    1.00 
  -6  -2 -11    2.76    0.84 
   6   2  11    1.83    0.89 
  -7  -2 -11   11.17    1.55 
  -7  -2 -11   10.12    1.51 
   7   2  11    8.42    1.54 
  -8  -2 -11    6.08    1.25 
  -8  -2 -11    4.12    1.20 
   8   2  11    4.78    1.29 
  -9  -2 -11   10.37    1.65 
   9   2  11    9.36    1.75 
   6  -3 -11    5.35    1.70 
  -6   3  11    6.50    1.58 
   5  -3 -11    1.21    1.22 
   5  -3 -11    1.06    0.83 
  -5   3  11    1.19    1.02 
   4  -3 -11    3.45    1.27 
   4  -3 -11    2.66    0.93 
  -4   3  11    3.55    0.96 
   3  -3 -11    0.27    0.97 
   3  -3 -11   -0.12    0.70 
  -3   3  11    0.97    0.69 
   2  -3 -11   31.21    2.10 
   2  -3 -11   34.79    2.41 
  -2   3  11   35.78    2.20 
   1  -3 -11    0.88    0.69 
   1  -3 -11   -0.31    0.82 
  -1   3  11   -0.88    0.49 
   0  -3 -11    1.67    0.78 
   0   3  11    1.39    0.70 
  -1  -3 -11   13.58    1.63 
   1   3  11   13.82    1.50 
  -2  -3 -11   19.55    1.96 
   2   3  11   17.80    1.78 
  -3  -3 -11    5.45    1.11 
   3   3  11    3.84    0.91 
  -4  -3 -11    0.74    0.72 
   4   3  11    0.58    0.54 
   4   3  11    0.45    0.58 
  -5  -3 -11    1.69    0.80 
   5   3  11    0.67    0.60 
  -6  -3 -11   22.30    2.15 
  -6  -3 -11   20.09    2.05 
   6   3  11   20.62    1.83 
  -7  -3 -11    0.03    0.56 
  -7  -3 -11    1.09    0.90 
   7   3  11   -0.27    0.72 
  -8  -3 -11    0.55    0.92 
  -8  -3 -11   -0.30    0.64 
   8   3  11    0.02    0.69 
  -9  -3 -11    0.63    0.81 
   9   3  11    0.46    0.82 
   6  -4 -11   -0.75    1.32 
  -6   4  11    3.21    1.27 
   5  -4 -11    0.96    0.90 
   5  -4 -11   -1.61    1.16 
  -5   4  11    0.79    0.94 
   4  -4 -11    1.60    1.16 
   4  -4 -11    2.83    0.90 
  -4   4  11    0.33    0.60 
   3  -4 -11    0.84    0.95 
   3  -4 -11    0.97    0.76 
  -3   4  11    1.79    0.69 
   2  -4 -11   29.67    2.24 
   2  -4 -11   27.98    1.96 
  -2   4  11   29.51    1.95 
   1  -4 -11    2.59    0.78 
   1  -4 -11    2.11    1.00 
  -1   4  11    0.96    0.60 
   0  -4 -11    3.12    0.86 
   0   4  11    3.40    0.82 
  -1  -4 -11    0.30    0.60 
   1   4  11    0.81    0.52 
  -2  -4 -11    0.18    0.65 
   2   4  11    0.42    0.46 
  -3  -4 -11    9.34    1.48 
   3   4  11    3.83    0.77 
  -4  -4 -11   10.66    1.53 
   4   4  11   10.40    1.38 
   4   4  11   11.41    1.42 
  -5  -4 -11   18.25    1.96 
   5   4  11   15.52    1.71 
   5   4  11   16.47    1.94 
  -6  -4 -11    1.87    0.86 
  -6  -4 -11    0.91    0.78 
   6   4  11    2.02    0.77 
  -7  -4 -11    2.31    0.99 
  -7  -4 -11    1.63    0.85 
   7   4  11    0.85    0.74 
  -8  -4 -11    1.33    0.87 
  -8  -4 -11    2.09    1.06 
   8   4  11    1.08    0.83 
  -9  -4 -11   20.29    2.29 
   9   4  11   17.61    2.39 
   6  -5 -11   -0.75    1.50 
  -6   5  11    2.30    1.22 
   5  -5 -11    1.46    0.95 
   5  -5 -11    1.75    1.39 
  -5   5  11    1.97    1.04 
   4  -5 -11    2.85    1.28 
   4  -5 -11    0.66    0.77 
  -4   5  11    0.48    0.66 
   3  -5 -11    2.10    0.88 
   3  -5 -11    0.93    1.03 
  -3   5  11    1.10    0.64 
   2  -5 -11    1.12    0.76 
   2  -5 -11   -0.12    0.91 
  -2   5  11    1.78    0.67 
   1  -5 -11   10.49    1.42 
   1  -5 -11   12.42    1.61 
  -1   5  11   12.03    1.43 
   0  -5 -11    4.35    0.95 
   0  -5 -11    3.32    0.88 
   0   5  11    2.02    0.74 
  -1  -5 -11    8.15    1.27 
   1   5  11    6.66    1.06 
  -2  -5 -11    2.31    0.82 
   2   5  11    1.19    0.58 
  -3  -5 -11    3.01    0.94 
   3   5  11    2.35    0.71 
  -4  -5 -11    0.03    0.61 
   4   5  11    0.21    0.42 
  -5  -5 -11    4.02    1.11 
   5   5  11    4.45    0.91 
   5   5  11    4.24    1.00 
  -6  -5 -11    1.12    0.70 
  -6  -5 -11   -0.11    0.73 
   6   5  11    1.61    0.80 
  -7  -5 -11    8.19    1.40 
  -7  -5 -11    9.28    1.47 
   7   5  11    9.93    1.66 
  -8  -5 -11    1.47    0.86 
   8   5  11   -1.31    0.60 
  -9  -5 -11    4.00    1.29 
   9   5  11    3.17    1.16 
   6  -6 -11   10.54    2.09 
  -6   6  11    9.81    1.75 
  -6   6  11    8.86    1.82 
   5  -6 -11    7.20    1.35 
   5  -6 -11    5.26    1.87 
  -5   6  11    7.36    1.61 
   4  -6 -11    1.54    0.86 
   4  -6 -11    1.84    1.34 
  -4   6  11    3.57    1.04 
   3  -6 -11    0.70    0.72 
   3  -6 -11    0.03    1.02 
  -3   6  11    0.07    0.60 
   2  -6 -11    0.23    0.64 
   2  -6 -11    0.86    0.96 
  -2   6  11    0.35    0.60 
   1  -6 -11    0.67    0.84 
   1  -6 -11   -0.39    0.55 
  -1   6  11    1.08    0.55 
   0  -6 -11    0.41    0.66 
   0  -6 -11   -0.72    0.71 
   0   6  11    0.70    0.48 
  -1  -6 -11    3.40    0.92 
  -1  -6 -11    4.04    1.06 
   1   6  11    3.45    0.77 
  -2  -6 -11   35.28    2.16 
   2   6  11   31.30    2.02 
  -3  -6 -11    1.31    0.76 
   3   6  11    0.60    0.63 
  -4  -6 -11   -0.63    0.66 
   4   6  11    0.40    0.46 
  -5  -6 -11    1.73    0.83 
   5   6  11    2.67    0.84 
  -6  -6 -11   15.22    1.88 
  -6  -6 -11   16.14    1.80 
   6   6  11   14.74    1.94 
  -7  -6 -11    2.21    0.98 
  -7  -6 -11    4.55    1.17 
   7   6  11    2.18    0.96 
  -8  -6 -11   10.61    1.68 
   8   6  11    4.86    1.30 
  -9  -6 -11   36.47    2.70 
   9   6  11   41.03    2.90 
   5  -7 -11   -0.17    1.36 
  -5   7  11    1.28    1.27 
  -5   7  11    0.05    1.27 
   4  -7 -11   -1.28    1.25 
  -4   7  11    3.63    1.06 
   3  -7 -11    2.96    0.96 
   3  -7 -11    3.12    1.25 
  -3   7  11    1.22    0.79 
   2  -7 -11   -0.15    0.75 
   2  -7 -11    1.11    1.01 
  -2   7  11    0.69    0.66 
   1  -7 -11    1.68    0.95 
   1  -7 -11    1.38    0.79 
  -1   7  11    1.11    0.65 
   0  -7 -11   -0.24    0.82 
   0  -7 -11    0.45    0.64 
   0   7  11   -0.46    0.46 
  -1  -7 -11   42.88    2.51 
  -1  -7 -11   42.26    2.49 
   1   7  11   41.54    2.37 
  -2  -7 -11   22.01    1.81 
   2   7  11   14.25    1.59 
  -3  -7 -11    3.16    1.03 
   3   7  11    1.34    0.62 
  -4  -7 -11    6.84    1.32 
   4   7  11    4.56    0.95 
  -5  -7 -11    0.42    0.77 
   5   7  11    0.90    0.57 
  -6  -7 -11    0.46    0.87 
  -7  -7 -11    0.72    0.95 
  -7  -7 -11    0.42    0.88 
   7   7  11    0.23    0.82 
  -8  -7 -11   13.23    1.77 
   8   7  11   12.01    1.89 
   4  -8 -11   16.18    2.24 
  -4   8  11   14.76    1.98 
  -4   8  11   15.13    2.11 
   3  -8 -11    6.21    1.60 
  -3   8  11    3.28    0.97 
   2  -8 -11    1.45    1.22 
   2  -8 -11    1.85    0.93 
  -2   8  11    2.99    0.82 
   1  -8 -11   -1.19    0.84 
   1  -8 -11    0.33    0.68 
  -1   8  11    0.11    0.58 
   0  -8 -11    3.52    1.13 
   0  -8 -11    4.40    1.21 
   0   8  11    1.82    0.85 
  -1  -8 -11   45.78    2.68 
  -1  -8 -11   48.18    2.71 
   1   8  11   39.31    2.41 
  -2  -8 -11    0.53    0.82 
  -2  -8 -11    0.02    0.80 
   2   8  11    0.30    0.57 
  -3  -8 -11    2.48    0.93 
   3   8  11    0.91    0.66 
  -4  -8 -11    0.38    0.92 
   4   8  11    0.14    0.59 
  -5  -8 -11    0.13    0.81 
   5   8  11   -0.15    0.61 
  -6  -8 -11   -0.47    0.78 
   6   8  11   -0.45    0.63 
  -7  -8 -11    3.08    1.21 
  -8  -8 -11    6.35    1.41 
   8   8  11    6.68    1.47 
   3  -9 -11    3.28    1.50 
  -3   9  11    7.22    1.36 
  -3   9  11    5.90    1.55 
   2  -9 -11    0.36    1.26 
  -2   9  11   -0.43    0.74 
  -2   9  11   -0.60    1.19 
   1  -9 -11   -0.29    1.11 
  -1   9  11    0.91    0.67 
   0  -9 -11    0.84    1.04 
   0  -9 -11    1.99    1.18 
   0   9  11    1.32    0.71 
  -1  -9 -11    1.84    0.99 
  -1  -9 -11    1.44    0.96 
   1   9  11    1.09    0.64 
  -2  -9 -11   -0.39    0.82 
  -2  -9 -11    0.19    0.86 
   2   9  11    0.29    0.65 
  -3  -9 -11    1.37    0.95 
   3   9  11    0.53    0.65 
  -4  -9 -11   -0.16    0.86 
   4   9  11   -0.71    0.63 
  -5  -9 -11   12.14    1.68 
   5   9  11   11.90    1.74 
  -6  -9 -11    0.23    0.93 
   6   9  11    1.56    0.78 
   7   9  11    0.22    0.79 
   2 -10 -11    8.43    1.77 
  -2  10  11    7.58    1.69 
   1 -10 -11    4.34    1.49 
  -1  10  11   10.50    1.56 
   0 -10 -11    0.71    1.15 
   0  10  11   -0.20    0.78 
  -1 -10 -11    5.02    1.49 
   1  10  11    8.41    1.60 
  -2 -10 -11    3.20    1.27 
   2  10  11    0.35    1.03 
  -3 -10 -11    2.01    1.15 
  -2 -11 -11    6.86    1.75 
   2  11  11    8.19    1.48 
   1   4 -12   -1.61    1.02 
   0   4 -12   -0.28    1.04 
   0  -4  12    0.32    0.97 
  -1   4 -12   -1.00    1.02 
   1  -4  12    0.36    0.99 
  -2   4 -12    1.98    1.07 
   2  -4  12    1.57    1.09 
  -3   4 -12    9.02    1.58 
   3  -4  12    5.70    1.51 
   2   3 -12    4.22    1.25 
   1   3 -12   -0.47    0.87 
   0   3 -12    5.07    1.34 
   0  -3  12    3.66    1.15 
  -1   3 -12    1.68    0.94 
   1  -3  12    1.23    0.86 
  -2   3 -12    1.54    1.10 
   2  -3  12    1.46    0.98 
  -3   3 -12   10.50    1.74 
   3  -3  12    7.41    1.44 
  -4   3 -12    4.90    1.53 
   4  -3  12    4.55    1.40 
  -5   3 -12    1.05    1.24 
   5  -3  12   -0.50    1.07 
  -4  -2  12    2.71    1.37 
   3   2 -12    1.43    1.05 
  -3  -2  12    2.02    1.14 
   2   2 -12    1.39    0.96 
  -2  -2  12   -0.03    0.85 
   1   2 -12    0.83    0.95 
  -1  -2  12    0.65    0.85 
   0   2 -12    1.59    0.99 
   0  -2  12    2.30    0.91 
  -1   2 -12   -0.33    0.85 
   1  -2  12    1.61    0.89 
   1  -2  12   -1.01    0.72 
  -2   2 -12    0.75    0.93 
   2  -2  12    2.65    1.02 
   2  -2  12    0.60    0.87 
  -3   2 -12    4.10    1.22 
   3  -2  12    2.68    1.02 
   3  -2  12    3.69    1.16 
  -4   2 -12    0.96    1.18 
   4  -2  12   -0.19    0.90 
   4  -2  12    0.81    0.90 
  -5   2 -12    1.24    1.24 
   5  -2  12    1.17    1.06 
   5  -2  12    2.27    1.04 
  -6   2 -12    2.00    1.40 
   6  -2  12    0.23    1.09 
   6  -2  12    0.39    1.14 
  -4  -1  12    0.75    1.28 
   3   1 -12   -0.47    0.96 
  -3  -1  12    0.21    0.96 
   2   1 -12    1.45    0.94 
  -2  -1  12   -0.03    0.86 
   1   1 -12    1.20    0.89 
  -1  -1  12   -0.83    0.81 
   0   1 -12   18.15    2.07 
   0  -1  12   14.35    1.71 
  -1   1 -12    5.99    1.27 
   1  -1  12    5.05    1.17 
   1  -1  12    4.87    1.16 
  -2   1 -12    4.47    1.21 
   2  -1  12    3.09    1.04 
   2  -1  12    3.88    1.05 
  -3   1 -12    0.23    0.84 
   3  -1  12    0.32    0.77 
   3  -1  12    1.99    1.03 
  -4   1 -12   17.86    2.17 
   4  -1  12   19.74    2.13 
   4  -1  12   15.50    2.11 
  -5   1 -12   30.71    2.45 
   5  -1  12   21.56    2.54 
   5  -1  12   30.64    2.34 
  -6   1 -12    2.42    1.21 
   6  -1  12    4.11    1.16 
   6  -1  12    1.32    1.10 
  -7   1 -12    6.43    1.60 
   7  -1  12    7.15    1.61 
   5   0 -12    9.88    2.07 
  -5   0  12    7.63    1.73 
   4   0 -12    2.24    1.22 
  -4   0  12    4.78    1.47 
   3   0 -12    5.55    1.25 
  -3   0  12    6.03    1.29 
   2   0 -12    1.48    0.97 
  -2   0  12    5.50    1.20 
   1   0 -12    0.02    0.81 
  -1   0  12   -0.29    0.70 
   0   0 -12    0.53    0.75 
   0   0  12    1.87    0.79 
  -1   0 -12   -0.64    0.73 
   1   0  12   -0.87    0.71 
  -2   0 -12    2.70    0.95 
   2   0  12    2.63    0.93 
   2   0  12    2.99    0.87 
  -3   0 -12    3.77    1.08 
   3   0  12    3.12    0.99 
   3   0  12    1.74    0.92 
  -4   0 -12    5.61    1.31 
   4   0  12    6.16    1.29 
   4   0  12    5.73    1.30 
  -5   0 -12   32.32    2.43 
   5   0  12   35.79    2.59 
   5   0  12   35.47    2.51 
  -6   0 -12    1.83    1.04 
   6   0  12    0.68    0.86 
   6   0  12    1.61    1.07 
  -7   0 -12    0.70    0.84 
  -7   0 -12    1.41    1.13 
   7   0  12    1.68    0.90 
  -8   0 -12    0.23    0.89 
  -8   0 -12    0.30    1.10 
   8   0  12   -0.80    1.13 
   5  -1 -12    0.04    1.41 
  -5   1  12    1.02    1.22 
   4  -1 -12   20.90    2.42 
   4  -1 -12   19.78    2.06 
  -4   1  12   21.09    2.25 
   3  -1 -12   30.96    2.35 
  -3   1  12   32.30    2.29 
   2  -1 -12   12.20    1.71 
  -2   1  12   10.53    1.48 
   1  -1 -12    4.05    1.09 
  -1   1  12    3.35    0.97 
   0  -1 -12    0.05    0.78 
   0   1  12    1.26    0.71 
  -1  -1 -12    1.72    0.76 
   1   1  12    2.98    0.91 
  -2  -1 -12    2.52    0.83 
   2   1  12    3.46    0.92 
  -3  -1 -12   11.53    1.61 
   3   1  12   11.88    1.62 
   3   1  12    9.09    1.42 
  -4  -1 -12    0.87    0.87 
   4   1  12    1.39    0.76 
   4   1  12    0.35    0.68 
  -5  -1 -12   27.56    2.19 
   5   1  12   28.35    2.13 
   5   1  12   23.12    2.05 
  -6  -1 -12    2.37    1.02 
   6   1  12    1.68    0.88 
   6   1  12    0.15    0.78 
  -7  -1 -12    0.72    1.00 
  -7  -1 -12    1.33    0.85 
   7   1  12    1.54    0.99 
  -8  -1 -12    1.22    1.11 
  -8  -1 -12    0.84    0.85 
   8   1  12    1.86    0.92 
   5  -2 -12    2.98    1.52 
  -5   2  12    1.89    1.31 
   4  -2 -12    1.19    0.97 
   4  -2 -12    0.57    1.10 
  -4   2  12   -0.22    0.87 
   3  -2 -12    1.55    0.90 
   3  -2 -12    2.44    1.20 
  -3   2  12    3.16    0.98 
   2  -2 -12   12.77    1.78 
  -2   2  12   12.73    1.56 
   1  -2 -12    8.13    1.44 
  -1   2  12    9.07    1.30 
   0  -2 -12    3.23    0.91 
   0   2  12    3.80    1.02 
  -1  -2 -12    3.97    1.10 
   1   2  12    8.68    1.38 
  -2  -2 -12    0.89    0.77 
   2   2  12    1.48    0.76 
  -3  -2 -12    1.80    0.87 
   3   2  12    1.02    0.77 
  -4  -2 -12    0.11    0.84 
   4   2  12    0.59    0.72 
   4   2  12    0.12    0.64 
  -5  -2 -12    0.03    0.91 
   5   2  12   -0.13    0.67 
   5   2  12   -0.58    0.60 
  -6  -2 -12    2.53    1.08 
   6   2  12    1.92    0.86 
   6   2  12    2.00    0.94 
  -7  -2 -12    0.88    0.71 
  -7  -2 -12    0.09    0.97 
   7   2  12    0.71    0.79 
  -8  -2 -12    1.12    0.83 
  -8  -2 -12   -0.89    1.12 
   8   2  12    0.94    0.91 
   5  -3 -12    0.75    0.95 
   5  -3 -12    1.47    1.44 
  -5   3  12    0.80    1.26 
   4  -3 -12   -0.42    1.14 
   4  -3 -12   -0.35    0.89 
  -4   3  12    1.31    0.97 
   3  -3 -12   15.70    1.97 
   3  -3 -12   14.62    1.76 
  -3   3  12   16.45    1.86 
   2  -3 -12    8.20    1.40 
  -2   3  12    8.70    1.32 
   1  -3 -12   14.64    1.85 
  -1   3  12   12.99    1.62 
   0  -3 -12   22.22    1.91 
   0   3  12   24.30    1.89 
  -1  -3 -12   44.85    2.67 
   1   3  12   46.84    2.59 
  -2  -3 -12    8.08    1.34 
   2   3  12    7.37    1.21 
  -3  -3 -12    3.09    0.94 
   3   3  12    3.70    1.01 
  -4  -3 -12    1.29    0.97 
   4   3  12    1.11    0.95 
   4   3  12    0.21    0.69 
  -5  -3 -12   -0.11    0.77 
   5   3  12    0.23    0.62 
   5   3  12    0.08    0.63 
  -6  -3 -12   -0.12    0.82 
   6   3  12   -0.86    0.65 
  -7  -3 -12   -0.46    0.65 
  -7  -3 -12    0.08    0.96 
   7   3  12   -0.29    0.66 
  -8  -3 -12    8.57    1.63 
  -8  -3 -12    4.01    1.11 
   8   3  12    5.27    1.31 
   5  -4 -12    3.06    1.62 
   5  -4 -12    2.60    1.07 
  -5   4  12    6.94    1.52 
   4  -4 -12    0.71    0.90 
   4  -4 -12    2.11    1.38 
  -4   4  12   -0.32    0.70 
   3  -4 -12    0.92    0.96 
   3  -4 -12    0.57    1.09 
  -3   4  12    1.08    0.68 
   2  -4 -12    2.50    1.15 
   2  -4 -12    1.81    0.86 
  -2   4  12    3.31    0.83 
   1  -4 -12   14.90    1.79 
  -1   4  12   16.10    1.77 
   0  -4 -12    5.33    1.19 
   0   4  12    4.15    0.86 
  -1  -4 -12    0.84    0.70 
   1   4  12    2.25    0.69 
  -2  -4 -12    2.95    1.04 
   2   4  12    2.97    0.80 
  -3  -4 -12    9.79    1.70 
   3   4  12    8.15    1.24 
  -4  -4 -12    3.96    1.15 
   4   4  12    2.65    0.77 
  -5  -4 -12   -0.99    0.71 
   5   4  12    0.94    0.51 
   5   4  12    1.35    0.73 
  -6  -4 -12    1.18    0.97 
   6   4  12    0.99    0.58 
   6   4  12    1.48    0.84 
  -7  -4 -12    2.52    1.00 
  -7  -4 -12    2.94    1.18 
   7   4  12    2.19    0.93 
  -8  -4 -12    3.71    1.37 
  -8  -4 -12    1.26    0.87 
   8   4  12    2.14    0.95 
   5  -5 -12   -0.57    1.30 
   5  -5 -12    0.48    1.04 
  -5   5  12    2.71    1.25 
   4  -5 -12    0.25    0.90 
   4  -5 -12    1.02    1.26 
  -4   5  12   -0.75    0.66 
   3  -5 -12    3.33    1.49 
   3  -5 -12    3.38    0.99 
  -3   5  12    2.76    0.80 
   2  -5 -12   12.51    1.66 
   2  -5 -12   14.73    1.94 
  -2   5  12   13.47    1.56 
   1  -5 -12    0.22    1.04 
   1  -5 -12    2.01    0.86 
  -1   5  12    1.10    0.66 
   0  -5 -12   -0.89    0.64 
   0   5  12    0.25    0.48 
  -1  -5 -12    1.07    0.75 
   1   5  12    1.62    0.72 
  -2  -5 -12   13.36    1.71 
   2   5  12    9.46    1.33 
  -3  -5 -12    1.66    0.92 
   3   5  12    1.38    0.70 
  -4  -5 -12    5.09    1.26 
   4   5  12    5.49    1.09 
  -5  -5 -12    0.90    0.86 
   5   5  12    0.75    0.53 
  -6  -5 -12    0.37    0.93 
   6   5  12    0.01    0.68 
   6   5  12    0.76    0.64 
  -7  -5 -12    1.59    1.24 
  -7  -5 -12    2.05    1.08 
   7   5  12    2.37    0.97 
  -8  -5 -12    7.58    1.54 
   8   5  12    3.94    1.28 
   5  -6 -12   -2.10    1.50 
   4  -6 -12    4.65    1.60 
   4  -6 -12    3.92    1.15 
  -4   6  12    6.51    1.33 
   3  -6 -12    0.53    0.92 
   3  -6 -12    2.47    1.36 
  -3   6  12    1.71    0.75 
   2  -6 -12    1.88    1.26 
   2  -6 -12    2.23    0.88 
  -2   6  12    0.72    0.60 
   1  -6 -12    3.49    1.06 
   1  -6 -12    2.47    0.92 
  -1   6  12    0.54    0.62 
   0  -6 -12    7.16    1.34 
   0   6  12    7.00    1.08 
  -1  -6 -12    1.75    0.85 
   1   6  12   -0.29    0.50 
  -2  -6 -12    5.92    1.19 
   2   6  12    3.05    0.73 
  -3  -6 -12   12.97    1.70 
   3   6  12   12.00    1.48 
  -4  -6 -12   31.16    2.20 
   4   6  12   29.19    2.09 
  -5  -6 -12    5.53    1.22 
   5   6  12    4.56    0.97 
  -6  -6 -12    2.79    1.08 
   6   6  12    0.43    0.64 
  -7  -6 -12    0.94    0.96 
  -7  -6 -12    1.04    1.01 
   7   6  12   -0.01    0.81 
  -8  -6 -12   -0.92    0.87 
   8   6  12   -0.18    0.79 
   4  -7 -12    1.11    1.48 
   4  -7 -12    1.56    1.05 
   3  -7 -12    0.36    0.84 
   3  -7 -12   -0.38    1.28 
  -3   7  12    0.12    0.77 
   2  -7 -12    1.31    0.87 
   2  -7 -12    2.11    1.21 
  -2   7  12    0.04    0.65 
   1  -7 -12    1.90    1.13 
   1  -7 -12    1.54    0.84 
  -1   7  12    2.49    0.82 
   0  -7 -12    0.44    0.91 
   0  -7 -12   -0.48    0.72 
   0   7  12    0.26    0.61 
  -1  -7 -12   20.87    2.14 
   1   7  12   20.38    2.07 
  -2  -7 -12    4.25    1.18 
   2   7  12    1.45    0.67 
  -3  -7 -12    0.38    0.86 
   3   7  12   -0.24    0.60 
  -4  -7 -12    9.35    1.52 
   4   7  12    7.18    1.28 
  -5  -7 -12    2.83    1.21 
   5   7  12    0.92    0.70 
  -6  -7 -12    1.23    1.09 
   6   7  12    0.11    0.66 
  -7  -7 -12    0.51    1.01 
  -8  -7 -12   10.46    1.84 
   8   7  12   10.05    2.47 
   3  -8 -12    1.55    1.31 
  -3   8  12    1.42    0.82 
   2  -8 -12    4.41    1.51 
   2  -8 -12    4.28    1.15 
  -2   8  12    5.67    1.01 
   1  -8 -12    0.11    0.79 
   1  -8 -12   -0.98    1.08 
  -1   8  12    0.67    0.71 
   0  -8 -12    0.64    1.01 
   0  -8 -12    0.82    0.81 
   0   8  12    0.56    0.71 
  -1  -8 -12    1.10    1.08 
   1   8  12    2.63    0.84 
  -2  -8 -12   -0.07    0.86 
   2   8  12    0.28    0.59 
  -3  -8 -12    1.48    1.00 
   3   8  12    1.06    0.75 
  -4  -8 -12    1.93    0.99 
   4   8  12    1.48    0.73 
  -5  -8 -12    1.28    1.03 
   5   8  12    0.75    0.81 
  -6  -8 -12    0.13    0.95 
   6   8  12   -0.50    0.68 
   7   8  12    0.25    0.81 
   2  -9 -12    2.88    1.43 
  -2   9  12    1.54    0.92 
  -2   9  12    1.70    1.60 
   1  -9 -12    2.15    0.97 
   1  -9 -12    3.48    1.48 
  -1   9  12    0.92    0.76 
   0  -9 -12    0.62    1.10 
   0  -9 -12    1.10    1.23 
   0   9  12    1.43    0.77 
  -1  -9 -12   21.74    2.30 
  -1  -9 -12   25.04    2.50 
   1   9  12   18.92    1.91 
  -2  -9 -12    3.57    1.22 
   2   9  12    1.47    0.83 
  -3  -9 -12    8.78    1.61 
   3   9  12    8.93    1.39 
  -4  -9 -12   -0.64    0.89 
   4   9  12   -0.54    0.66 
  -5  -9 -12   14.30    1.85 
   5   9  12   10.78    1.55 
  -6  -9 -12    4.40    1.36 
   6   9  12    4.66    1.16 
   0 -10 -12    0.49    1.34 
   0  10  12    0.19    1.11 
  -1 -10 -12    1.22    1.34 
  -2 -10 -12   -0.10    1.12 
  -3 -10 -12    0.28    1.06 
  -4 -10 -12    3.30    1.29 
   1   2 -13    0.27    1.08 
  -1  -2  13    1.37    1.07 
   0   2 -13    7.30    1.47 
   0  -2  13    6.32    1.47 
  -1   2 -13    6.80    1.38 
   1  -2  13    4.94    1.33 
  -2   2 -13    2.43    1.10 
   2  -2  13    1.29    1.07 
   2  -2  13    1.11    1.26 
  -3   2 -13    2.20    1.17 
   3  -2  13    3.15    1.33 
   3  -2  13    2.41    1.10 
  -4   2 -13    1.05    1.26 
   4  -2  13    0.65    1.22 
   4  -2  13    1.15    1.15 
   3   1 -13    0.80    1.13 
  -3  -1  13    2.42    1.16 
   2   1 -13    0.54    1.08 
  -2  -1  13    2.10    1.03 
   1   1 -13    1.95    1.15 
  -1  -1  13    2.12    1.05 
   0   1 -13    3.66    1.17 
   0  -1  13    3.74    1.20 
  -1   1 -13    7.08    1.55 
   1  -1  13   10.19    1.56 
  -2   1 -13    4.47    1.24 
   2  -1  13    3.70    1.25 
  -3   1 -13    5.32    1.32 
   3  -1  13    7.51    1.52 
   3  -1  13    9.06    1.55 
  -4   1 -13    4.12    1.41 
   4  -1  13    4.55    1.35 
   4  -1  13    3.23    1.35 
  -5   1 -13   12.88    2.01 
   5  -1  13    8.43    1.72 
   5  -1  13   10.53    1.77 
   3   0 -13    4.60    1.37 
  -3   0  13    8.68    1.63 
   2   0 -13    1.52    1.01 
  -2   0  13    1.30    1.07 
   1   0 -13    0.21    0.95 
  -1   0  13   -0.27    0.93 
   0   0 -13    1.04    0.90 
   0   0  13   -0.29    0.96 
  -1   0 -13    1.99    0.91 
   1   0  13    0.73    0.97 
  -2   0 -13    0.70    0.97 
   2   0  13    1.74    0.97 
  -3   0 -13    0.56    0.87 
   3   0  13   -0.32    0.88 
  -4   0 -13    4.72    1.37 
   4   0  13    4.88    1.26 
   4   0  13    3.50    1.21 
  -5   0 -13   11.84    1.89 
   5   0  13   12.96    2.04 
   5   0  13   15.04    1.97 
  -6   0 -13    0.61    1.05 
   6   0  13    1.91    1.07 
   6   0  13    1.84    1.20 
   4  -1 -13    6.95    1.68 
  -4   1  13    6.29    1.70 
   3  -1 -13   18.47    2.09 
  -3   1  13   20.14    2.19 
   2  -1 -13    1.97    1.11 
  -2   1  13    3.18    1.12 
   1  -1 -13    0.20    0.87 
  -1   1  13    0.47    0.88 
   0  -1 -13   -0.10    0.92 
   0   1  13   -0.56    0.72 
  -1  -1 -13    8.17    1.49 
   1   1  13    5.26    1.23 
  -2  -1 -13    1.07    0.89 
   2   1  13    0.63    0.80 
  -3  -1 -13    0.40    1.09 
   3   1  13   -0.47    0.83 
  -4  -1 -13    1.74    1.16 
   4   1  13    2.24    1.19 
   4   1  13    1.28    0.92 
  -5  -1 -13   35.36    2.63 
   5   1  13   29.79    2.42 
   5   1  13   34.76    2.67 
  -6  -1 -13    6.89    1.48 
   6   1  13    4.35    1.32 
   6   1  13    2.74    1.15 
  -7  -1 -13    4.40    1.40 
   7   1  13    3.75    1.19 
   7   1  13    5.61    1.33 
   4  -2 -13   -1.13    1.02 
  -4   2  13   -2.03    1.01 
  -3   2  13   70.43    3.63 
   2  -2 -13   13.96    1.91 
  -2   2  13   16.08    1.90 
   1  -2 -13   -0.07    0.84 
  -1   2  13    0.16    0.86 
   0  -2 -13    1.55    0.86 
   0   2  13    1.95    0.92 
  -1  -2 -13   -0.57    0.74 
   1   2  13   -0.37    0.84 
  -2  -2 -13    4.58    1.26 
   2   2  13    6.42    1.24 
  -3  -2 -13    4.56    1.33 
   3   2  13    2.84    1.01 
  -4  -2 -13    9.79    1.65 
   4   2  13    5.83    1.38 
  -5  -2 -13    1.22    1.02 
   5   2  13    1.00    0.73 
   5   2  13    0.08    0.84 
  -6  -2 -13    5.05    1.34 
   6   2  13    6.43    1.40 
   6   2  13    7.55    1.46 
  -7  -2 -13    3.25    1.30 
   7   2  13    3.50    1.18 
   7   2  13    2.30    1.04 
   4  -3 -13    5.52    1.39 
  -4   3  13    3.90    1.34 
   3  -3 -13   -0.18    0.95 
  -3   3  13    1.54    1.06 
   2  -3 -13    1.73    1.01 
  -2   3  13    0.61    0.93 
   1  -3 -13    0.09    0.89 
  -1   3  13   -0.02    0.80 
   0  -3 -13    0.87    0.85 
   0   3  13    0.99    0.73 
  -1  -3 -13    4.46    1.26 
   1   3  13    6.00    1.25 
  -2  -3 -13    0.42    0.82 
   2   3  13    0.32    0.72 
  -3  -3 -13    3.00    1.10 
   3   3  13    2.95    0.96 
  -4  -3 -13    1.41    0.96 
   4   3  13    0.08    0.80 
  -5  -3 -13    2.19    1.16 
   5   3  13    0.65    0.83 
  -6  -3 -13    9.12    1.71 
   6   3  13    9.95    1.63 
   6   3  13    8.03    1.38 
  -7  -3 -13    1.51    1.19 
   7   3  13    2.43    1.11 
   7   3  13    3.21    1.05 
   4  -4 -13    3.79    1.18 
   4  -4 -13    4.27    1.78 
  -4   4  13    2.70    1.02 
   3  -4 -13    0.39    1.06 
  -3   4  13   -0.34    0.72 
   2  -4 -13    7.75    1.37 
  -2   4  13    7.21    1.21 
   1  -4 -13    2.18    0.99 
  -1   4  13    1.68    0.76 
   0  -4 -13    0.03    0.78 
   0   4  13    0.71    0.56 
  -1  -4 -13   -0.49    0.79 
   1   4  13    0.34    0.57 
  -2  -4 -13    0.59    0.95 
   2   4  13    0.15    0.56 
  -3  -4 -13    0.40    0.92 
   3   4  13    0.43    0.62 
  -4  -4 -13    2.21    1.20 
   4   4  13    2.53    0.89 
  -5  -4 -13    1.92    1.13 
   5   4  13    2.57    0.92 
  -6  -4 -13   19.29    2.19 
   6   4  13   16.10    2.08 
  -7  -4 -13   -0.12    1.08 
   7   4  13    0.46    0.94 
   7   4  13    0.34    0.96 
   4  -5 -13    6.38    1.29 
   4  -5 -13    7.63    1.97 
  -4   5  13    4.02    1.16 
   3  -5 -13   -0.83    1.27 
   3  -5 -13   -0.34    0.80 
  -3   5  13   -1.64    0.67 
   2  -5 -13    5.41    1.29 
  -2   5  13    2.64    0.87 
   1  -5 -13    6.90    1.32 
  -1   5  13    3.74    0.92 
   0  -5 -13    7.48    1.40 
   0   5  13    4.60    1.01 
  -1  -5 -13    1.13    0.83 
   1   5  13    0.59    0.68 
  -2  -5 -13    7.85    1.48 
   2   5  13    6.16    1.14 
  -3  -5 -13    4.30    1.27 
   3   5  13    0.82    0.66 
  -4  -5 -13   10.08    1.67 
   4   5  13    4.39    1.13 
  -5  -5 -13   -0.75    0.88 
   5   5  13    2.22    0.81 
  -6  -5 -13    5.28    1.41 
   6   5  13    7.58    1.32 
  -7  -5 -13    0.47    1.11 
   7   5  13    1.62    0.73 
   3  -6 -13    4.61    1.23 
   3  -6 -13    3.09    1.56 
  -3   6  13    6.75    1.19 
   2  -6 -13    5.70    1.29 
  -2   6  13    5.35    1.13 
   1  -6 -13    2.26    1.03 
  -1   6  13    1.82    0.77 
   0  -6 -13    1.73    1.01 
   0   6  13    2.09    0.84 
  -1  -6 -13    2.93    1.12 
   1   6  13    0.76    0.80 
  -2  -6 -13    1.16    0.95 
   2   6  13    0.82    0.68 
  -3  -6 -13   -0.13    0.89 
   3   6  13    0.16    0.65 
  -4  -6 -13    2.84    1.17 
   4   6  13    3.31    1.02 
  -5  -6 -13    3.76    1.20 
   5   6  13    1.72    0.76 
  -6  -6 -13   10.74    1.70 
   6   6  13   10.84    1.60 
  -7  -6 -13    3.70    1.26 
   7   6  13    2.01    0.87 
   2  -7 -13    3.37    1.36 
   2  -7 -13    0.89    0.93 
  -2   7  13    1.18    0.83 
   1  -7 -13    1.10    0.84 
  -1   7  13    1.05    0.84 
   0  -7 -13    3.37    1.10 
   0   7  13    2.33    0.92 
  -1  -7 -13    0.15    0.96 
   1   7  13   -0.23    0.63 
  -2  -7 -13    0.71    1.05 
   2   7  13   -0.13    0.56 
  -3  -7 -13    3.25    1.20 
   3   7  13    3.10    0.84 
  -4  -7 -13    1.35    1.06 
   4   7  13    0.48    0.65 
  -5  -7 -13    1.66    1.06 
   5   7  13    1.09    0.76 
  -6  -7 -13    0.39    1.06 
   6   7  13    0.58    0.78 
   1  -8 -13    8.52    1.39 
  -1   8  13    7.23    1.20 
   0  -8 -13    0.67    0.90 
   0   8  13   -0.55    0.70 
  -1  -8 -13   21.32    2.33 
   1   8  13   23.68    1.88 
  -2  -8 -13   23.36    2.43 
   2   8  13   16.19    1.89 
  -3  -8 -13    5.74    1.41 
   3   8  13    6.41    1.23 
  -4  -8 -13    0.76    1.06 
   4   8  13    0.44    0.75 
  -5  -8 -13    4.89    1.35 
   5   8  13    9.18    1.48 
  -1  -9 -13    3.76    1.53 
   1   9  13    3.46    0.97 
  -2  -9 -13    1.99    1.24 
   2   9  13    0.52    0.86 
  -3  -9 -13    0.93    1.06 
   3   9  13    0.55    0.78 
  -4  -9 -13    0.14    1.00 
   4   9  13    0.37    0.79 
   1   0 -14    6.12    1.62 
  -1   0  14    7.34    1.38 
   0   0 -14    0.33    1.06 
   0   0  14    0.32    1.04 
  -1   0 -14    0.94    1.00 
   1   0  14    0.84    1.01 
  -2   0 -14    0.40    0.93 
   2   0  14   -0.75    1.09 
  -3   0 -14    4.27    1.24 
   3   0  14    2.75    1.27 
  -4   0 -14    0.57    1.27 
   4   0  14    0.24    1.13 
  -2   1  14   42.32    2.97 
   1  -1 -14    0.89    0.99 
  -1   1  14   -0.07    0.97 
   0  -1 -14    2.46    1.15 
   0   1  14    1.45    1.11 
  -1  -1 -14    4.25    1.24 
   1   1  14    3.75    1.22 
  -2  -1 -14    0.00    0.89 
   2   1  14    1.37    1.12 
  -3  -1 -14    2.31    1.36 
   3   1  14    0.00    0.96 
  -4  -1 -14    6.32    1.74 
   4   1  14    6.46    1.44 
  -5  -1 -14   -0.89    1.09 
   5   1  14    1.34    1.24 
   2  -2 -14   50.47    3.28 
  -2   2  14   56.37    3.32 
   1  -2 -14    4.93    1.44 
  -1   2  14    3.19    1.24 
   0  -2 -14   -0.13    1.07 
   0   2  14    0.62    1.01 
  -1  -2 -14   -0.04    0.95 
   1   2  14    2.32    1.14 
  -2  -2 -14   -0.64    0.85 
   2   2  14    1.08    0.94 
  -3  -2 -14    2.81    1.37 
   3   2  14    3.38    1.18 
  -4  -2 -14    1.76    1.24 
   4   2  14    1.87    1.11 
  -5  -2 -14    7.57    1.71 
   5   2  14    7.93    1.62 
   2  -3 -14    6.47    1.40 
  -2   3  14    6.96    1.53 
   1  -3 -14    2.86    1.21 
  -1   3  14    4.41    1.23 
   0  -3 -14    0.00    1.04 
   0   3  14    0.57    1.01 
  -1  -3 -14    7.72    1.42 
   1   3  14    3.63    1.28 
  -2  -3 -14   17.13    2.12 
   2   3  14   18.18    2.09 
  -3  -3 -14    0.47    1.14 
   3   3  14    0.41    0.94 
  -4  -3 -14    7.06    1.65 
   4   3  14    3.27    1.14 
  -5  -3 -14    7.14    1.65 
   5   3  14    4.89    1.41 
  -6  -3 -14    2.44    1.25 
   6   3  14    2.65    1.21 
   2  -4 -14    1.14    1.01 
  -2   4  14    0.07    0.79 
   1  -4 -14    5.33    1.30 
  -1   4  14    5.84    1.41 
   0  -4 -14    6.60    1.40 
   0   4  14    2.58    1.13 
  -1  -4 -14    8.62    1.64 
   1   4  14    7.77    1.63 
  -2  -4 -14    7.35    1.65 
   2   4  14    8.22    1.50 
  -3  -4 -14    7.94    1.66 
   3   4  14    8.49    1.60 
  -4  -4 -14    6.99    1.71 
   4   4  14    7.48    1.53 
  -5  -4 -14    6.72    1.69 
   5   4  14    9.31    1.79 
  -6  -4 -14    1.26    1.20 
   6   4  14    0.24    0.95 
   2  -5 -14    0.96    1.03 
  -2   5  14    0.96    0.82 
   1  -5 -14    1.65    1.05 
  -1   5  14    3.65    0.96 
   0  -5 -14    0.28    0.94 
   0   5  14   -0.71    0.72 
  -1  -5 -14    2.54    1.00 
   1   5  14   -0.03    0.74 
  -2  -5 -14   23.59    2.51 
   2   5  14   22.98    2.25 
  -3  -5 -14    3.85    1.36 
   3   5  14    0.17    0.63 
  -4  -5 -14    3.52    1.34 
   4   5  14    4.33    0.94 
  -5  -5 -14   -0.16    1.08 
   5   5  14    0.76    0.73 
  -6  -5 -14   -0.66    1.06 
   6   5  14   -0.35    0.63 
   1  -6 -14    1.60    1.06 
  -1   6  14    2.82    0.96 
   0  -6 -14    1.45    1.13 
   0   6  14    1.27    0.82 
  -1  -6 -14    0.15    0.86 
   1   6  14    0.91    0.73 
  -2  -6 -14    1.86    1.17 
   2   6  14    2.56    0.91 
  -3  -6 -14   -0.30    1.11 
   3   6  14    1.94    0.79 
  -4  -6 -14    5.42    1.49 
   4   6  14    4.12    1.05 
  -5  -6 -14   22.43    2.51 
   5   6  14   18.26    2.16 
   0  -7 -14    0.87    0.88 
   0   7  14    1.47    0.79 
  -1  -7 -14    7.18    1.71 
   1   7  14    8.33    1.31 
  -2  -7 -14    3.25    1.32 
   2   7  14    2.72    0.88 
  -3  -7 -14   -0.80    1.15 
   3   7  14    1.10    0.76 
  -4  -7 -14   12.48    1.89 
   4   7  14   11.03    1.56 
  -2  -3 -15    2.96    1.19 
  -2  -4 -15    2.03    1.12 
   2   4  15    3.04    1.24 
   0   0   0    0.00    0.00 
;
_shelx_hkl_checksum              20938
#END Tags that were not found in dictionaries
loop_
_space_group_symop_operation_xyz
'x, y, z'
'-x, -y, -z'
loop_
_atom_site_label
_atom_site_type_symbol
_atom_site_fract_x
_atom_site_fract_y
_atom_site_fract_z
_atom_site_U_iso_or_equiv
_atom_site_adp_type
_atom_site_occupancy
_atom_site_site_symmetry_order
_atom_site_calc_flag
_atom_site_refinement_flags_posn
_atom_site_refinement_flags_adp
C1 C 0.42147(16) 0.47803(17) 0.71070(14) 0.0133(3) Uani 1 1 d . .
C2 C 0.27755(16) 0.42021(16) 0.76971(15) 0.0138(3) Uani 1 1 d . .
C3 C 0.19252(17) 0.38034(17) 0.69514(16) 0.0173(3) Uani 1 1 d . .
H3 H 0.2276 0.3900 0.6095 0.021 Uiso 1 1 calc R U
C4 C 0.05836(18) 0.32714(18) 0.74343(17) 0.0209(4) Uani 1 1 d . .
H4 H 0.0014 0.3016 0.6912 0.025 Uiso 1 1 calc R U
C5 C 0.00757(18) 0.31130(19) 0.86796(18) 0.0240(4) Uani 1 1 d . .
H5 H -0.0853 0.2762 0.9016 0.029 Uiso 1 1 calc R U
C6 C 0.09186(19) 0.34646(18) 0.94329(17) 0.0223(4) Uani 1 1 d . .
H6 H 0.0565 0.3336 1.0293 0.027 Uiso 1 1 calc R U
C7 C 0.22783(17) 0.40054(17) 0.89700(15) 0.0168(3) Uani 1 1 d . .
C8 C 0.3153(2) 0.4356(2) 0.98384(16) 0.0239(4) Uani 1 1 d . .
H8A H 0.4181 0.4115 0.9601 0.036 Uiso 1 1 calc R U
H8B H 0.2854 0.3776 1.0699 0.036 Uiso 1 1 calc R U
H8C H 0.2995 0.5406 0.9784 0.036 Uiso 1 1 calc R U
C9 C 0.45164(16) 0.61671(16) 0.70019(14) 0.0121(3) Uani 1 1 d . .
C10 C 0.34294(16) 0.72523(16) 0.74142(14) 0.0129(3) Uani 1 1 d . .
C11 C 0.20227(17) 0.74781(17) 0.71117(15) 0.0156(3) Uani 1 1 d . .
H11 H 0.1735 0.6933 0.6616 0.019 Uiso 1 1 calc R U
C12 C 0.10374(18) 0.84836(18) 0.75216(16) 0.0204(4) Uani 1 1 d . .
H12 H 0.0078 0.8615 0.7314 0.025 Uiso 1 1 calc R U
C13 C 0.14417(19) 0.92976(18) 0.82310(16) 0.0220(4) Uani 1 1 d . .
H13 H 0.0760 0.9978 0.8522 0.026 Uiso 1 1 calc R U
C14 C 0.28420(19) 0.91182(19) 0.85150(16) 0.0225(4) Uani 1 1 d . .
H14 H 0.3130 0.9688 0.8990 0.027 Uiso 1 1 calc R U
C15 C 0.38262(18) 0.81078(18) 0.81074(15) 0.0177(3) Uani 1 1 d . .
H15 H 0.4789 0.7995 0.8304 0.021 Uiso 1 1 calc R U
C16 C 0.59448(16) 0.67683(16) 0.64374(14) 0.0122(3) Uani 1 1 d . .
C17 C 0.59795(17) 0.81322(17) 0.55416(14) 0.0145(3) Uani 1 1 d . .
H17 H 0.5096 0.8644 0.5296 0.017 Uiso 1 1 calc R U
C18 C 0.72655(18) 0.87579(18) 0.50026(15) 0.0179(3) Uani 1 1 d . .
H18 H 0.7264 0.9681 0.4383 0.022 Uiso 1 1 calc R U
C19 C 0.85587(18) 0.80351(18) 0.53683(16) 0.0195(4) Uani 1 1 d . .
H19 H 0.9448 0.8464 0.5007 0.023 Uiso 1 1 calc R U
C20 C 0.85493(18) 0.66900(19) 0.62598(17) 0.0201(4) Uani 1 1 d . .
H20 H 0.9436 0.6193 0.6511 0.024 Uiso 1 1 calc R U
C21 C 0.72581(17) 0.60581(17) 0.67914(15) 0.0164(3) Uani 1 1 d . .
H21 H 0.7267 0.5130 0.7405 0.020 Uiso 1 1 calc R U
C22 C 0.52534(17) 0.36760(17) 0.66398(15) 0.0147(3) Uani 1 1 d . .
H22A H 0.6102 0.4180 0.6125 0.018 Uiso 1 1 calc R U
H22B H 0.4774 0.3279 0.6095 0.018 Uiso 1 1 calc R U
C23 C 0.57735(17) 0.23992(17) 0.76987(15) 0.0161(3) Uani 1 1 d . .
H23A H 0.6425 0.2766 0.8136 0.019 Uiso 1 1 calc R U
H23B H 0.4929 0.2027 0.8312 0.019 Uiso 1 1 calc R U
C24 C 0.65686(19) 0.11391(18) 0.72379(17) 0.0215(4) Uani 1 1 d . .
H24A H 0.5909 0.0756 0.6820 0.026 Uiso 1 1 calc R U
H24B H 0.7398 0.1517 0.6608 0.026 Uiso 1 1 calc R U
C25 C 0.71192(19) -0.01121(19) 0.82830(18) 0.0250(4) Uani 1 1 d . .
H25A H 0.7873 0.0225 0.8625 0.038 Uiso 1 1 calc R U
H25B H 0.7522 -0.0937 0.7952 0.038 Uiso 1 1 calc R U
H25C H 0.6318 -0.0433 0.8947 0.038 Uiso 1 1 calc R U
loop_
_atom_site_aniso_label
_atom_site_aniso_U_11
_atom_site_aniso_U_22
_atom_site_aniso_U_33
_atom_site_aniso_U_23
_atom_site_aniso_U_13
_atom_site_aniso_U_12
C1 0.0135(7) 0.0143(7) 0.0123(7) -0.0030(6) -0.0045(6) -0.0003(6)
C2 0.0124(7) 0.0088(7) 0.0191(8) -0.0031(6) -0.0006(6) 0.0000(6)
C3 0.0174(8) 0.0135(8) 0.0223(8) -0.0067(6) -0.0024(7) -0.0016(6)
C4 0.0196(8) 0.0140(8) 0.0319(10) -0.0089(7) -0.0062(7) -0.0023(6)
C5 0.0151(8) 0.0183(8) 0.0357(10) -0.0051(8) 0.0027(7) -0.0040(6)
C6 0.0237(9) 0.0152(8) 0.0228(9) -0.0019(7) 0.0056(7) -0.0011(7)
C7 0.0186(8) 0.0110(7) 0.0190(8) -0.0034(6) 0.0005(6) 0.0000(6)
C8 0.0296(10) 0.0254(9) 0.0156(8) -0.0031(7) -0.0019(7) -0.0060(7)
C9 0.0121(7) 0.0134(7) 0.0113(7) -0.0031(6) -0.0031(6) -0.0013(6)
C10 0.0138(7) 0.0095(7) 0.0135(7) -0.0011(6) 0.0010(6) -0.0025(6)
C11 0.0147(8) 0.0122(7) 0.0188(8) -0.0026(6) -0.0009(6) -0.0039(6)
C12 0.0141(8) 0.0161(8) 0.0265(9) -0.0014(7) 0.0027(7) -0.0013(6)
C13 0.0232(9) 0.0147(8) 0.0242(9) -0.0055(7) 0.0074(7) 0.0003(7)
C14 0.0301(10) 0.0175(8) 0.0216(9) -0.0087(7) 0.0012(7) -0.0063(7)
C15 0.0177(8) 0.0173(8) 0.0186(8) -0.0051(6) -0.0018(6) -0.0034(6)
C16 0.0143(7) 0.0127(7) 0.0114(7) -0.0057(6) -0.0012(6) -0.0031(6)
C17 0.0159(8) 0.0135(7) 0.0153(8) -0.0058(6) -0.0026(6) 0.0005(6)
C18 0.0224(8) 0.0132(7) 0.0178(8) -0.0043(6) 0.0007(7) -0.0041(6)
C19 0.0154(8) 0.0212(8) 0.0229(9) -0.0086(7) 0.0031(7) -0.0065(6)
C20 0.0126(8) 0.0209(8) 0.0287(9) -0.0084(7) -0.0055(7) -0.0006(6)
C21 0.0162(8) 0.0140(7) 0.0189(8) -0.0031(6) -0.0047(6) -0.0018(6)
C22 0.0147(8) 0.0143(7) 0.0165(8) -0.0066(6) -0.0014(6) -0.0014(6)
C23 0.0168(8) 0.0135(8) 0.0188(8) -0.0058(6) -0.0018(6) -0.0013(6)
C24 0.0210(9) 0.0168(8) 0.0266(9) -0.0085(7) 0.0004(7) 0.0011(7)
C25 0.0224(9) 0.0189(9) 0.0358(10) -0.0104(8) -0.0075(8) 0.0031(7)
loop_
_atom_type_symbol
_atom_type_description
_atom_type_scat_dispersion_real
_atom_type_scat_dispersion_imag
_atom_type_scat_source
C C 0.0033 0.0016 'International Tables Vol C Tables 4.2.6.8 and 6.1.1.4'
H H 0.0000 0.0000 'International Tables Vol C Tables 4.2.6.8 and 6.1.1.4'
loop_
_geom_angle_atom_site_label_1
_geom_angle_atom_site_label_2
_geom_angle_atom_site_label_3
_geom_angle
C9 C1 C2 122.21(14)
C9 C1 C22 124.42(14)
C2 C1 C22 113.36(13)
C3 C2 C7 119.19(15)
C3 C2 C1 118.29(14)
C7 C2 C1 122.49(14)
C4 C3 C2 121.26(16)
C4 C3 H3 119.4
C2 C3 H3 119.4
C5 C4 C3 119.62(16)
C5 C4 H4 120.2
C3 C4 H4 120.2
C6 C5 C4 119.73(16)
C6 C5 H5 120.1
C4 C5 H5 120.1
C5 C6 C7 121.89(16)
C5 C6 H6 119.1
C7 C6 H6 119.1
C6 C7 C2 118.27(15)
C6 C7 C8 119.46(15)
C2 C7 C8 122.27(15)
C7 C8 H8A 109.5
C7 C8 H8B 109.5
H8A C8 H8B 109.5
C7 C8 H8C 109.5
H8A C8 H8C 109.5
H8B C8 H8C 109.5
C1 C9 C10 122.71(14)
C1 C9 C16 123.51(13)
C10 C9 C16 113.77(13)
C11 C10 C15 117.84(14)
C11 C10 C9 122.57(14)
C15 C10 C9 119.58(14)
C12 C11 C10 121.02(15)
C12 C11 H11 119.5
C10 C11 H11 119.5
C13 C12 C11 120.27(16)
C13 C12 H12 119.9
C11 C12 H12 119.9
C14 C13 C12 119.66(16)
C14 C13 H13 120.2
C12 C13 H13 120.2
C13 C14 C15 120.00(16)
C13 C14 H14 120.0
C15 C14 H14 120.0
C14 C15 C10 121.17(16)
C14 C15 H15 119.4
C10 C15 H15 119.4
C17 C16 C21 117.75(14)
C17 C16 C9 118.90(13)
C21 C16 C9 123.30(14)
C18 C17 C16 121.60(15)
C18 C17 H17 119.2
C16 C17 H17 119.2
C17 C18 C19 119.74(15)
C17 C18 H18 120.1
C19 C18 H18 120.1
C20 C19 C18 119.65(15)
C20 C19 H19 120.2
C18 C19 H19 120.2
C19 C20 C21 120.50(15)
C19 C20 H20 119.7
C21 C20 H20 119.7
C20 C21 C16 120.75(15)
C20 C21 H21 119.6
C16 C21 H21 119.6
C1 C22 C23 112.96(13)
C1 C22 H22A 109.0
C23 C22 H22A 109.0
C1 C22 H22B 109.0
C23 C22 H22B 109.0
H22A C22 H22B 107.8
C24 C23 C22 112.86(14)
C24 C23 H23A 109.0
C22 C23 H23A 109.0
C24 C23 H23B 109.0
C22 C23 H23B 109.0
H23A C23 H23B 107.8
C25 C24 C23 112.94(15)
C25 C24 H24A 109.0
C23 C24 H24A 109.0
C25 C24 H24B 109.0
C23 C24 H24B 109.0
H24A C24 H24B 107.8
C24 C25 H25A 109.5
C24 C25 H25B 109.5
H25A C25 H25B 109.5
C24 C25 H25C 109.5
H25A C25 H25C 109.5
H25B C25 H25C 109.5
loop_
_geom_bond_atom_site_label_1
_geom_bond_atom_site_label_2
_geom_bond_distance
C1 C9 1.350(2)
C1 C2 1.498(2)
C1 C22 1.506(2)
C2 C3 1.396(2)
C2 C7 1.401(2)
C3 C4 1.381(2)
C3 H3 0.9500
C4 C5 1.379(3)
C4 H4 0.9500
C5 C6 1.375(3)
C5 H5 0.9500
C6 C7 1.396(2)
C6 H6 0.9500
C7 C8 1.498(2)
C8 H8A 0.9800
C8 H8B 0.9800
C8 H8C 0.9800
C9 C10 1.490(2)
C9 C16 1.491(2)
C10 C11 1.392(2)
C10 C15 1.394(2)
C11 C12 1.383(2)
C11 H11 0.9500
C12 C13 1.381(3)
C12 H12 0.9500
C13 C14 1.380(3)
C13 H13 0.9500
C14 C15 1.385(2)
C14 H14 0.9500
C15 H15 0.9500
C16 C17 1.393(2)
C16 C21 1.394(2)
C17 C18 1.379(2)
C17 H17 0.9500
C18 C19 1.385(2)
C18 H18 0.9500
C19 C20 1.378(2)
C19 H19 0.9500
C20 C21 1.384(2)
C20 H20 0.9500
C21 H21 0.9500
C22 C23 1.530(2)
C22 H22A 0.9900
C22 H22B 0.9900
C23 C24 1.520(2)
C23 H23A 0.9900
C23 H23B 0.9900
C24 C25 1.518(2)
C24 H24A 0.9900
C24 H24B 0.9900
C25 H25A 0.9800
C25 H25B 0.9800
C25 H25C 0.9800
