#------------------------------------------------------------------------------
#$Date: 2016-03-22 22:15:30 +0200 (Tue, 22 Mar 2016) $
#$Revision: 179036 $
#$URL: svn://www.crystallography.net/cod/cif/4/12/34/4123477.cif $
#------------------------------------------------------------------------------
#
# This file is available in the Crystallography Open Database (COD),
# http://www.crystallography.net/
#
# All data on this site have been placed in the public domain by the
# contributors.
#
data_4123477
loop_
_publ_author_name
'Xue, Fei'
'Zhao, Jin'
'Hor, T. S. Andy'
'Hayashi, Tamio'
_publ_section_title
;
 Nickel-catalyzed three-component domino reactions of aryl grignard
 reagents, alkynes, and aryl halides producing tetrasubstituted alkenes.
;
_journal_issue                   9
_journal_name_full               'Journal of the American Chemical Society'
_journal_page_first              3189
_journal_page_last               3192
_journal_paper_doi               10.1021/ja513166w
_journal_volume                  137
_journal_year                    2015
_chemical_formula_sum            'C25 H26'
_chemical_formula_weight         326.46
_chemical_name_systematic
; 
 ? 
;
_space_group_crystal_system      monoclinic
_space_group_IT_number           14
_space_group_name_Hall           '-P 2ybc'
_space_group_name_H-M_alt        'P 1 21/c 1'
_symmetry_space_group_name_Hall  '-P 2ybc'
_symmetry_space_group_name_H-M   'P 1 21/c 1'
_atom_sites_solution_hydrogens   geom
_audit_creation_method           SHELXL-2014
_cell_angle_alpha                90
_cell_angle_beta                 92.611(7)
_cell_angle_gamma                90
_cell_formula_units_Z            4
_cell_length_a                   17.560(3)
_cell_length_b                   5.7255(10)
_cell_length_c                   18.734(4)
_cell_measurement_reflns_used    5071
_cell_measurement_temperature    100(2)
_cell_measurement_theta_max      28.14
_cell_measurement_theta_min      2.42
_cell_volume                     1881.6(6)
_computing_cell_refinement       'Bruker SAINT'
_computing_data_collection       'Bruker APEX2'
_computing_data_reduction        'Bruker SAINT'
_computing_molecular_graphics    'Bruker SHELXTL'
_computing_publication_material  'Bruker SHELXTL'
_computing_structure_refinement  'SHELXL-2014 (Sheldrick, 2014)'
_computing_structure_solution    'SHELXS-97 (Sheldrick 2008)'
_diffrn_ambient_temperature      100(2)
_diffrn_measured_fraction_theta_full 0.989
_diffrn_measured_fraction_theta_max 0.989
_diffrn_measurement_device_type  'Bruker D8 Venture'
_diffrn_measurement_method       '\f and \w scans'
_diffrn_radiation_type           MoK\a
_diffrn_radiation_wavelength     0.71073
_diffrn_reflns_av_R_equivalents  0.0748
_diffrn_reflns_av_unetI/netI     0.0687
_diffrn_reflns_Laue_measured_fraction_full 0.989
_diffrn_reflns_Laue_measured_fraction_max 0.989
_diffrn_reflns_limit_h_max       20
_diffrn_reflns_limit_h_min       -20
_diffrn_reflns_limit_k_max       6
_diffrn_reflns_limit_k_min       -6
_diffrn_reflns_limit_l_max       22
_diffrn_reflns_limit_l_min       -22
_diffrn_reflns_number            12442
_diffrn_reflns_point_group_measured_fraction_full 0.989
_diffrn_reflns_point_group_measured_fraction_max 0.989
_diffrn_reflns_theta_full        25.000
_diffrn_reflns_theta_max         25.026
_diffrn_reflns_theta_min         2.176
_exptl_absorpt_coefficient_mu    0.065
_exptl_absorpt_correction_T_max  0.7457
_exptl_absorpt_correction_T_min  0.3293
_exptl_absorpt_correction_type   multi-scan
_exptl_absorpt_process_details   'Sadabs, (Sheldrick 2012)'
_exptl_crystal_colour            Colourless
_exptl_crystal_density_diffrn    1.152
_exptl_crystal_density_meas      ?
_exptl_crystal_density_method    'Not Measured'
_exptl_crystal_description       Thin_Plate
_exptl_crystal_F_000             704
_exptl_crystal_size_max          0.400
_exptl_crystal_size_mid          0.360
_exptl_crystal_size_min          0.040
_refine_diff_density_max         0.364
_refine_diff_density_min         -0.386
_refine_diff_density_rms         0.088
_refine_ls_extinction_coef       0.021(5)
_refine_ls_extinction_expression Fc^*^=kFc[1+0.001xFc^2^\l^3^/sin(2\q)]^-1/4^
_refine_ls_extinction_method     SHELXL
_refine_ls_goodness_of_fit_ref   1.186
_refine_ls_hydrogen_treatment    constr
_refine_ls_matrix_type           full
_refine_ls_number_parameters     229
_refine_ls_number_reflns         3280
_refine_ls_number_restraints     0
_refine_ls_restrained_S_all      1.186
_refine_ls_R_factor_all          0.0968
_refine_ls_R_factor_gt           0.0749
_refine_ls_shift/su_max          0.000
_refine_ls_shift/su_mean         0.000
_refine_ls_structure_factor_coef Fsqd
_refine_ls_weighting_details
'w=1/[\s^2^(Fo^2^)+(0.1302P)^2^] where P=(Fo^2^+2Fc^2^)/3'
_refine_ls_weighting_scheme      calc
_refine_ls_wR_factor_gt          0.1984
_refine_ls_wR_factor_ref         0.2168
_reflns_Friedel_coverage         0.000
_reflns_number_gt                2480
_reflns_number_total             3280
_reflns_threshold_expression     'I > 2\s(I)'
_cod_data_source_file            ja513166w_si_004.cif
_cod_data_source_block           E464
_cod_depositor_comments
;
The following automatic conversions were performed:

'_exptl_absorpt_correction_type' value 'Multi-scan' changed to
'multi-scan' according to
/usr/data/users/saulius/crontab/automatic-downloads/rss-feeds/ACS/lib/dictionaries/cif_core.dic
dictionary named 'cif_core.dic' version 2.4.2 from 2011-04-26.

'_exptl_crystal_density_meas' value 'Not Measured' was changed to '?'
- the value is perceived as not measured.

Automatic conversion script
Id: cif_fix_values 3086 2015-02-26 13:12:21Z robertas 

 Adding full bibliography for 4123475--4123478.cif.
;
_cod_database_code               4123477
#BEGIN Tags that were not found in dictionaries:
_shelx_space_group_comment
; 
The symmetry employed for this shelxl refinement is uniquely defined 
by the following loop, which should always be used as a source of 
symmetry information in preference to the above space-group names. 
They are only intended as comments. 
;
_shelx_estimated_absorpt_t_min   0.975
_shelx_estimated_absorpt_t_max   0.997
_shelxl_version_number           2014-3
_shelx_res_file
; 
TITL E464 in P2(1)/c 
CELL 0.71073 17.5601 5.7255 18.7340 90.000 92.611 90.000 
ZERR 4.00 0.0033 0.0010 0.0039 0.000 0.007 0.000 
LATT 1 
SYMM -x, y+1/2, -z+1/2 
SFAC C  H 
UNIT 100  104 
L.S. 10 
SHEL 9999 0.84 
ACTA 50 
BOND $H 
FMAP 2 
PLAN 20 
HTAB 
SIZE 0.40 0.36 0.04 
TEMP -173.150 
WGHT    0.130200 
EXTI    0.020878 
FVAR       0.19576 
C1    1    0.246367    0.699259    0.284492    11.00000    0.02209    0.01372 = 
         0.02676    0.00057    0.00176    0.00353 
C2    1    0.262424    0.773863    0.218267    11.00000    0.02326    0.01333 = 
         0.02878   -0.00232    0.00239    0.00335 
C3    1    0.203060    0.774516    0.157209    11.00000    0.02822    0.01977 = 
         0.02289    0.00353   -0.00087   -0.00017 
AFIX  23 
H3A   2    0.202771    0.929980    0.134065    11.00000   -1.20000 
H3B   2    0.152218    0.749621    0.176678    11.00000   -1.20000 
AFIX   0 
C4    1    0.216385    0.587668    0.100664    11.00000    0.02869    0.02213 = 
         0.02861    0.00188    0.00341    0.00293 
AFIX  23 
H4A   2    0.267800    0.609991    0.082164    11.00000   -1.20000 
H4B   2    0.215310    0.431973    0.123583    11.00000   -1.20000 
AFIX   0 
C5    1    0.158154    0.591904    0.038411    11.00000    0.03379    0.02356 = 
         0.02625    0.00207    0.00044   -0.00176 
AFIX  23 
H5A   2    0.162463    0.741070    0.012175    11.00000   -1.20000 
H5B   2    0.106244    0.583043    0.056753    11.00000   -1.20000 
AFIX   0 
C6    1    0.169982    0.388114   -0.012702    11.00000    0.04922    0.02749 = 
         0.03169   -0.00025    0.00197   -0.00319 
AFIX 137 
H6A   2    0.219170    0.405769   -0.034810    11.00000   -1.50000 
H6B   2    0.128943    0.387208   -0.049947    11.00000   -1.50000 
H6C   2    0.169412    0.240798    0.013903    11.00000   -1.50000 
AFIX   0 
C7    1    0.172940    0.573317    0.297364    11.00000    0.02701    0.01987 = 
         0.02005    0.00301   -0.00028    0.00144 
C8    1    0.119294    0.666451    0.342465    11.00000    0.03016    0.01962 = 
         0.02706    0.00093   -0.00083    0.00206 
AFIX  43 
H8    2    0.129266    0.813072    0.364716    11.00000   -1.20000 
AFIX   0 
C9    1    0.050939    0.548922    0.355795    11.00000    0.02475    0.03482 = 
         0.02840    0.00780    0.00056    0.00435 
C10   1    0.038153    0.334565    0.323180    11.00000    0.02506    0.02937 = 
         0.03453    0.00634   -0.00395   -0.00413 
AFIX  43 
H10   2   -0.007885    0.252890    0.330707    11.00000   -1.20000 
AFIX   0 
C11   1    0.091307    0.237880    0.279910    11.00000    0.03842    0.02089 = 
         0.03248    0.00200   -0.00478   -0.00223 
AFIX  43 
H11   2    0.081902    0.089393    0.258663    11.00000   -1.20000 
AFIX   0 
C12   1    0.158539    0.356008    0.267141    11.00000    0.03275    0.02196 = 
         0.02602   -0.00077    0.00168    0.00085 
AFIX  43 
H12   2    0.194844    0.287208    0.237487    11.00000   -1.20000 
AFIX   0 
C13   1   -0.006944    0.658698    0.402623    11.00000    0.03263    0.05024 = 
         0.04213    0.00325    0.00821    0.00198 
AFIX 137 
H13A  2   -0.046575    0.735858    0.372588    11.00000   -1.50000 
H13B  2    0.018341    0.774100    0.434232    11.00000   -1.50000 
H13C  2   -0.030173    0.537399    0.431449    11.00000   -1.50000 
AFIX   0 
C14   1    0.297790    0.727341    0.349160    11.00000    0.02425    0.01988 = 
         0.02623   -0.00270    0.00473    0.00148 
C15   1    0.299032    0.556831    0.402629    11.00000    0.03080    0.02310 = 
         0.02688    0.00110    0.00450    0.00181 
AFIX  43 
H15   2    0.268824    0.420253    0.395945    11.00000   -1.20000 
AFIX   0 
C16   1    0.343304    0.582963    0.464989    11.00000    0.03607    0.03102 = 
         0.02621    0.00417    0.00356    0.00505 
AFIX  43 
H16   2    0.343853    0.463963    0.500347    11.00000   -1.20000 
AFIX   0 
C17   1    0.386927    0.782620    0.476029    11.00000    0.03126    0.03792 = 
         0.02501   -0.00580   -0.00326    0.00539 
AFIX  43 
H17   2    0.417379    0.800817    0.518892    11.00000   -1.20000 
AFIX   0 
C18   1    0.385897    0.954670    0.424487    11.00000    0.03142    0.02864 = 
         0.03015   -0.00793    0.00368   -0.00194 
AFIX  43 
H18   2    0.415732    1.091657    0.431950    11.00000   -1.20000 
AFIX   0 
C19   1    0.341712    0.928950    0.362038    11.00000    0.02930    0.02215 = 
         0.02659   -0.00209    0.00407    0.00062 
AFIX  43 
H19   2    0.341065    1.049762    0.327257    11.00000   -1.20000 
AFIX   0 
C20   1    0.340419    0.849034    0.197608    11.00000    0.02496    0.01764 = 
         0.02017   -0.00134    0.00026   -0.00005 
C21   1    0.402380    0.699057    0.209876    11.00000    0.02916    0.02001 = 
         0.02234   -0.00016    0.00026    0.00013 
AFIX  43 
H21   2    0.395386    0.555906    0.234367    11.00000   -1.20000 
AFIX   0 
C22   1    0.474374    0.756513    0.186674    11.00000    0.02741    0.02871 = 
         0.02435   -0.00302    0.00044    0.00397 
AFIX  43 
H22   2    0.515813    0.652126    0.195383    11.00000   -1.20000 
AFIX   0 
C23   1    0.485905    0.964356    0.151073    11.00000    0.02644    0.03169 = 
         0.02502   -0.00334    0.00380   -0.00560 
AFIX  43 
H23   2    0.534948    1.002668    0.135124    11.00000   -1.20000 
AFIX   0 
C24   1    0.425065    1.116481    0.138876    11.00000    0.03586    0.02112 = 
         0.02389    0.00070    0.00235   -0.00532 
AFIX  43 
H24   2    0.432469    1.260107    0.114766    11.00000   -1.20000 
AFIX   0 
C25   1    0.353225    1.058423    0.161995    11.00000    0.02994    0.02213 = 
         0.02469    0.00021    0.00211    0.00244 
AFIX  43 
H25   2    0.312026    1.163715    0.153325    11.00000   -1.20000 
AFIX   0 
HKLF 4 1 1 0 0 0 1 0 0 0 1 
  
REM  E464 in P2(1)/c 
REM R1 =  0.0749 for    2480 Fo > 4sig(Fo)  and  0.0968 for all    3280 data 
REM    229 parameters refined using      0 restraints 
  
END 
  
WGHT      0.1327      0.7058 
  
REM No hydrogen bonds found for HTAB generation 
  
REM Highest difference peak  0.364,  deepest hole -0.386,  1-sigma level  0.088 
Q1    1   0.1642  0.5092  0.0194  11.00000  0.05    0.36 
Q2    1   0.2410  0.6646  0.0510  11.00000  0.05    0.36 
Q3    1   0.1388  0.5479  0.0775  11.00000  0.05    0.35 
Q4    1   0.3301  0.8849  0.2506  11.00000  0.05    0.34 
Q5    1   0.2069  0.6751  0.1284  11.00000  0.05    0.34 
Q6    1   0.4580  0.8351  0.2348  11.00000  0.05    0.33 
Q7    1   0.2464  0.8148  0.2588  11.00000  0.05    0.32 
Q8    1   0.3612  0.8752  0.5050  11.00000  0.05    0.30 
Q9    1   0.2272  0.4864  0.0466  11.00000  0.05    0.30 
Q10   1  -0.0014  0.6049  0.4543  11.00000  0.05    0.29 
Q11   1   0.3213  0.6408  0.3097  11.00000  0.05    0.29 
Q12   1   0.3734  0.8703  0.4534  11.00000  0.05    0.29 
Q13   1   0.2914  0.6895  0.3745  11.00000  0.05    0.28 
Q14   1   0.3422  0.9553  0.4027  11.00000  0.05    0.28 
Q15   1   0.3785  0.9973  0.1091  11.00000  0.05    0.27 
Q16   1   0.1030  0.6314  0.4025  11.00000  0.05    0.27 
Q17   1   0.2593  0.6592  0.2474  11.00000  0.05    0.27 
Q18   1   0.0515  0.5302  0.3048  11.00000  0.05    0.26 
Q19   1   0.2812  0.8219  0.4037  11.00000  0.05    0.26 
Q20   1   0.2792  0.6977  0.4378  11.00000  0.05    0.26 
;
_shelx_res_checksum              72199
_shelx_hkl_file
; 
  -3   0   0   10.74    0.88 
  -3   0   0   10.10    0.88 
   3   0   0   10.00    0.89 
  -4   0   0   82.90    6.58 
   4   0   0   79.58    6.58 
   4   0   0   81.27    6.58 
  -4   0   0   79.23    6.58 
   5   0   0   84.14    6.50 
  -5   0   0   76.66    6.50 
   5   0   0   75.82    6.50 
  -5   0   0   82.11    6.50 
   6   0   0  210.56   15.90 
  -6   0   0  185.65   15.90 
  -6   0   0  198.28   15.90 
   6   0   0  187.39   15.90 
  -7   0   0    6.82    0.58 
  -7   0   0    5.90    0.57 
   7   0   0    6.05    0.58 
   7   0   0    5.98    0.58 
  -8   0   0    2.29    0.32 
   8   0   0    2.36    0.37 
  -8   0   0    3.11    0.35 
   8   0   0    3.12    0.36 
  -9   0   0   24.27    1.98 
   9   0   0   25.34    1.99 
  -9   0   0   22.41    1.98 
   9   0   0   22.44    1.98 
 -10   0   0    1.01    0.22 
  10   0   0    1.33    0.26 
 -10   0   0    0.76    0.20 
  10   0   0    1.06    0.26 
  11   0   0    0.79    0.27 
  11   0   0    0.97    0.26 
 -11   0   0    0.98    0.23 
 -11   0   0    1.05    0.24 
 -12   0   0   16.41    1.44 
 -12   0   0   15.64    1.45 
  12   0   0   18.16    1.46 
  12   0   0   16.34    1.46 
 -13   0   0    2.44    0.45 
  13   0   0    2.14    0.43 
  13   0   0    3.17    0.46 
 -13   0   0    3.33    0.46 
  14   0   0    3.21    0.54 
 -14   0   0    2.41    0.60 
  14   0   0    2.98    0.51 
 -14   0   0    2.04    0.64 
 -15   0   0    0.55    0.39 
  15   0   0   -0.12    0.39 
  15   0   0    0.03    0.43 
 -15   0   0    0.15    0.34 
 -16   0   0   21.31    1.92 
  16   0   0   20.59    1.90 
  16   0   0   22.92    1.99 
 -16   0   0   20.44    1.90 
  17   0   0    9.07    1.09 
 -17   0   0    6.71    0.93 
 -17   0   0    8.22    0.98 
 -18   0   0    2.82    0.70 
  18   0   0    4.81    0.88 
 -18   0   0    4.86    0.79 
 -19   0   0    0.69    0.57 
 -19   0   0    1.62    1.04 
  19   0   0    1.31    0.79 
  19   0   0    0.33    0.68 
  20   0   0    5.39    1.16 
 -20   0   0    7.22    1.13 
 -20   0   0    7.95    1.32 
   0  -1   0   -0.18    0.08 
   0  -1   0   -0.08    0.07 
   0   1   0    0.06    0.06 
   0   1   0   -0.05    0.06 
   1  -1   0  718.53   58.40 
  -1  -1   0  619.49   58.35 
   1  -1   0  736.07   58.39 
  -1   1   0  724.93   58.39 
  -1   1   0  792.80   58.40 
   2  -1   0  215.94   17.88 
   2  -1   0  223.60   17.90 
  -2   1   0  223.64   17.89 
  -2   1   0  216.44   17.88 
   3  -1   0   83.04    6.57 
   3  -1   0   80.08    6.57 
  -3   1   0   79.45    6.56 
  -3   1   0   78.98    6.56 
  -4  -1   0    3.37    0.31 
   4  -1   0    2.92    0.36 
   4  -1   0    3.48    0.38 
  -4   1   0    3.34    0.36 
  -4   1   0    3.20    0.35 
   5  -1   0    2.52    0.33 
  -5  -1   0    2.78    0.28 
   5  -1   0    2.95    0.34 
  -5   1   0    2.64    0.33 
  -5   1   0    2.32    0.32 
   6  -1   0    1.98    0.31 
  -6  -1   0    1.97    0.25 
  -6  -1   0    1.93    0.24 
   6  -1   0    1.92    0.30 
  -6   1   0    1.86    0.28 
   6   1   0    1.64    0.24 
  -6   1   0    2.01    0.29 
   7  -1   0   31.36    2.41 
  -7  -1   0   28.62    2.38 
  -7  -1   0   27.76    2.38 
   7  -1   0   32.86    2.41 
   7   1   0   24.31    2.38 
  -7   1   0   27.84    2.40 
  -7   1   0   29.67    2.40 
   8  -1   0    6.93    0.63 
  -8  -1   0    6.31    0.59 
  -8  -1   0    5.55    0.59 
  -8   1   0    7.19    0.62 
  -8   1   0    6.87    0.63 
   8   1   0    6.30    0.57 
   8   1   0    5.35    0.59 
   9  -1   0   12.72    1.12 
  -9  -1   0   11.94    1.08 
  -9  -1   0   12.67    1.08 
   9  -1   0   13.60    1.12 
  -9   1   0   13.25    1.10 
  -9   1   0   11.82    1.10 
   9   1   0   11.47    1.08 
  10  -1   0    3.07    0.45 
  10  -1   0    3.31    0.47 
 -10  -1   0    3.16    0.39 
 -10  -1   0    3.18    0.41 
  10   1   0    2.60    0.41 
 -10   1   0    2.96    0.40 
 -10   1   0    3.68    0.41 
 -11  -1   0   24.44    2.16 
 -11  -1   0   26.71    2.16 
  11  -1   0   27.98    2.19 
  11  -1   0   28.12    2.19 
 -11   1   0   25.21    2.16 
  11   1   0   23.43    2.16 
 -11   1   0   24.08    2.16 
  12  -1   0   22.95    1.85 
  12  -1   0   22.63    1.84 
 -12  -1   0   22.33    1.81 
 -12  -1   0   20.57    1.81 
 -12   1   0   20.05    1.81 
  12   1   0   19.63    1.80 
 -12   1   0   20.11    1.80 
 -13  -1   0    0.87    0.34 
  13  -1   0    0.30    0.31 
  13  -1   0    0.50    0.34 
 -13  -1   0    0.47    0.25 
  13   1   0    0.37    0.25 
 -13   1   0    0.23    0.41 
  13   1   0    0.19    0.27 
 -13   1   0    0.29    0.34 
  14  -1   0   30.01    2.53 
 -14  -1   0   28.89    2.49 
  14  -1   0   33.41    2.52 
 -14  -1   0   30.58    2.48 
 -14   1   0   28.78    2.47 
  14   1   0   26.67    2.47 
 -14   1   0   25.38    2.46 
 -15  -1   0    2.40    0.49 
  15  -1   0    2.94    0.65 
  15  -1   0    3.50    0.64 
 -15   1   0    2.91    0.55 
  15   1   0    3.40    0.51 
 -15   1   0    3.38    0.54 
  16  -1   0    3.01    0.59 
  16  -1   0    4.27    0.71 
 -16  -1   0    2.67    0.61 
 -16  -1   0    1.72    0.50 
 -16   1   0    2.45    0.49 
  16   1   0    2.11    0.54 
 -16   1   0    3.28    0.58 
  17  -1   0    0.43    0.58 
 -17  -1   0    0.12    0.60 
 -17  -1   0    0.47    0.48 
  17   1   0    0.12    0.45 
 -17   1   0    0.99    0.47 
 -17   1   0    1.13    0.47 
 -18  -1   0    4.96    0.89 
  18  -1   0    3.36    0.77 
 -18  -1   0    2.20    0.63 
  18  -1   0    3.16    0.77 
 -18   1   0    3.56    0.65 
 -18   1   0    4.81    0.84 
  18   1   0    3.58    0.79 
  19  -1   0   -0.34    0.67 
 -19  -1   0    0.99    0.72 
 -19   1   0    1.39    0.59 
 -19   1   0    0.75    0.67 
 -20  -1   0   -0.09    0.67 
  20  -1   0   -0.92    0.72 
 -20  -1   0    1.72    1.08 
 -20   1   0   -0.25    0.69 
  20   1   0   -0.70    0.74 
 -20   1   0    1.09    0.86 
   0  -2   0   51.22    4.66 
   0  -2   0   62.36    4.64 
  -1  -2   0   21.60    1.85 
   1  -2   0   23.16    1.86 
  -2  -2   0    0.11    0.10 
   2  -2   0    0.02    0.14 
   2  -2   0    0.40    0.15 
  -2  -2   0    0.22    0.12 
  -2   2   0    0.12    0.13 
  -2   2   0    0.50    0.15 
   3  -2   0    9.05    0.77 
   3  -2   0    8.61    0.77 
  -3  -2   0    7.83    0.75 
  -3   2   0    8.65    0.77 
  -3   2   0    9.29    0.78 
  -4  -2   0   30.75    2.37 
   4  -2   0   26.81    2.38 
   4  -2   0   28.48    2.37 
  -4   2   0   27.76    2.38 
  -4   2   0   29.37    2.38 
   5  -2   0    0.21    0.18 
   5  -2   0   -0.34    0.18 
  -5  -2   0   -0.06    0.15 
  -5   2   0    0.02    0.16 
  -5   2   0    0.02    0.17 
   6  -2   0   95.59    7.88 
   6  -2   0   92.41    7.88 
  -6  -2   0  108.11    7.87 
  -6   2   0   94.02    7.88 
  -6   2   0   91.83    7.88 
   7  -2   0   41.91    3.57 
   7  -2   0   42.73    3.56 
  -7  -2   0   48.16    3.55 
  -7   2   0   40.77    3.56 
  -7   2   0   41.74    3.56 
   8  -2   0   15.90    1.38 
  -8  -2   0   16.65    1.35 
   8  -2   0   15.63    1.37 
  -8   2   0   15.59    1.37 
  -8   2   0   15.09    1.37 
   9  -2   0    0.75    0.26 
   9  -2   0    1.00    0.26 
  -9  -2   0    0.56    0.23 
  -9   2   0    1.09    0.22 
  -9   2   0    1.06    0.23 
  10  -2   0   24.34    2.08 
 -10  -2   0   26.04    2.07 
  10  -2   0   24.28    2.08 
 -10   2   0   23.26    2.07 
 -10   2   0   23.89    2.07 
 -11  -2   0    1.69    0.32 
  11  -2   0    2.13    0.37 
  11  -2   0    1.40    0.36 
 -11   2   0    1.95    0.34 
 -11   2   0    1.45    0.30 
  12  -2   0    0.08    0.32 
  12  -2   0    0.24    0.31 
 -12  -2   0    0.36    0.26 
 -12   2   0    0.11    0.26 
 -12   2   0   -0.02    0.23 
 -13  -2   0    2.52    0.44 
  13  -2   0    2.69    0.47 
  13  -2   0    1.70    0.49 
 -13   2   0    2.08    0.41 
 -13   2   0    2.75    0.50 
 -14  -2   0    8.74    0.95 
  14  -2   0    8.39    0.93 
 -14   2   0    8.24    0.89 
 -14   2   0    8.19    0.90 
  14   2   0    7.56    0.86 
 -15  -2   0    5.97    0.97 
  15  -2   0    8.57    0.92 
 -15  -2   0    5.68    1.01 
 -15   2   0    7.17    0.82 
 -15   2   0    6.98    0.81 
  15   2   0    5.27    0.81 
  16  -2   0    0.84    0.75 
 -16  -2   0    0.19    0.43 
  16   2   0   -0.16    0.39 
 -16   2   0    0.99    0.46 
 -16   2   0    0.09    0.42 
 -17  -2   0    3.05    0.66 
 -17  -2   0    2.63    0.77 
  17   2   0    2.39    0.58 
 -17   2   0    3.19    0.60 
 -17   2   0    2.32    0.55 
 -18  -2   0    7.51    1.19 
 -18  -2   0    9.69    1.42 
  18   2   0    6.58    1.12 
 -18   2   0    7.54    1.05 
 -18   2   0    8.71    1.05 
 -19  -2   0    0.31    0.69 
 -19  -2   0    1.42    1.15 
  19  -2   0    0.81    0.62 
  19  -2   0    0.08    0.90 
 -19   2   0    1.93    0.71 
  19   2   0   -0.12    0.68 
 -19   2   0    0.07    0.61 
   0  -3   0   -0.02    0.19 
   0  -3   0   -0.02    0.18 
   0   3   0   -0.07    0.11 
  -1  -3   0    0.01    0.17 
   1  -3   0    0.13    0.20 
  -1   3   0    0.02    0.14 
  -1   3   0    0.00    0.18 
   2  -3   0   18.55    1.52 
  -2  -3   0   18.69    1.50 
  -2   3   0   15.87    1.52 
   3  -3   0    7.34    0.77 
  -3  -3   0    6.79    0.74 
  -3   3   0    8.13    0.78 
  -3   3   0    9.24    0.77 
  -3   3   0    9.25    0.76 
   4  -3   0   33.32    2.74 
  -4  -3   0   28.84    2.73 
   4  -3   0   33.89    2.76 
  -4   3   0   30.55    2.77 
  -4   3   0   35.22    2.75 
  -4   3   0   36.62    2.76 
  -5  -3   0   28.73    2.45 
   5  -3   0   28.03    2.45 
   5  -3   0   29.20    2.47 
  -5   3   0   29.87    2.46 
  -5   3   0   30.97    2.46 
   6  -3   0    5.65    0.65 
   6  -3   0    6.25    0.67 
  -6  -3   0    6.75    0.66 
  -6   3   0    6.70    0.66 
  -6   3   0    7.21    0.68 
   7  -3   0   15.24    1.35 
  -7  -3   0   17.00    1.36 
   7  -3   0   14.25    1.34 
  -7   3   0   15.43    1.36 
  -7   3   0   14.68    1.35 
   8  -3   0   17.76    1.61 
   8  -3   0   18.08    1.60 
  -8  -3   0   20.84    1.61 
  -8   3   0   17.54    1.59 
  -8   3   0   17.71    1.61 
   9  -3   0    3.25    0.46 
  -9  -3   0    3.03    0.52 
   9  -3   0    3.32    0.53 
  -9   3   0    2.77    0.48 
  -9   3   0    3.31    0.52 
 -10  -3   0    0.62    0.33 
  10  -3   0    0.50    0.41 
  10  -3   0    1.04    0.38 
 -10   3   0    1.09    0.33 
 -10   3   0    1.00    0.39 
 -11  -3   0    3.77    0.61 
  11  -3   0    2.37    0.46 
 -11   3   0    2.78    0.54 
 -11   3   0    2.97    0.51 
  12  -3   0    0.92    0.40 
 -12  -3   0    0.69    0.40 
 -12   3   0    0.79    0.36 
 -12   3   0    0.74    0.30 
  13  -3   0   -0.12    0.39 
 -13  -3   0   -0.37    0.39 
 -13   3   0   -0.46    0.37 
 -13   3   0    0.34    0.36 
  14  -3   0    0.85    0.44 
 -14  -3   0    0.66    0.50 
 -14   3   0    1.25    0.44 
 -14   3   0    1.82    0.45 
  15  -3   0    0.88    0.44 
  15  -3   0    0.52    0.59 
 -15  -3   0    0.94    0.56 
 -15   3   0    0.59    0.45 
 -15   3   0    1.34    0.45 
  16  -3   0    0.21    0.62 
 -16  -3   0   -0.44    0.60 
  16  -3   0   -0.25    0.52 
 -16   3   0    1.16    0.50 
 -17  -3   0   12.44    1.58 
  17  -3   0   15.17    1.42 
 -17   3   0   11.91    1.36 
 -17   3   0   10.66    1.33 
  18  -3   0    0.02    0.92 
  18  -3   0   -0.43    0.68 
 -18  -3   0    0.32    0.71 
 -18   3   0    0.93    0.66 
 -18   3   0    0.16    0.60 
   0  -4   0    0.18    0.28 
   1  -4   0   13.89    1.21 
  -1  -4   0   13.35    1.20 
  -1  -4   0   11.25    1.24 
  -1   4   0   11.70    1.14 
  -1   4   0   15.54    1.16 
  -2  -4   0    0.66    0.30 
   2  -4   0    1.03    0.31 
  -2   4   0    0.68    0.25 
  -3  -4   0    0.94    0.30 
   3  -4   0    0.80    0.33 
  -3   4   0    1.29    0.27 
  -3   4   0    1.38    0.34 
  -4  -4   0   19.12    1.72 
   4  -4   0   18.98    1.74 
  -4   4   0   20.39    1.71 
  -4   4   0   20.73    1.76 
   5  -4   0   14.42    1.32 
  -5  -4   0   14.81    1.30 
   5  -4   0   14.35    1.27 
  -5   4   0   14.70    1.28 
  -5   4   0   12.92    1.34 
  -6  -4   0   23.63    2.04 
   6  -4   0   22.75    2.02 
   6  -4   0   22.63    2.05 
  -6   4   0   25.15    2.11 
  -6   4   0   23.76    2.02 
  -7  -4   0    8.81    0.98 
   7  -4   0    9.13    0.93 
   7  -4   0    8.66    1.03 
  -7   4   0   10.95    1.07 
  -7   4   0    9.21    0.95 
  -7   4   0    8.98    0.93 
   8  -4   0    4.19    0.63 
   8  -4   0    4.03    0.63 
  -8   4   0    3.93    0.65 
  -8   4   0    4.08    0.59 
  -9  -4   0    7.92    0.99 
   9  -4   0    7.93    0.85 
   9  -4   0    7.58    0.85 
  -9   4   0    6.94    1.04 
  -9   4   0    6.92    0.84 
 -10  -4   0   20.18    1.71 
  10  -4   0   17.12    1.63 
  10  -4   0   19.17    1.64 
 -10   4   0   16.60    1.62 
 -10   4   0   16.86    1.65 
  11  -4   0    1.97    0.47 
  11  -4   0    1.41    0.61 
 -11  -4   0    1.16    0.53 
 -11   4   0    2.40    0.47 
 -11   4   0    1.59    0.49 
 -12  -4   0   12.20    1.41 
  12  -4   0   13.01    1.27 
 -12   4   0   11.89    1.30 
 -12   4   0   11.90    1.25 
 -13  -4   0    1.77    0.69 
  13  -4   0    2.05    0.56 
 -13   4   0    3.07    0.53 
 -13   4   0    2.45    0.62 
  14  -4   0    2.11    0.62 
  14  -4   0    1.56    0.64 
 -14  -4   0    4.55    0.76 
 -14   4   0    3.44    0.68 
 -14   4   0    3.01    0.63 
  15  -4   0    2.21    0.70 
  15  -4   0    3.74    0.68 
 -15  -4   0    4.37    0.80 
 -15   4   0    3.14    0.68 
 -15   4   0    2.60    0.76 
  16  -4   0    1.34    0.73 
 -16  -4   0    1.81    0.88 
  16  -4   0    1.22    0.72 
 -16   4   0    1.25    0.78 
 -16   4   0    3.19    0.76 
   0  -5   0    1.05    0.41 
   1  -5   0   29.39    2.55 
  -2  -5   0    0.51    0.50 
   2  -5   0   -0.16    0.42 
  -2   5   0    0.44    0.27 
  -3  -5   0    0.72    0.45 
   3  -5   0    0.37    0.54 
  -3   5   0    0.73    0.30 
  -3   5   0    0.01    0.35 
   4  -5   0    4.92    0.80 
  -4  -5   0    5.29    0.78 
  -4   5   0    4.83    0.78 
  -4   5   0    6.02    0.72 
   5  -5   0    4.39    0.69 
  -5  -5   0    4.72    0.71 
  -5   5   0    5.16    0.70 
  -5   5   0    5.45    0.86 
  -6  -5   0    0.57    0.43 
   6  -5   0    0.49    0.33 
   6  -5   0    1.47    0.52 
  -6   5   0    1.12    0.39 
  -6   5   0    0.69    0.53 
  -7  -5   0   22.31    2.08 
   7  -5   0   23.79    2.10 
   7  -5   0   23.22    2.01 
  -7   5   0   23.69    2.05 
  -7   5   0   20.98    2.19 
  -8  -5   0   26.41    2.33 
   8  -5   0   26.89    2.36 
  -8   5   0   25.77    2.27 
  -8   5   0   23.66    2.39 
   9  -5   0   -0.45    0.38 
  -9  -5   0    0.99    0.57 
   9  -5   0   -0.37    0.56 
  -9   5   0   -0.80    0.60 
  -9   5   0    0.16    0.40 
  10  -5   0    6.50    1.04 
  10  -5   0    6.33    0.92 
 -10  -5   0    7.33    1.14 
 -10   5   0    7.26    0.94 
 -11  -5   0    4.57    0.90 
  11  -5   0    2.84    0.64 
  11  -5   0    5.55    0.99 
 -11   5   0    8.48    1.45 
 -11   5   0    4.57    0.83 
  12  -5   0    6.17    1.04 
 -12  -5   0    8.49    1.12 
  12  -5   0    8.45    1.17 
 -12   5   0    8.26    1.11 
  13  -5   0    1.33    0.65 
  13  -5   0   -0.33    0.52 
 -13   5   0    0.60    0.59 
  14  -5   0   -0.35    0.61 
 -14  -5   0   -0.57    0.92 
  14  -5   0   -0.23    0.73 
 -14   5   0   -0.05    0.66 
   3  -6   0    0.91    0.61 
   4  -6   0    0.79    0.66 
  -4  -6   0   -0.44    0.71 
  -4   6   0    0.40    0.37 
  -5  -6   0    1.10    0.75 
   5  -6   0   -0.53    0.72 
  -5   6   0   -0.43    0.41 
  -5   6   0   -0.44    0.59 
   6  -6   0    0.65    0.76 
  -6  -6   0    1.43    0.74 
  -6   6   0    0.70    0.47 
  -6   6   0    1.56    0.77 
   7  -6   0    3.29    0.87 
  -7  -6   0    2.69    0.86 
  -7   6   0    3.42    0.85 
  -7   6   0    3.07    0.66 
   8  -6   0    5.04    1.02 
  -8  -6   0    5.35    0.95 
  -8   6   0    5.17    0.97 
  -8   6   0    4.77    1.14 
   9  -6   0    0.67    0.50 
   9  -6   0    0.84    0.92 
  -9  -6   0   -0.47    0.83 
  -9   6   0    0.33    0.57 
 -20   0   1   -0.35    0.69 
  20   0  -1   -0.83    0.69 
 -20   0   1    1.53    0.91 
 -19   0   1    0.25    0.76 
  19   0  -1   -0.19    0.63 
 -19   0   1    0.79    0.60 
 -18   0   1    0.46    0.67 
  18   0  -1    0.11    0.56 
 -18   0   1    0.32    0.80 
 -17   0   1    0.28    0.47 
 -17   0   1   -0.26    0.45 
  17   0  -1   -0.28    0.50 
  17   0  -1    0.35    0.51 
 -16   0   1    0.27    0.42 
  16   0  -1   -0.21    0.45 
 -16   0   1    0.75    0.43 
  16   0  -1   -0.13    0.40 
  15   0  -1    0.09    0.34 
  15   0  -1   -0.04    0.41 
 -15   0   1    0.34    0.39 
 -15   0   1   -0.14    0.35 
 -14   0   1   -0.22    0.34 
  14   0  -1   -0.29    0.35 
 -14   0   1    0.07    0.44 
  14   0  -1   -0.19    0.28 
 -13   0   1    0.47    0.29 
  13   0  -1    0.18    0.31 
  13   0  -1    0.03    0.29 
 -13   0   1   -0.05    0.23 
  12   0  -1    0.27    0.24 
 -12   0   1    0.00    0.21 
  12   0  -1    0.37    0.28 
 -12   0   1    0.11    0.25 
  11   0  -1    0.06    0.22 
 -11   0   1    0.23    0.19 
  11   0  -1   -0.09    0.20 
 -11   0   1   -0.02    0.17 
 -10   0   1    0.37    0.18 
  10   0  -1    0.16    0.19 
  10   0  -1    0.07    0.20 
 -10   0   1    0.06    0.17 
  -9   0   1    0.15    0.16 
  -9   0   1   -0.10    0.15 
   9   0  -1   -0.21    0.18 
   9   0  -1   -0.11    0.18 
  -8   0   1   -0.10    0.12 
   8   0  -1    0.03    0.17 
   8   0  -1   -0.09    0.17 
  -8   0   1   -0.09    0.15 
   7   0  -1    0.04    0.14 
   7   0  -1   -0.03    0.14 
  -7   0   1    0.04    0.13 
  -7   0   1    0.13    0.12 
   6   0  -1    0.08    0.13 
   6   0  -1   -0.08    0.13 
  -6   0   1    0.00    0.12 
  -6   0   1    0.11    0.11 
   5   0  -1   -0.03    0.12 
  -5   0   1    0.03    0.12 
   5   0  -1   -0.09    0.12 
  -5   0   1   -0.23    0.11 
  -4   0   1   -0.02    0.11 
   4   0  -1   -0.11    0.10 
  -4   0   1   -0.12    0.10 
   4   0  -1   -0.18    0.11 
  -3   0   1   -0.14    0.08 
   3   0  -1   -0.14    0.08 
  -3   0   1   -0.12    0.08 
   3   0  -1   -0.15    0.07 
   2   0  -1   -1.21    0.06 
  -2   0   1   -1.22    0.04 
  -2   0   1   -1.18    0.04 
   2   0   1   -0.34    0.07 
  -2   0  -1   -0.36    0.06 
   2   0   1   -0.42    0.08 
  -2   0  -1   -0.37    0.05 
   3   0   1    0.03    0.11 
   3   0   1    0.05    0.12 
  -3   0  -1    0.00    0.11 
  -3   0  -1    0.02    0.10 
   4   0   1   -0.15    0.13 
   4   0   1   -0.20    0.12 
  -4   0  -1   -0.10    0.13 
  -4   0  -1   -0.17    0.13 
   5   0   1   -0.02    0.14 
  -5   0  -1    0.23    0.14 
   6   0   1   -0.17    0.14 
   6   0   1   -0.05    0.13 
  -6   0  -1   -0.09    0.12 
  -6   0  -1   -0.18    0.12 
   7   0   1   -0.08    0.16 
  -7   0  -1   -0.12    0.13 
   7   0   1   -0.21    0.15 
  -7   0  -1   -0.09    0.13 
  -8   0  -1   -0.10    0.14 
  -8   0  -1   -0.15    0.14 
   8   0   1   -0.19    0.18 
   8   0   1   -0.24    0.15 
   9   0   1   -0.04    0.19 
  -9   0  -1   -0.08    0.15 
  -9   0  -1   -0.01    0.17 
   9   0   1   -0.12    0.20 
  10   0   1    0.01    0.21 
 -10   0  -1   -0.09    0.17 
  10   0   1    0.20    0.20 
 -10   0  -1    0.14    0.18 
  11   0   1    0.22    0.27 
 -11   0  -1    0.05    0.18 
 -11   0  -1    0.09    0.20 
  11   0   1    0.03    0.22 
  12   0   1    0.12    0.27 
 -12   0  -1   -0.13    0.23 
  12   0   1   -0.06    0.26 
 -12   0  -1    0.25    0.20 
 -13   0  -1   -0.33    0.26 
  13   0   1   -0.31    0.34 
  13   0   1   -0.08    0.31 
 -13   0  -1    0.03    0.26 
 -14   0  -1    0.19    0.34 
  14   0   1    0.33    0.36 
 -14   0  -1    0.67    0.59 
  14   0   1   -0.53    0.38 
 -15   0  -1   -0.02    0.42 
 -15   0  -1   -0.39    0.35 
  15   0   1   -0.14    0.38 
 -16   0  -1    0.02    0.40 
  16   0   1   -0.16    0.43 
  16   0   1   -0.36    0.49 
 -16   0  -1    0.66    0.45 
  17   0   1    0.66    0.58 
  17   0   1    0.61    0.63 
 -17   0  -1    0.22    0.44 
 -17   0  -1    1.19    0.53 
  18   0   1   -0.05    0.72 
 -18   0  -1    0.54    0.50 
 -18   0  -1    1.62    0.83 
  19   0   1   -0.58    0.63 
  19   0   1   -0.67    0.69 
 -19   0  -1   -0.58    0.55 
 -19   0  -1    1.69    0.75 
  20   0   1    0.47    0.82 
 -20   0  -1    0.65    0.93 
  20   0   1    0.18    0.75 
 -20  -1   1    1.32    1.16 
 -20  -1   1   -0.89    0.68 
  20  -1  -1   -0.57    0.79 
  20   1  -1   -0.60    0.66 
 -20   1   1    0.47    0.71 
 -20   1   1    1.67    0.82 
  19  -1  -1   -0.43    0.61 
  19  -1  -1    0.12    0.79 
 -19  -1   1    0.27    0.89 
 -19  -1   1    0.84    0.57 
 -19   1   1   -0.73    0.58 
  19   1  -1   -0.35    0.61 
 -19   1   1    0.69    0.67 
 -18  -1   1    3.62    0.71 
 -18  -1   1    2.18    0.60 
  18  -1  -1    2.39    0.75 
  18  -1  -1    2.00    0.70 
 -18   1   1    3.10    0.62 
 -18   1   1    2.56    0.62 
 -17  -1   1   20.05    1.96 
 -17  -1   1   20.26    1.92 
  17   1  -1   23.55    2.00 
 -17   1   1   19.50    1.90 
 -17   1   1   21.71    1.90 
 -16  -1   1   10.49    1.08 
  16  -1  -1   12.26    1.16 
 -16  -1   1    7.99    1.03 
 -16   1   1    9.25    0.99 
 -16   1   1    9.32    1.02 
  16   1  -1    9.65    1.06 
 -15  -1   1    6.25    1.06 
  15  -1  -1    9.45    0.96 
 -15  -1   1    7.27    1.10 
 -15   1   1    8.74    0.87 
  15   1  -1    8.49    0.91 
 -15   1   1    8.24    0.85 
 -14  -1   1    1.71    0.43 
  14  -1  -1    1.21    0.43 
  14  -1  -1    2.34    0.42 
 -14  -1   1    1.64    0.38 
  14   1  -1    1.59    0.38 
 -14   1   1    1.48    0.33 
 -14   1   1    1.52    0.37 
  13  -1  -1    8.38    0.89 
  13  -1  -1    8.69    0.89 
 -13  -1   1    7.84    0.85 
 -13  -1   1    8.78    0.83 
  13   1  -1    8.56    0.84 
  12  -1  -1    6.82    0.71 
 -12  -1   1    6.60    0.68 
 -12  -1   1    6.87    0.68 
  12  -1  -1    7.64    0.73 
 -12   1   1    6.34    0.67 
  12   1  -1    5.99    0.67 
 -12   1   1    5.98    0.66 
 -11  -1   1    1.95    0.31 
  11  -1  -1    2.60    0.37 
  11  -1  -1    2.71    0.39 
 -11  -1   1    1.96    0.36 
  11   1  -1    2.32    0.33 
 -11   1   1    1.80    0.35 
 -11   1   1    2.05    0.33 
  10  -1  -1    0.37    0.25 
  10  -1  -1    0.53    0.23 
 -10  -1   1    0.09    0.19 
 -10  -1   1    0.22    0.16 
 -10   1   1    0.53    0.19 
 -10   1   1    0.56    0.19 
  10   1  -1    0.42    0.18 
  -9  -1   1   20.89    1.83 
   9  -1  -1   23.07    1.86 
  -9  -1   1   22.04    1.82 
   9  -1  -1   21.43    1.85 
  -9   1   1   23.09    1.84 
  -9   1   1   21.85    1.84 
   9   1  -1   20.41    1.83 
  -8  -1   1  122.79   10.69 
  -8  -1   1  135.68   10.69 
   8  -1  -1  134.25   10.71 
   8  -1  -1  145.82   10.72 
   8   1  -1  119.24   10.69 
  -8   1   1  134.06   10.71 
  -8   1   1  127.03   10.71 
  -7  -1   1    2.37    0.29 
  -7  -1   1    2.48    0.29 
   7  -1  -1    2.00    0.33 
   7  -1  -1    2.48    0.33 
  -7   1   1    2.26    0.32 
   7   1  -1    1.87    0.28 
  -7   1   1    2.54    0.33 
  -6  -1   1   10.43    0.87 
   6  -1  -1   10.26    0.90 
   6  -1  -1   10.57    0.91 
  -6   1   1    9.79    0.90 
  -6   1   1   10.47    0.90 
   5  -1  -1  169.12   13.27 
   5  -1  -1  174.56   13.27 
   5   1  -1  138.48   13.25 
  -5   1   1  166.00   13.27 
  -5   1   1  167.09   13.27 
  -4  -1   1   81.32    7.50 
   4  -1  -1  100.08    7.52 
   4  -1  -1   94.11    7.51 
  -4   1   1   92.70    7.51 
  -4   1   1   92.84    7.51 
   3  -1  -1  238.58   18.94 
   3  -1  -1  226.64   18.95 
  -3   1   1  233.87   18.94 
  -3   1   1  232.73   18.94 
   2  -1  -1   91.52    7.32 
   2  -1  -1   87.99    7.31 
  -2   1   1   92.34    7.31 
  -2   1   1   87.44    7.31 
   1  -1  -1   30.56    2.58 
  -1   1   1   33.41    2.59 
  -1   1   1   30.41    2.57 
   0  -1  -1   20.58    1.61 
   0   1   1   19.08    1.60 
   0   1   1   18.02    1.61 
   1  -1   1    6.58    0.58 
   1  -1   1    6.69    0.59 
   2  -1   1  640.27   56.52 
  -2  -1  -1  661.92   56.52 
   2  -1   1  700.24   56.55 
   2   1   1  722.27   56.53 
  -2   1  -1  701.34   56.53 
  -2   1  -1  745.83   56.55 
   3  -1   1   43.58    3.88 
   3  -1   1   46.52    3.89 
  -3  -1  -1   52.24    3.88 
  -3   1  -1   47.43    3.89 
   3   1   1   49.36    3.87 
  -3   1  -1   45.63    3.88 
   4  -1   1   20.91    1.76 
   4  -1   1   20.56    1.75 
  -4  -1  -1   22.19    1.75 
  -4   1  -1   20.75    1.76 
   4   1   1   21.11    1.74 
  -4   1  -1   20.65    1.75 
   5  -1   1   20.65    1.72 
   5  -1   1   21.37    1.73 
  -5  -1  -1   20.06    1.71 
  -5   1  -1   20.22    1.73 
   5   1   1   21.44    1.70 
  -5   1  -1   19.74    1.72 
   6  -1   1    9.71    0.89 
   6  -1   1   10.62    0.89 
  -6  -1  -1    9.78    0.87 
  -6   1  -1    9.78    0.89 
  -6   1  -1   10.01    0.88 
   6   1   1   10.25    0.86 
   7  -1   1    1.92    0.32 
   7  -1   1    1.60    0.30 
  -7  -1  -1    1.74    0.28 
  -7  -1  -1    1.48    0.28 
   7   1   1    1.48    0.28 
  -7   1  -1    1.90    0.31 
  -7   1  -1    1.75    0.33 
   7   1   1    1.96    0.28 
   8  -1   1   57.86    4.38 
   8  -1   1   54.65    4.37 
  -8  -1  -1   49.06    4.35 
  -8  -1  -1   52.07    4.35 
   8   1   1   47.45    4.34 
  -8   1  -1   53.02    4.37 
  -8   1  -1   52.40    4.36 
   8   1   1   57.69    4.35 
   9  -1   1    0.23    0.22 
  -9  -1  -1    0.07    0.19 
  -9  -1  -1   -0.12    0.16 
   9  -1   1    0.51    0.21 
   9   1   1    0.15    0.18 
   9   1   1    0.15    0.18 
  -9   1  -1    0.00    0.19 
  -9   1  -1    0.04    0.20 
 -10  -1  -1    2.61    0.36 
 -10  -1  -1    2.88    0.39 
  10  -1   1    2.94    0.41 
  10  -1   1    2.70    0.41 
  10   1   1    2.97    0.39 
 -10   1  -1    2.71    0.39 
  10   1   1    2.45    0.39 
 -10   1  -1    2.00    0.38 
  11  -1   1    1.72    0.34 
  11  -1   1    1.32    0.30 
 -11  -1  -1    1.50    0.28 
 -11  -1  -1    1.44    0.27 
  11   1   1    1.01    0.28 
 -11   1  -1    1.36    0.27 
 -11   1  -1    1.08    0.28 
  11   1   1    1.24    0.27 
  12  -1   1    9.88    0.95 
 -12  -1  -1   10.39    0.92 
  12  -1   1   10.06    0.95 
 -12  -1  -1    9.88    0.93 
  12   1   1    9.08    0.91 
 -12   1  -1    9.66    0.92 
  12   1   1    8.22    0.89 
 -12   1  -1   10.26    0.91 
  13  -1   1   30.29    2.34 
 -13  -1  -1   26.12    2.31 
 -13  -1  -1   27.92    2.31 
  13  -1   1   29.68    2.34 
 -13   1  -1   22.71    2.33 
 -13   1  -1   27.91    2.33 
  13   1   1   24.92    2.30 
  14  -1   1   20.01    1.73 
 -14  -1  -1   21.04    1.73 
  14  -1   1   22.80    1.77 
 -14  -1  -1   17.00    1.73 
 -14   1  -1   22.10    1.70 
  14   1   1   18.12    1.71 
  14   1   1   16.82    1.66 
 -14   1  -1   16.61    1.69 
 -15  -1  -1   14.97    1.39 
  15  -1   1   14.99    1.44 
 -15   1  -1   13.17    1.35 
  15   1   1   14.66    1.41 
 -15   1  -1   15.42    1.35 
  16  -1   1    0.49    0.46 
  16  -1   1    0.25    0.54 
 -16  -1  -1   -0.13    0.36 
 -16  -1  -1    0.69    0.51 
  16   1   1    0.41    0.41 
 -16   1  -1    0.47    0.41 
 -16   1  -1    0.13    0.38 
  16   1   1    0.18    0.41 
  17  -1   1   -0.10    0.59 
 -17  -1  -1    1.03    0.64 
 -17  -1  -1    0.47    0.43 
 -17   1  -1    0.71    0.44 
 -17   1  -1    1.59    0.48 
  17   1   1   -0.09    0.46 
  17   1   1    0.48    0.48 
 -18  -1  -1    2.79    0.85 
 -18  -1  -1    2.27    0.60 
  18  -1   1    1.65    0.72 
  18  -1   1    1.97    0.81 
  18   1   1    2.13    0.64 
 -18   1  -1    3.11    0.59 
 -18   1  -1    2.16    0.55 
 -19  -1  -1    0.91    0.87 
 -19  -1  -1   -0.57    0.59 
  19  -1   1    0.25    0.77 
 -19   1  -1    1.03    0.55 
 -19   1  -1    1.21    0.69 
 -20  -1  -1    3.57    1.37 
  20  -1   1    6.76    1.08 
 -20  -1  -1    5.07    0.92 
  20  -1   1    4.73    1.04 
 -20   1  -1    3.36    0.99 
  20   1   1    6.76    1.07 
 -20   1  -1    6.66    1.04 
 -19  -2   1    1.77    1.10 
  19  -2  -1   -0.29    0.86 
 -19  -2   1   -0.17    0.63 
  19  -2  -1   -0.38    0.60 
 -19   2   1    0.08    0.56 
 -19   2   1    1.05    0.64 
  18  -2  -1    1.20    0.58 
 -18  -2   1    0.97    0.58 
 -18  -2   1    1.40    0.91 
  18  -2  -1    0.38    0.79 
  18   2  -1    0.83    0.56 
 -18   2   1    2.05    0.55 
 -18   2   1    1.60    0.54 
 -17  -2   1   13.57    1.43 
 -17  -2   1   13.57    1.57 
 -17   2   1   12.88    1.43 
 -17   2   1   16.32    1.43 
  17   2  -1   14.72    1.46 
  16  -2  -1    0.24    0.61 
 -16   2   1    0.18    0.46 
 -16   2   1    0.00    0.42 
  16   2  -1   -0.28    0.38 
 -15  -2   1    9.67    0.98 
 -15  -2   1    8.04    0.97 
 -15   2   1    8.06    0.91 
 -15   2   1    8.41    0.93 
 -14  -2   1    1.34    0.45 
  14  -2  -1    0.63    0.44 
 -14  -2   1    1.13    0.33 
 -14   2   1    0.82    0.38 
 -14   2   1    1.47    0.35 
  13  -2  -1    3.40    0.69 
 -13  -2   1    2.28    0.38 
 -13  -2   1    2.42    0.44 
  13  -2  -1    2.41    0.44 
 -13   2   1    1.95    0.42 
 -13   2   1    2.21    0.39 
 -12  -2   1    0.60    0.25 
 -12  -2   1    0.54    0.31 
  12  -2  -1    0.72    0.32 
  12  -2  -1    0.83    0.35 
 -12   2   1    0.97    0.33 
 -12   2   1    0.72    0.27 
  11  -2  -1    0.04    0.28 
  11  -2  -1   -0.19    0.26 
 -11  -2   1    0.00    0.21 
 -11   2   1   -0.11    0.22 
 -11   2   1   -0.08    0.24 
  10  -2  -1    4.69    0.57 
  10  -2  -1    5.56    0.58 
 -10  -2   1    4.98    0.51 
 -10   2   1    4.38    0.53 
 -10   2   1    4.26    0.56 
   9  -2  -1   -0.26    0.23 
  -9  -2   1    0.12    0.16 
   9  -2  -1    0.01    0.21 
  -9   2   1    0.14    0.17 
  -9   2   1    0.08    0.20 
   8  -2  -1    7.78    0.73 
   8  -2  -1    7.24    0.71 
  -8   2   1    7.10    0.69 
  -8   2   1    7.07    0.69 
   7  -2  -1   52.53    4.15 
   7  -2  -1   51.75    4.15 
  -7   2   1   48.78    4.14 
  -7   2   1   47.96    4.14 
   6  -2  -1  108.73    8.70 
   6  -2  -1  109.26    8.69 
  -6   2   1  103.83    8.69 
  -6   2   1  103.83    8.69 
   5  -2  -1    0.52    0.19 
   5  -2  -1    0.07    0.18 
  -5   2   1    0.00    0.15 
  -5   2   1    0.52    0.16 
   4  -2  -1    5.45    0.52 
   4  -2  -1    5.34    0.53 
  -4   2   1    5.37    0.51 
  -4   2   1    5.20    0.51 
   3  -2  -1   25.82    2.17 
   3  -2  -1   26.43    2.16 
  -3   2   1   27.03    2.16 
  -3   2   1   25.08    2.16 
   2  -2  -1   11.79    1.06 
   2  -2  -1   12.32    1.04 
  -2   2   1   11.71    1.05 
  -2   2   1   11.96    1.07 
  -2   2   1   13.57    1.04 
   1  -2  -1    0.82    0.17 
  -1  -2   1    0.90    0.17 
  -1  -2   1    1.20    0.20 
  -1   2   1    1.47    0.21 
  -1   2   1    1.52    0.24 
   0  -2  -1   55.72    4.61 
   0  -2   1   62.71    4.60 
   0  -2  -1   57.56    4.62 
   0   2   1   57.80    4.60 
   0   2   1   47.74    4.60 
   1  -2   1    0.26    0.13 
  -1  -2  -1    0.09    0.10 
   1   2   1    0.11    0.08 
   1   2   1    0.03    0.11 
  -1   2  -1    0.08    0.12 
   2  -2   1   13.91    1.18 
   2  -2   1   14.88    1.18 
  -2   2  -1   15.66    1.18 
   2   2   1   11.39    1.15 
  -3  -2  -1    7.02    0.72 
   3  -2   1    8.89    0.74 
   3  -2   1    7.94    0.74 
  -3   2  -1    8.79    0.74 
  -3   2  -1    9.06    0.76 
  -4  -2  -1   17.58    1.44 
   4  -2   1   15.91    1.44 
   4  -2   1   17.20    1.45 
  -4   2  -1   17.93    1.46 
  -4   2  -1   16.82    1.44 
   5  -2   1   15.16    1.32 
   5  -2   1   14.61    1.32 
  -5  -2  -1   16.53    1.32 
  -5   2  -1   15.47    1.33 
  -5   2  -1   15.05    1.31 
   6  -2   1    3.67    0.46 
   6  -2   1    4.53    0.45 
  -6   2  -1    4.15    0.45 
  -6   2  -1    3.65    0.48 
   7  -2   1    0.05    0.19 
  -7  -2  -1    0.04    0.18 
   7  -2   1    0.83    0.21 
  -7   2  -1    0.37    0.17 
  -7   2  -1    0.19    0.21 
   8  -2   1    6.09    0.63 
   8  -2   1    5.77    0.64 
  -8  -2  -1    7.04    0.64 
  -8   2  -1    6.09    0.62 
  -8   2  -1    6.32    0.64 
   9  -2   1    6.69    0.69 
   9  -2   1    6.45    0.70 
  -9  -2  -1    7.89    0.70 
  -9   2  -1    6.67    0.68 
  -9   2  -1    6.32    0.67 
  10  -2   1   29.07    2.48 
 -10  -2  -1   31.06    2.48 
  10  -2   1   30.34    2.49 
 -10   2  -1   28.40    2.47 
 -10   2  -1   27.98    2.48 
 -11  -2  -1   -0.02    0.26 
  11  -2   1    0.24    0.28 
  11  -2   1    0.66    0.29 
 -11   2  -1    0.41    0.25 
 -11   2  -1    0.31    0.26 
  12  -2   1    0.22    0.31 
 -12  -2  -1    0.33    0.30 
  12  -2   1    0.44    0.32 
 -12   2  -1    0.39    0.28 
 -12   2  -1    0.42    0.26 
 -13  -2  -1    0.78    0.36 
  13  -2   1    0.72    0.38 
  13  -2   1    0.83    0.37 
 -13   2  -1    1.34    0.35 
 -13   2  -1    1.29    0.34 
 -14  -2  -1    6.13    0.84 
  14  -2   1    7.10    0.83 
  14   2   1    5.46    0.72 
 -14   2  -1    6.07    0.77 
 -14   2  -1    6.22    0.75 
  15  -2   1    0.21    0.50 
 -15  -2  -1    0.29    0.59 
 -15  -2  -1    0.71    0.44 
 -15   2  -1    0.58    0.40 
 -15   2  -1   -0.08    0.38 
 -16  -2  -1   18.84    1.71 
 -16   2  -1   15.81    1.63 
  16   2   1   16.88    1.63 
 -16   2  -1   18.16    1.63 
 -17  -2  -1    9.79    1.12 
  17  -2   1    8.89    1.50 
 -17  -2  -1    7.52    1.41 
 -17   2  -1    7.25    0.97 
 -17   2  -1    6.92    0.95 
  17   2   1    5.94    1.07 
 -18  -2  -1    3.46    0.78 
 -18  -2  -1    3.24    1.04 
  18  -2   1    3.17    0.75 
  18  -2   1    3.66    0.84 
 -18   2  -1    3.81    0.71 
  18   2   1    2.96    0.63 
 -18   2  -1    3.23    0.70 
 -19  -2  -1    1.27    0.68 
  19  -2   1   -0.51    0.88 
  19  -2   1    0.49    0.73 
 -19   2  -1    0.93    0.69 
  19   2   1   -0.33    0.67 
 -19   2  -1   -0.30    0.61 
  18  -3  -1   -0.26    0.56 
  18  -3  -1    0.49    0.87 
 -18  -3   1   -0.34    0.74 
 -18   3   1    0.73    0.57 
 -18   3   1    1.26    0.62 
  17  -3  -1   -0.21    0.54 
 -17  -3   1    0.57    0.62 
  17  -3  -1   -0.48    0.75 
 -17   3   1    1.93    0.58 
 -17   3   1   -0.46    0.52 
 -16  -3   1    7.01    0.93 
 -16   3   1    6.80    0.93 
 -16   3   1    5.43    0.88 
  15  -3  -1    2.17    0.53 
  15  -3  -1    1.97    0.78 
 -15   3   1    1.88    0.49 
 -14  -3   1    0.24    0.46 
  14  -3  -1   -0.23    0.38 
 -14   3   1    0.42    0.38 
 -14   3   1    0.38    0.39 
  13  -3  -1    4.70    0.74 
  13  -3  -1    3.89    0.68 
 -13  -3   1    4.85    0.77 
 -13   3   1    4.09    0.63 
 -13   3   1    3.47    0.66 
 -12  -3   1    4.61    0.68 
  12  -3  -1    4.87    0.75 
  12  -3  -1    4.17    0.65 
 -12   3   1    3.52    0.61 
 -12   3   1    3.14    0.62 
 -11  -3   1    0.48    0.35 
  11  -3  -1    0.97    0.35 
 -11   3   1    0.45    0.31 
 -11   3   1    1.12    0.35 
  10  -3  -1   -0.01    0.32 
 -10  -3   1    0.53    0.31 
  10  -3  -1   -0.09    0.39 
 -10   3   1   -0.01    0.28 
   9  -3  -1   -0.09    0.30 
   9  -3  -1    0.37    0.29 
  -9   3   1    0.09    0.25 
  -9   3   1    0.18    0.26 
   8  -3  -1    0.88    0.31 
   8  -3  -1    1.07    0.31 
  -8   3   1    0.87    0.26 
  -8   3   1    1.14    0.29 
   7  -3  -1   13.26    1.18 
   7  -3  -1   12.53    1.17 
  -7   3   1   13.69    1.17 
  -7   3   1   12.54    1.17 
   6  -3  -1    0.20    0.24 
   6  -3  -1    0.23    0.24 
  -6   3   1    0.15    0.22 
  -6   3   1    0.55    0.23 
   5  -3  -1    2.47    0.40 
   5  -3  -1    2.40    0.38 
  -5   3   1    3.04    0.39 
  -5   3   1    2.29    0.38 
   4  -3  -1    4.73    0.49 
   4  -3  -1    4.40    0.53 
  -4   3   1    5.38    0.52 
  -4   3   1    4.18    0.55 
  -4   3   1    4.40    0.50 
   3  -3  -1    1.03    0.24 
  -3  -3   1    0.68    0.19 
  -3  -3   1    0.73    0.18 
  -3   3   1    0.71    0.22 
  -3   3   1    1.17    0.22 
  -2  -3   1    2.01    0.32 
  -2  -3   1    2.77    0.32 
   2  -3  -1    2.39    0.37 
  -2   3   1    2.56    0.36 
  -2   3   1    2.39    0.39 
   1  -3  -1   -0.42    0.19 
  -1  -3   1   -0.08    0.17 
  -1   3   1    0.04    0.17 
  -1   3   1   -0.08    0.14 
   0  -3  -1    0.73    0.21 
   0  -3  -1    0.60    0.22 
   0  -3   1    0.55    0.21 
   0   3   1    1.00    0.18 
   0   3   1    0.52    0.15 
  -1  -3  -1   23.13    1.93 
   1  -3   1   21.62    1.90 
   1   3   1   23.23    1.88 
  -2  -3  -1    4.83    0.55 
   2  -3   1    5.35    0.57 
  -2   3  -1    6.04    0.57 
   3  -3   1   20.44    1.63 
  -3  -3  -1   17.85    1.62 
   4  -3   1    1.10    0.25 
   4  -3   1    0.56    0.22 
  -4  -3  -1    0.86    0.21 
  -4   3  -1    1.17    0.23 
  -4   3  -1    0.86    0.23 
   5  -3   1    0.42    0.22 
   5  -3   1   -0.19    0.21 
  -5  -3  -1    0.19    0.20 
  -5   3  -1    0.11    0.19 
  -5   3  -1    0.17    0.23 
   6  -3   1    0.42    0.23 
   6  -3   1   -0.09    0.23 
  -6  -3  -1    0.06    0.22 
  -6   3  -1    0.09    0.20 
  -6   3  -1    0.12    0.25 
  -7  -3  -1    0.83    0.30 
   7  -3   1    1.11    0.30 
   7  -3   1    1.77    0.29 
  -7   3  -1    1.22    0.28 
  -7   3  -1    1.12    0.30 
  -8  -3  -1   15.69    1.32 
   8  -3   1   14.66    1.29 
   8  -3   1   12.96    1.30 
  -8   3  -1   14.10    1.29 
  -8   3  -1   14.70    1.31 
  -9  -3  -1   49.48    3.58 
   9  -3   1   43.37    3.56 
   9  -3   1   40.19    3.55 
  -9   3  -1   39.86    3.55 
  -9   3  -1   39.90    3.56 
  10  -3   1   -0.11    0.46 
  10  -3   1    0.21    0.31 
 -10  -3  -1   -0.18    0.31 
 -10   3  -1    0.74    0.36 
 -10   3  -1    0.38    0.31 
  11  -3   1    3.95    0.52 
  11  -3   1    2.56    0.57 
 -11  -3  -1    3.26    0.54 
 -11   3  -1    3.29    0.58 
 -11   3  -1    3.54    0.57 
  12  -3   1    5.59    0.77 
 -12  -3  -1    6.03    0.81 
 -12   3  -1    5.69    0.75 
 -12   3  -1    5.62    0.71 
  13  -3   1    0.06    0.44 
 -13  -3  -1    0.24    0.41 
 -13   3  -1    0.16    0.33 
 -13   3  -1    0.61    0.38 
  14  -3   1    1.29    0.46 
 -14   3  -1    1.09    0.43 
 -14   3  -1    0.88    0.46 
 -15  -3  -1    0.19    0.54 
  15  -3   1    0.03    0.54 
  15  -3   1   -0.16    0.45 
 -15   3  -1   -0.82    0.47 
 -15   3  -1    0.35    0.47 
 -16  -3  -1    0.99    0.62 
  16  -3   1    1.65    0.62 
  16  -3   1    0.65    0.56 
 -16   3  -1    1.04    0.53 
 -16   3  -1    1.06    0.51 
 -17  -3  -1    0.14    0.67 
  17  -3   1    0.65    0.63 
  17  -3   1    1.12    0.71 
 -17   3  -1    0.53    0.58 
 -17   3  -1   -0.55    0.61 
  18  -3   1    0.38    0.81 
 -18  -3  -1   -0.06    0.76 
  18  -3   1    0.85    0.80 
 -18   3  -1   -0.37    0.62 
 -18   3  -1    1.14    0.73 
 -16  -4   1    6.45    1.06 
 -16   4   1    8.16    1.36 
 -16   4   1    7.02    1.07 
 -15  -4   1    4.28    0.84 
  15  -4  -1    4.14    0.77 
  15  -4  -1    2.85    0.75 
 -15   4   1    3.07    0.73 
 -15   4   1    4.24    0.75 
  14  -4  -1    0.70    0.50 
  14  -4  -1    1.12    0.69 
 -14   4   1    2.17    0.58 
 -14   4   1    0.05    0.58 
 -13  -4   1    0.67    0.52 
  13  -4  -1   -0.03    0.45 
 -13   4   1    0.58    0.51 
 -13   4   1   -0.70    0.49 
  12  -4  -1    5.58    0.84 
 -12  -4   1    6.87    0.93 
 -12   4   1    6.62    0.93 
 -12   4   1    5.30    0.79 
 -11  -4   1    3.15    0.67 
  11  -4  -1    3.76    0.68 
 -11   4   1    5.69    0.78 
 -11   4   1    4.69    0.68 
  10  -4  -1   18.85    1.69 
  10  -4  -1   17.18    1.71 
 -10   4   1   18.72    1.72 
 -10   4   1   20.18    1.70 
  -9  -4   1    7.72    0.93 
   9  -4  -1    7.18    0.84 
   9  -4  -1    7.37    0.87 
  -9   4   1    8.02    0.86 
  -9   4   1    8.08    1.20 
   8  -4  -1    4.12    0.62 
   8  -4  -1    4.78    0.67 
  -8  -4   1    3.75    0.72 
  -8   4   1    4.48    0.66 
  -8   4   1    4.53    0.66 
   7  -4  -1    1.37    0.37 
  -7  -4   1    1.60    0.38 
  -7   4   1    1.44    0.35 
  -7   4   1    1.46    0.38 
  -7   4   1    0.96    0.41 
  -6  -4   1   12.38    1.18 
   6  -4  -1   12.59    1.17 
   6  -4  -1   12.31    1.22 
  -6   4   1   13.01    1.19 
  -6   4   1   13.47    1.20 
  -6   4   1   12.56    1.25 
   5  -4  -1   12.02    1.13 
  -5  -4   1   10.38    1.07 
   5  -4  -1   11.25    1.06 
  -5   4   1   11.48    1.14 
  -5   4   1   12.40    1.09 
  -5   4   1   11.93    1.09 
   4  -4  -1    1.50    0.38 
  -4  -4   1    0.80    0.30 
  -4   4   1    1.71    0.32 
  -4   4   1    1.50    0.33 
  -4   4   1    1.11    0.35 
  -3  -4   1    0.93    0.34 
   3  -4  -1    1.84    0.37 
  -3  -4   1    1.53    0.32 
  -3   4   1    1.56    0.32 
  -3   4   1    1.56    0.35 
   2  -4  -1    4.93    0.61 
  -2  -4   1    4.18    0.54 
  -2  -4   1    3.28    0.62 
  -2   4   1    4.96    0.57 
  -2   4   1    4.89    0.53 
  -1  -4   1    1.02    0.31 
  -1  -4   1    0.67    0.36 
   1  -4  -1    1.54    0.35 
  -1   4   1    1.63    0.28 
  -1   4   1    1.06    0.25 
   0  -4   1    7.13    0.75 
   0  -4  -1    7.56    0.78 
  -1  -4  -1   20.55    1.78 
   1  -4   1   19.56    1.73 
   2  -4   1    2.60    0.47 
  -2  -4  -1    2.07    0.39 
  -2   4  -1    1.51    0.31 
   3  -4   1    0.72    0.32 
  -3  -4  -1    0.94    0.31 
  -3   4  -1    1.17    0.34 
  -3   4  -1    1.25    0.28 
   4  -4   1    2.21    0.43 
  -4  -4  -1    3.00    0.49 
  -4   4  -1    3.41    0.49 
  -4   4  -1    2.74    0.47 
   5  -4   1    0.21    0.33 
   5  -4   1   -0.09    0.26 
  -5  -4  -1    0.31    0.26 
  -5   4  -1   -0.25    0.29 
  -5   4  -1    0.38    0.26 
  -6  -4  -1   13.24    1.20 
   6  -4   1   12.52    1.15 
   6  -4   1   12.25    1.19 
  -6   4  -1   10.47    1.25 
  -6   4  -1   13.79    1.18 
  -7  -4  -1   12.67    1.22 
   7  -4   1   11.04    1.19 
   7  -4   1   13.17    1.16 
  -7   4  -1   12.58    1.19 
   8  -4   1   51.87    4.56 
  -8  -4  -1   58.12    4.58 
   8  -4   1   55.13    4.55 
  -8   4  -1   53.75    4.55 
   9  -4   1    0.00    0.35 
   9  -4   1    0.19    0.35 
  -9  -4  -1    0.32    0.47 
  -9   4  -1    0.63    0.45 
 -10  -4  -1    9.65    1.15 
  10  -4   1    8.38    1.00 
  10  -4   1    8.52    0.95 
 -10   4  -1    9.26    0.97 
  11  -4   1    0.31    0.45 
  11  -4   1    0.64    0.37 
 -11  -4  -1    0.19    0.48 
 -11   4  -1    0.60    0.38 
 -11   4  -1    0.15    0.44 
  12  -4   1    0.05    0.49 
 -12  -4  -1   -1.01    0.51 
 -12   4  -1    0.46    0.36 
 -12   4  -1    0.06    0.44 
 -13  -4  -1    6.64    1.02 
  13  -4   1    5.65    0.99 
 -13   4  -1    7.16    1.00 
 -13   4  -1    6.55    0.91 
 -14  -4  -1    0.76    0.68 
  14  -4   1    0.94    0.61 
  14  -4   1    2.04    0.60 
 -14   4  -1    0.93    0.63 
 -14   4  -1    1.13    0.51 
  15  -4   1    0.44    0.57 
 -15  -4  -1   -0.21    0.68 
  15  -4   1    0.22    0.61 
 -15   4  -1    0.24    0.73 
 -15   4  -1    0.65    0.52 
  16  -4   1   -0.37    0.67 
  16  -4   1    0.29    0.75 
 -16  -4  -1    1.37    0.82 
 -16   4  -1    0.17    0.61 
  14  -5  -1   -0.11    0.60 
  14  -5  -1    1.49    0.81 
 -14  -5   1   -0.52    0.87 
 -14   5   1    1.03    0.57 
 -14   5   1    0.94    0.84 
 -13  -5   1   -0.23    0.81 
  13  -5  -1   -0.08    0.51 
  13  -5  -1    0.76    0.67 
 -13   5   1    0.21    0.77 
 -13   5   1    0.74    0.53 
  12  -5  -1    0.53    0.63 
  12  -5  -1   -0.16    0.47 
 -12   5   1    0.74    0.64 
 -12   5   1    0.19    0.57 
 -12   5   1    1.04    0.88 
  11  -5  -1    0.27    0.59 
 -11  -5   1    0.42    0.65 
  11  -5  -1    0.02    0.43 
 -11   5   1    0.32    0.57 
 -11   5   1    0.67    0.86 
 -11   5   1    0.52    0.52 
 -10  -5   1   10.07    1.20 
  10  -5  -1    8.82    1.12 
  10  -5  -1    6.22    0.98 
 -10   5   1    8.91    1.05 
  -9  -5   1    0.63    0.55 
   9  -5  -1    0.92    0.56 
   9  -5  -1   -0.07    0.37 
  -9   5   1   -0.14    0.62 
  -9   5   1    0.43    0.42 
   8  -5  -1    4.85    0.87 
  -8  -5   1    4.06    0.65 
  -8   5   1    3.83    0.71 
  -8   5   1    4.21    0.62 
  -7  -5   1    2.30    0.53 
   7  -5  -1    2.84    0.65 
  -7   5   1    3.80    0.60 
  -7   5   1    3.56    0.66 
  -6  -5   1    2.89    0.63 
   6  -5  -1    3.99    0.67 
  -6   5   1    2.75    0.70 
  -6   5   1    4.09    0.64 
   5  -5  -1    1.68    0.54 
  -5  -5   1    1.32    0.54 
  -5   5   1    1.98    0.54 
  -5   5   1    2.49    0.42 
  -4  -5   1   -0.26    0.46 
   4  -5  -1    1.32    0.50 
  -4   5   1    1.02    0.45 
  -4   5   1    0.91    0.35 
  -3  -5   1   27.22    2.50 
  -3   5   1   29.26    2.37 
  -3   5   1   26.58    2.40 
   2  -5  -1    0.54    0.46 
  -2  -5   1    0.82    0.37 
  -2   5   1    0.51    0.28 
  -2   5   1    0.33    0.33 
  -1  -5   1    7.38    0.86 
   0  -5   1    4.05    0.67 
   1  -5   1    7.37    0.86 
  -2  -5  -1   30.39    2.47 
   2  -5   1   24.24    2.36 
  -3  -5  -1    0.88    0.47 
   3  -5   1    1.36    0.45 
  -3   5  -1    0.97    0.39 
   4  -5   1    7.50    1.25 
  -4  -5  -1   10.36    1.11 
  -4   5  -1    9.81    0.95 
  -4   5  -1    7.84    1.01 
  -5  -5  -1    0.05    0.42 
   5  -5   1   -0.15    0.43 
  -5   5  -1    0.47    0.47 
  -5   5  -1    0.28    0.33 
   6  -5   1    3.05    0.56 
  -6  -5  -1    2.29    0.55 
   6  -5   1    2.14    0.45 
  -6   5  -1    3.28    0.46 
  -6   5  -1    3.31    0.61 
  -7  -5  -1    2.10    0.55 
   7  -5   1    2.40    0.57 
   7  -5   1    1.91    0.46 
  -7   5  -1    2.11    0.44 
   8  -5   1    1.03    0.46 
  -8  -5  -1    1.07    0.57 
   8  -5   1    1.41    0.55 
  -8   5  -1    1.82    0.63 
  -8   5  -1    1.43    0.44 
   9  -5   1    0.92    0.53 
   9  -5   1   -0.32    0.41 
  -9   5  -1   -0.41    0.67 
  -9   5  -1   -0.04    0.39 
  10  -5   1    2.73    0.61 
 -10  -5  -1    4.36    0.78 
  10  -5   1    4.94    0.75 
 -10   5  -1    4.06    0.62 
 -11  -5  -1    0.89    0.73 
  11  -5   1    1.13    0.51 
  11  -5   1    1.63    0.61 
 -11   5  -1    1.52    0.51 
 -11   5  -1    1.36    0.89 
  12  -5   1   -0.01    0.57 
  12  -5   1    0.23    0.53 
 -12  -5  -1    0.19    0.77 
 -12   5  -1    0.94    0.53 
  13  -5   1   -0.16    0.53 
  13  -5   1    0.69    0.62 
 -13  -5  -1   -0.02    0.81 
 -13   5  -1    0.40    0.60 
  14  -5   1   -1.01    0.57 
 -14  -5  -1   -0.10    0.93 
  14  -5   1    0.08    0.72 
 -14   5  -1   -0.12    0.60 
   9  -6  -1    1.00    0.52 
   9  -6  -1    2.91    0.89 
  -9  -6   1    0.92    0.83 
  -9   6   1    2.19    0.59 
  -9   6   1    2.14    0.95 
  -8  -6   1   -0.46    0.74 
   8  -6  -1    0.24    0.79 
  -8   6   1   -0.17    0.48 
  -7  -6   1    3.08    0.89 
   7  -6  -1    2.13    0.80 
  -7   6   1    3.24    0.61 
  -7   6   1    2.67    0.83 
  -6  -6   1    2.15    0.88 
   6  -6  -1    2.44    0.78 
  -6   6   1    2.81    0.75 
  -5  -6   1    4.99    0.89 
   5  -6  -1    3.53    0.75 
  -5   6   1    3.06    1.22 
  -5   6   1    3.44    0.58 
  -4  -6   1    0.83    0.79 
  -4   6   1    1.08    0.43 
  -4   6   1    1.17    0.57 
   1  -6   1    0.63    0.54 
   2  -6   1    5.57    1.01 
   3  -6   1    9.13    1.20 
   4  -6   1    5.25    0.87 
  -4  -6  -1    5.32    0.92 
  -5  -6  -1   12.01    1.55 
   5  -6   1   10.21    1.29 
  -5   6  -1    8.64    1.25 
   6  -6   1    2.79    0.78 
  -6  -6  -1    4.42    0.87 
  -6   6  -1    3.17    0.76 
  -6   6  -1    2.77    0.56 
   7  -6   1    1.39    0.74 
  -7  -6  -1    1.16    0.73 
  -7   6  -1    0.73    0.76 
  -7   6  -1    0.64    0.55 
  -8  -6  -1    0.33    0.77 
   8  -6   1    0.86    0.80 
  -8   6  -1    0.59    0.51 
  -8   6  -1    1.60    0.91 
   9  -6   1   -1.23    0.82 
  -9  -6  -1    0.19    0.80 
  -9   6  -1    0.24    0.52 
  20   0  -2    1.62    0.82 
 -20   0   2    2.96    0.91 
 -20   0   2    2.18    0.79 
 -19   0   2    0.78    0.69 
 -19   0   2    0.71    0.62 
  19   0  -2    0.62    0.69 
 -18   0   2    0.51    0.80 
 -18   0   2    0.27    0.54 
 -17   0   2    1.57    0.53 
 -17   0   2    1.16    0.55 
 -16   0   2   16.68    1.51 
 -16   0   2   15.28    1.51 
  16   0  -2   16.67    1.60 
  15   0  -2   45.41    3.76 
  15   0  -2   41.07    3.67 
 -15   0   2   41.70    3.71 
 -15   0   2   48.15    3.70 
  14   0  -2    0.67    0.35 
  14   0  -2    0.26    0.29 
 -14   0   2    0.78    0.37 
 -14   0   2    0.49    0.30 
 -13   0   2   30.75    2.51 
  13   0  -2   27.73    2.50 
  13   0  -2   30.87    2.52 
 -13   0   2   29.58    2.51 
  12   0  -2    2.06    0.39 
 -12   0   2    2.64    0.39 
  12   0  -2    1.49    0.34 
 -12   0   2    2.47    0.38 
  11   0  -2    0.00    0.23 
 -11   0   2    0.27    0.19 
  11   0  -2    0.20    0.19 
 -11   0   2    0.30    0.21 
 -10   0   2   15.68    1.27 
  10   0  -2   14.79    1.27 
 -10   0   2   14.87    1.26 
  10   0  -2   13.42    1.26 
   9   0  -2   -0.13    0.15 
  -9   0   2    0.14    0.17 
  -9   0   2    0.07    0.14 
   9   0  -2   -0.21    0.17 
  -8   0   2   67.47    5.59 
   8   0  -2   60.01    5.58 
   8   0  -2   73.85    5.60 
  -8   0   2   71.99    5.59 
  -7   0   2   15.50    1.28 
  -7   0   2   15.10    1.28 
   7   0  -2   15.03    1.29 
  -6   0   2   82.71    6.92 
  -6   0   2   83.92    6.92 
   6   0  -2   87.51    6.93 
  -5   0   2  198.74   15.93 
  -5   0   2  183.79   15.93 
   5   0  -2  205.26   15.94 
   4   0  -2  829.76   66.13 
  -4   0   2  796.37   66.12 
  -3   0   2    0.15    0.11 
   3   0  -2    0.09    0.11 
   2   0  -2   16.85    1.42 
  -2   0   2   17.13    1.41 
   0   0   2  144.93   11.84 
   2   0   2    7.41    0.70 
  -2   0  -2    8.41    0.71 
   3   0   2   87.42    6.78 
   3   0   2   78.83    6.77 
  -4   0  -2  246.74   19.54 
  -4   0  -2  226.48   19.53 
   4   0   2  252.36   19.54 
   4   0   2  235.45   19.53 
   5   0   2   11.48    1.02 
   5   0   2   12.53    1.03 
  -5   0  -2   11.70    1.03 
  -5   0  -2   11.35    1.02 
  -6   0  -2    1.59    0.26 
   6   0   2    1.58    0.27 
   6   0   2    1.53    0.29 
  -6   0  -2    1.53    0.28 
  -7   0  -2    7.17    0.67 
   7   0   2    6.71    0.66 
   7   0   2    7.31    0.68 
  -7   0  -2    6.81    0.66 
   8   0   2   79.36    6.15 
   8   0   2   76.12    6.15 
  -8   0  -2   73.81    6.15 
  -8   0  -2   70.93    6.14 
  -9   0  -2   -0.04    0.16 
  -9   0  -2    0.08    0.19 
   9   0   2   -0.27    0.19 
   9   0   2   -0.08    0.20 
 -10   0  -2    2.26    0.37 
  10   0   2    2.09    0.40 
 -10   0  -2    1.93    0.32 
  10   0   2    2.85    0.37 
 -11   0  -2    0.99    0.23 
 -11   0  -2    0.87    0.25 
  11   0   2    0.29    0.26 
  11   0   2    0.43    0.25 
  12   0   2   19.68    1.74 
 -12   0  -2   19.31    1.72 
 -12   0  -2   19.70    1.73 
  12   0   2   21.41    1.74 
  13   0   2   11.26    0.98 
 -13   0  -2    9.55    0.92 
  13   0   2    9.06    0.97 
 -13   0  -2    9.21    0.96 
 -14   0  -2   32.81    2.77 
  14   0   2   32.27    2.79 
 -15   0  -2   71.26    5.58 
 -15   0  -2   67.96    5.58 
  15   0   2   61.89    5.58 
  16   0   2    1.47    0.55 
  16   0   2    1.05    0.56 
 -16   0  -2    1.52    0.42 
 -16   0  -2    2.31    0.54 
  17   0   2   11.09    1.42 
 -17   0  -2   10.91    1.21 
 -17   0  -2   10.80    1.20 
 -18   0  -2   26.67    2.75 
 -18   0  -2   34.84    2.76 
  19   0   2    2.34    0.76 
 -19   0  -2    1.51    0.80 
  19   0   2    1.39    0.82 
 -20   0  -2    9.75    1.36 
 -20   0  -2    9.16    1.56 
  20   0   2    9.87    1.65 
 -20  -1   2    0.44    1.12 
  20  -1  -2   -0.16    0.80 
 -20  -1   2    0.54    0.69 
 -20   1   2    0.81    0.70 
 -20   1   2    1.27    0.71 
  20   1  -2   -0.18    0.69 
  19  -1  -2    0.77    0.68 
  19  -1  -2    1.53    0.75 
 -19  -1   2    1.17    0.84 
 -19  -1   2    1.36    0.62 
 -19   1   2    1.69    0.59 
  19   1  -2    0.96    0.68 
 -19   1   2    0.94    0.64 
  18  -1  -2    2.50    0.63 
  18  -1  -2    1.93    0.70 
 -18  -1   2    2.28    0.61 
 -18  -1   2    3.12    0.73 
 -18   1   2    1.86    0.62 
 -18   1   2    2.46    0.55 
 -17  -1   2    1.86    0.55 
  17  -1  -2    1.76    0.62 
 -17  -1   2    2.63    0.64 
  17   1  -2    2.63    0.56 
 -17   1   2    2.96    0.58 
 -16  -1   2   18.64    1.64 
  16  -1  -2   20.80    1.82 
 -16  -1   2   18.37    1.69 
 -16   1   2   15.58    1.62 
 -16   1   2   17.57    1.65 
  16   1  -2   17.46    1.71 
  15  -1  -2    0.11    0.33 
 -15  -1   2    0.81    0.51 
 -15  -1   2    0.57    0.44 
  15  -1  -2    0.31    0.46 
 -15   1   2    0.35    0.31 
  15   1  -2    0.61    0.36 
 -15   1   2    0.78    0.40 
 -14  -1   2   36.50    2.85 
 -14  -1   2   35.15    2.88 
  14  -1  -2   32.18    2.87 
  14  -1  -2   35.75    2.90 
 -14   1   2   30.21    2.84 
  14   1  -2   34.38    2.86 
 -14   1   2   32.16    2.85 
 -13  -1   2    2.49    0.45 
 -13  -1   2    2.51    0.38 
  13  -1  -2    1.59    0.43 
  13  -1  -2    2.36    0.38 
 -13   1   2    2.35    0.53 
  13   1  -2    2.49    0.39 
 -13   1   2    2.19    0.37 
 -12  -1   2    0.31    0.28 
 -12  -1   2   -0.01    0.24 
  12  -1  -2    0.28    0.26 
  12  -1  -2    0.32    0.33 
 -12   1   2    0.17    0.20 
  12   1  -2    0.13    0.22 
 -12   1   2    0.02    0.21 
  11  -1  -2    1.23    0.32 
  11  -1  -2    1.59    0.30 
 -11  -1   2    1.27    0.27 
 -11  -1   2    1.40    0.28 
  11   1  -2    1.35    0.27 
 -11   1   2    1.56    0.27 
 -11   1   2    1.48    0.27 
  10  -1  -2    0.50    0.23 
  10  -1  -2    0.46    0.25 
 -10  -1   2    0.36    0.19 
 -10  -1   2    0.65    0.21 
  10   1  -2    0.16    0.19 
 -10   1   2    0.25    0.18 
 -10   1   2    0.61    0.19 
  -9  -1   2   -0.24    0.16 
   9  -1  -2   -0.18    0.20 
   9  -1  -2    0.12    0.19 
  -9  -1   2    0.09    0.16 
  -9   1   2    0.26    0.16 
   9   1  -2   -0.19    0.16 
  -9   1   2   -0.09    0.16 
   8  -1  -2    1.83    0.33 
  -8  -1   2    1.84    0.28 
   8  -1  -2    1.74    0.28 
  -8  -1   2    1.67    0.28 
   8   1  -2    1.49    0.29 
  -8   1   2    1.81    0.30 
  -8   1   2    2.06    0.30 
  -7  -1   2   63.93    5.59 
   7  -1  -2   72.00    5.61 
  -7  -1   2   74.19    5.59 
   7  -1  -2   66.07    5.61 
  -7   1   2   66.04    5.60 
  -7   1   2   69.36    5.61 
   7   1  -2   67.71    5.60 
   6  -1  -2   11.55    1.01 
   6  -1  -2   12.46    1.01 
  -6  -1   2   10.58    0.98 
  -6   1   2   11.85    1.00 
  -6   1   2   11.86    1.00 
   5  -1  -2   73.68    5.77 
   5  -1  -2   69.11    5.77 
  -5   1   2   71.92    5.77 
   5   1  -2   67.91    5.77 
  -5   1   2   70.57    5.77 
   4  -1  -2    0.74    0.17 
   4  -1  -2    0.85    0.15 
  -4   1   2    0.76    0.15 
   4   1  -2    0.52    0.16 
  -4   1   2    1.00    0.16 
   3  -1  -2  540.42   42.15 
   3  -1  -2  497.44   42.17 
  -3   1   2  515.74   42.17 
  -3   1   2  519.30   42.13 
   2  -1  -2    9.28    0.81 
  -2   1   2    9.39    0.81 
  -2   1   2    9.87    0.82 
   1  -1  -2   37.20    3.12 
  -1   1   2   44.65    3.15 
  -1   1   2   37.15    3.13 
  -1   1   2   34.08    3.12 
   0  -1  -2    4.61    0.42 
   0   1   2    4.11    0.41 
  -1  -1  -2   24.00    1.96 
  -1   1  -2   23.63    1.96 
   1   1   2   24.01    1.96 
  -2  -1  -2   10.00    0.93 
  -2   1  -2   12.92    0.94 
   2   1   2    9.89    0.92 
   3  -1   2    2.67    0.33 
  -3  -1  -2    2.54    0.30 
  -3   1  -2    2.51    0.31 
   3   1   2    2.50    0.28 
   4  -1   2   98.18    7.83 
   4  -1   2   86.82    7.82 
  -4  -1  -2   98.89    7.82 
  -4   1  -2  100.25    7.83 
   4   1   2   98.11    7.82 
  -4   1  -2   93.08    7.82 
   5  -1   2    7.48    0.76 
   5  -1   2    8.64    0.77 
  -5  -1  -2    8.52    0.76 
  -5   1  -2    8.92    0.79 
   5   1   2    8.85    0.75 
  -5   1  -2    8.91    0.77 
   6  -1   2   13.86    1.25 
  -6  -1  -2   14.98    1.25 
   6  -1   2   14.67    1.26 
   6   1   2   15.18    1.24 
  -6   1  -2   14.78    1.27 
  -6   1  -2   14.55    1.26 
   6   1   2   14.43    1.23 
  -7  -1  -2   62.72    5.31 
   7  -1   2   62.22    5.31 
   7  -1   2   68.81    5.32 
   7   1   2   70.42    5.30 
   7   1   2   63.05    5.29 
  -7   1  -2   61.80    5.31 
  -7   1  -2   63.88    5.32 
  -8  -1  -2    0.10    0.15 
   8  -1   2   -0.02    0.21 
   8  -1   2    0.10    0.19 
  -8  -1  -2   -0.06    0.19 
   8   1   2   -0.05    0.18 
  -8   1  -2   -0.02    0.22 
  -8   1  -2    0.08    0.19 
   8   1   2    0.37    0.19 
   9  -1   2   24.47    1.94 
  -9  -1  -2   22.13    1.92 
   9  -1   2   22.89    1.93 
  -9  -1  -2   21.70    1.91 
  -9   1  -2   22.16    1.93 
   9   1   2   21.25    1.91 
  -9   1  -2   22.40    1.93 
   9   1   2   24.92    1.91 
  10  -1   2    1.88    0.32 
 -10  -1  -2    1.72    0.30 
  10  -1   2    1.35    0.28 
 -10  -1  -2    0.96    0.26 
 -10   1  -2    2.03    0.35 
  10   1   2    1.43    0.28 
 -10   1  -2    1.70    0.29 
  10   1   2    1.49    0.28 
  11  -1   2    0.48    0.26 
 -11  -1  -2    0.32    0.22 
 -11  -1  -2    0.14    0.22 
  11  -1   2   -0.08    0.22 
  11   1   2   -0.23    0.23 
 -11   1  -2   -0.03    0.19 
 -11   1  -2    0.18    0.21 
  11   1   2    0.00    0.22 
  12  -1   2    0.09    0.26 
 -12  -1  -2    0.37    0.26 
 -12  -1  -2    0.48    0.29 
  12  -1   2    0.61    0.31 
  12   1   2    0.18    0.27 
 -12   1  -2    0.60    0.25 
  12   1   2    0.66    0.32 
 -12   1  -2    0.32    0.22 
  13  -1   2   13.71    1.22 
  13  -1   2   13.55    1.22 
 -13  -1  -2   14.13    1.21 
 -13  -1  -2   12.99    1.21 
 -13   1  -2   10.73    1.19 
  13   1   2   13.16    1.18 
 -13   1  -2   12.12    1.17 
  13   1   2   12.34    1.18 
  14  -1   2   12.33    1.23 
  14  -1   2   11.26    1.17 
 -14  -1  -2   13.28    1.18 
 -14   1  -2   10.72    1.13 
 -14   1  -2   13.06    1.13 
  14   1   2   10.92    1.17 
  15  -1   2   15.97    1.35 
  15  -1   2   12.24    1.35 
 -15  -1  -2   13.44    1.36 
 -15   1  -2   12.58    1.29 
 -15   1  -2   14.84    1.27 
  15   1   2   12.60    1.33 
 -16  -1  -2   15.13    1.51 
 -16  -1  -2   16.66    1.51 
  16   1   2   15.94    1.56 
 -16   1  -2   13.14    1.41 
 -16   1  -2   15.12    1.44 
 -17  -1  -2   33.08    2.85 
 -17  -1  -2   30.76    2.87 
 -17   1  -2   30.59    2.76 
 -17   1  -2   30.15    2.79 
  17   1   2   35.47    2.87 
  18  -1   2    7.47    1.18 
 -18  -1  -2    7.85    1.35 
 -18  -1  -2    9.36    1.18 
 -18   1  -2    8.77    1.03 
 -18   1  -2    7.78    1.12 
  18   1   2    8.16    1.30 
  19  -1   2    0.93    0.81 
 -19  -1  -2    2.67    1.07 
  19  -1   2    0.26    0.92 
 -19  -1  -2    2.87    0.71 
  19   1   2    1.89    0.85 
 -19   1  -2    2.35    0.65 
  19   1   2    0.90    0.63 
 -19   1  -2    1.36    0.56 
  20  -1   2    1.92    0.98 
 -20  -1  -2    3.43    1.39 
 -20  -1  -2    2.98    0.80 
  20  -1   2   -0.09    0.95 
  20   1   2    2.12    0.92 
 -20   1  -2    1.59    0.73 
 -20   1  -2    1.94    0.64 
 -19  -2   2    0.45    1.02 
  19  -2  -2    0.11    0.91 
 -19  -2   2   -0.59    0.62 
  19  -2  -2   -1.13    0.65 
 -19   2   2    1.70    0.60 
 -19   2   2    0.18    0.59 
  18  -2  -2    1.89    0.95 
 -18  -2   2    1.68    0.62 
  18  -2  -2    2.15    0.70 
 -18  -2   2    3.20    0.95 
 -18   2   2    2.15    0.65 
  18   2  -2    2.91    0.65 
 -18   2   2    3.18    0.62 
 -17  -2   2    0.86    0.65 
 -17  -2   2    0.32    0.49 
 -17   2   2   -0.02    0.46 
  17   2  -2   -0.07    0.47 
 -17   2   2    0.49    0.45 
  17   2  -2   -0.09    0.48 
 -16  -2   2   14.49    1.40 
 -16  -2   2   13.99    1.32 
  16   2  -2   11.85    1.40 
 -16   2   2   12.37    1.31 
 -16   2   2   14.69    1.31 
 -15  -2   2    4.20    0.69 
 -15  -2   2    4.39    0.84 
  15  -2  -2    5.02    0.85 
  15   2  -2    4.32    0.75 
 -15   2   2    5.41    0.66 
 -15   2   2    5.19    0.69 
 -14  -2   2    0.59    0.40 
 -14  -2   2    0.73    0.34 
  14  -2  -2    0.50    0.47 
 -14   2   2    0.37    0.31 
  14   2  -2    0.27    0.36 
 -14   2   2    1.05    0.38 
  13  -2  -2    0.69    0.32 
 -13  -2   2    0.69    0.30 
  13  -2  -2    0.72    0.71 
 -13   2   2    0.51    0.33 
  13   2  -2    0.29    0.32 
 -13   2   2    0.63    0.29 
  12  -2  -2    1.40    0.42 
 -12  -2   2    3.09    0.43 
  12  -2  -2    2.12    0.42 
  12   2  -2    1.93    0.38 
 -12   2   2    2.56    0.39 
 -12   2   2    2.11    0.36 
  11  -2  -2    1.07    0.34 
 -11  -2   2    0.81    0.24 
  11  -2  -2    0.95    0.30 
  11   2  -2    0.37    0.28 
 -11   2   2    1.06    0.27 
 -11   2   2    0.72    0.25 
 -10  -2   2    1.09    0.23 
  10  -2  -2    1.20    0.27 
  10  -2  -2    0.90    0.31 
 -10   2   2    1.28    0.28 
 -10   2   2    1.33    0.25 
   9  -2  -2    3.37    0.46 
   9  -2  -2    3.61    0.49 
  -9   2   2    3.35    0.45 
  -9   2   2    3.66    0.42 
   8  -2  -2    0.07    0.21 
   8  -2  -2   -0.19    0.19 
  -8   2   2    0.09    0.18 
  -8   2   2    0.11    0.17 
   7  -2  -2   10.77    0.94 
   7  -2  -2    9.68    0.93 
  -7   2   2   10.52    0.92 
  -7   2   2   10.26    0.92 
   6  -2  -2   56.22    4.59 
   6  -2  -2   57.77    4.60 
  -6   2   2   56.08    4.58 
  -6   2   2   53.25    4.58 
   5  -2  -2   17.83    1.48 
   5  -2  -2   17.87    1.49 
  -5   2   2   17.29    1.48 
  -5   2   2   16.87    1.48 
   4  -2  -2   20.01    1.67 
   4  -2  -2   19.16    1.65 
  -4   2   2   19.42    1.65 
  -4   2   2   20.35    1.65 
   3  -2  -2    3.04    0.36 
   3  -2  -2    3.56    0.39 
  -3   2   2    3.52    0.36 
  -3   2   2    3.12    0.36 
  -3   2   2    3.86    0.41 
   2  -2  -2    1.59    0.27 
  -2   2   2    1.62    0.28 
  -2   2   2    1.55    0.24 
   1  -2  -2    5.43    0.54 
  -1   2   2    5.15    0.51 
  -1   2   2    5.62    0.53 
   0  -2  -2  209.51   15.97 
   0  -2   2  209.47   15.94 
   0   2   2  176.07   15.95 
   0   2   2  189.28   15.94 
   1  -2   2   14.26    1.10 
  -1  -2  -2   11.60    1.10 
   1   2   2   12.94    1.09 
   2  -2   2   99.54    7.64 
   2  -2   2   94.08    7.63 
   2   2   2   87.24    7.63 
   3  -2   2    0.45    0.17 
   3  -2   2    0.93    0.18 
  -3  -2  -2    0.48    0.15 
  -3   2  -2    1.00    0.18 
   3   2   2    0.62    0.16 
   3   2   2    0.49    0.12 
   4  -2   2    2.25    0.33 
   4  -2   2    2.13    0.32 
  -4  -2  -2    2.50    0.33 
   4   2   2    2.40    0.29 
  -4   2  -2    2.51    0.34 
  -5  -2  -2   15.32    1.30 
   5  -2   2   14.68    1.30 
   5  -2   2   14.36    1.29 
  -5   2  -2   15.98    1.30 
  -5   2  -2   14.77    1.31 
   5   2   2   15.41    1.27 
   6  -2   2    0.43    0.19 
   6  -2   2   -0.04    0.19 
  -6  -2  -2    0.27    0.18 
  -6   2  -2   -0.02    0.23 
  -6   2  -2    0.69    0.21 
   7  -2   2   18.45    1.60 
  -7  -2  -2   20.58    1.61 
   7  -2   2   17.14    1.59 
  -7   2  -2   19.03    1.61 
  -7   2  -2   18.53    1.61 
   8  -2   2    6.61    0.72 
  -8  -2  -2    8.47    0.75 
   8  -2   2    7.69    0.73 
  -8   2  -2    7.54    0.74 
  -8   2  -2    7.60    0.74 
   9  -2   2   -0.17    0.21 
  -9  -2  -2    0.02    0.23 
   9  -2   2    0.17    0.24 
  -9   2  -2    0.07    0.21 
  -9   2  -2   -0.12    0.22 
 -10  -2  -2    2.99    0.49 
  10  -2   2    2.97    0.45 
  10  -2   2    2.93    0.42 
 -10   2  -2    3.06    0.45 
 -10   2  -2    2.61    0.45 
  11  -2   2    0.87    0.29 
  11  -2   2    0.49    0.30 
 -11  -2  -2    0.30    0.31 
 -11   2  -2    0.89    0.29 
 -11   2  -2    0.64    0.25 
 -12  -2  -2    1.54    0.37 
  12  -2   2    0.60    0.39 
 -12   2  -2    1.71    0.35 
 -12   2  -2    1.54    0.31 
  13  -2   2    0.53    0.33 
 -13  -2  -2    0.29    0.34 
  13  -2   2    0.36    0.39 
 -13   2  -2    0.45    0.35 
 -13   2  -2    0.32    0.28 
 -14  -2  -2   15.92    1.66 
  14  -2   2   16.48    1.35 
 -14   2  -2   14.63    1.30 
  14   2   2   11.26    1.27 
 -14   2  -2   12.39    1.32 
 -15  -2  -2    0.22    0.40 
  15  -2   2    0.01    0.48 
  15   2   2   -0.10    0.30 
 -15   2  -2    0.00    0.40 
 -15   2  -2    0.27    0.35 
 -16  -2  -2    0.18    0.47 
  16   2   2    0.02    0.42 
 -16   2  -2    0.08    0.46 
 -16   2  -2    0.67    0.46 
  17  -2   2    2.75    0.75 
 -17  -2  -2    4.22    0.72 
 -17   2  -2    3.50    0.64 
  17   2   2    3.64    0.69 
  18  -2   2    0.46    0.71 
  18  -2   2    2.12    0.78 
 -18  -2  -2    3.21    0.71 
 -18   2  -2    2.53    0.61 
 -18   2  -2    1.78    0.58 
  18   2   2    1.84    0.62 
  19  -2   2    0.87    0.77 
 -19  -2  -2   -0.18    0.67 
  19  -2   2    1.42    0.89 
 -19   2  -2   -0.40    0.64 
 -19   2  -2    1.13    0.61 
  19   2   2   -0.04    0.78 
  18  -3  -2    0.37    0.96 
  18  -3  -2    0.21    0.67 
 -18  -3   2    0.91    0.71 
 -18   3   2    0.36    0.64 
 -17  -3   2    3.18    0.74 
  17  -3  -2    1.24    0.65 
  17  -3  -2    1.53    0.82 
 -17   3   2    3.41    0.69 
 -17   3   2    2.04    0.59 
 -16  -3   2    0.36    0.55 
  16  -3  -2    0.29    0.67 
 -16   3   2   -0.44    0.47 
 -16   3   2    0.74    0.48 
 -15  -3   2   12.10    1.29 
  15  -3  -2    9.64    1.23 
  15  -3  -2   12.98    1.64 
 -15   3   2   11.67    1.22 
 -15   3   2   11.68    1.17 
  14  -3  -2    4.50    0.77 
 -14  -3   2    5.15    0.85 
 -14   3   2    6.02    0.74 
 -14   3   2    5.49    0.75 
  13  -3  -2   12.75    1.29 
  13  -3  -2   12.55    1.27 
 -13  -3   2   14.09    1.27 
 -13   3   2   12.57    1.22 
 -13   3   2   12.10    1.25 
 -12  -3   2   -0.39    0.31 
  12  -3  -2   -0.20    0.35 
  12  -3  -2    0.47    0.41 
 -12   3   2    0.36    0.29 
 -12   3   2    0.35    0.33 
  11  -3  -2    1.99    0.44 
 -11   3   2    2.04    0.36 
 -11   3   2    1.90    0.38 
  10  -3  -2    0.38    0.32 
  10  -3  -2    0.56    0.52 
 -10   3   2    0.91    0.31 
 -10   3   2    0.80    0.31 
   9  -3  -2   18.78    1.48 
   9  -3  -2   16.51    1.47 
  -9   3   2   15.40    1.43 
  -9   3   2   14.58    1.42 
   8  -3  -2    4.55    0.56 
   8  -3  -2    4.22    0.53 
  -8   3   2    3.66    0.49 
  -8   3   2    3.36    0.49 
   7  -3  -2    7.50    0.76 
   7  -3  -2    7.38    0.74 
  -7   3   2    7.36    0.73 
  -7   3   2    7.52    0.73 
   6  -3  -2    1.24    0.30 
   6  -3  -2    1.11    0.27 
  -6   3   2    1.36    0.25 
  -6   3   2    1.10    0.26 
   5  -3  -2   10.94    0.99 
   5  -3  -2   10.12    0.95 
  -5   3   2   11.18    1.00 
  -5   3   2   10.71    0.95 
  -5   3   2   10.41    0.96 
   4  -3  -2   15.35    1.31 
  -4   3   2   15.13    1.28 
  -4   3   2   14.60    1.29 
  -4   3   2   14.58    1.33 
   3  -3  -2    0.85    0.27 
  -3   3   2    1.62    0.25 
  -3   3   2    1.01    0.26 
   2  -3  -2    4.82    0.52 
  -2  -3   2    4.24    0.48 
  -2   3   2    4.37    0.49 
  -2   3   2    5.53    0.54 
   1  -3  -2    5.35    0.53 
  -1  -3   2    4.24    0.52 
  -1  -3   2    4.66    0.48 
  -1   3   2    4.84    0.50 
  -1   3   2    4.71    0.50 
   0  -3   2   63.74    4.89 
   0  -3  -2   63.07    4.94 
   0   3   2   50.59    4.89 
   0   3   2   61.59    4.89 
  -1  -3  -2   49.78    4.16 
   1  -3   2   52.39    4.14 
   1   3   2   48.96    4.13 
  -2  -3  -2   39.52    3.47 
   2  -3   2   46.94    3.47 
   2   3   2   42.20    3.44 
   2   3   2   39.12    3.44 
   3  -3   2   73.35    5.62 
  -3  -3  -2   61.53    5.62 
   3  -3   2   70.86    5.63 
   4  -3   2   18.86    1.61 
  -4  -3  -2   16.14    1.59 
   4  -3   2   18.26    1.59 
  -4   3  -2   21.94    1.62 
   5  -3   2   -0.20    0.21 
  -5  -3  -2    0.09    0.21 
   5  -3   2    0.50    0.23 
  -5   3  -2    0.12    0.23 
   6  -3   2    8.04    0.81 
  -6  -3  -2    8.74    0.84 
   6  -3   2    8.23    0.80 
  -6   3  -2    8.50    0.81 
   7  -3   2    2.34    0.43 
  -7  -3  -2    2.21    0.39 
   7  -3   2    2.71    0.43 
  -7   3  -2    2.63    0.45 
  -8  -3  -2    4.42    0.65 
   8  -3   2    4.35    0.57 
   8  -3   2    4.51    0.57 
  -8   3  -2    5.10    0.59 
  -8   3  -2    4.59    0.61 
  -9  -3  -2    9.91    0.98 
   9  -3   2    9.81    0.92 
   9  -3   2    8.41    0.91 
  -9   3  -2    9.10    0.94 
  -9   3  -2    9.09    0.93 
 -10  -3  -2    8.37    0.85 
  10  -3   2    7.29    0.79 
 -10   3  -2    5.66    0.78 
  11  -3   2    9.12    0.91 
  11  -3   2    7.84    0.88 
 -11  -3  -2    8.44    0.94 
 -11   3  -2    8.15    0.89 
 -11   3  -2    7.77    0.90 
 -12  -3  -2    4.05    0.64 
  12  -3   2    4.50    0.67 
 -12   3  -2    3.76    0.58 
 -12   3  -2    4.62    0.65 
  13  -3   2    3.81    0.64 
 -13  -3  -2    3.55    0.72 
 -13   3  -2    2.91    0.55 
 -13   3  -2    3.18    0.49 
  14  -3   2    0.67    0.43 
 -14  -3  -2    0.86    0.50 
 -14   3  -2    1.08    0.47 
 -14   3  -2    1.36    0.39 
 -15  -3  -2   -0.50    0.52 
  15  -3   2   -0.83    0.53 
  15  -3   2   -0.01    0.80 
 -15   3  -2   -0.16    0.39 
 -15   3  -2    0.17    0.47 
  16  -3   2    0.63    0.64 
 -16  -3  -2    0.49    0.65 
  16  -3   2    0.82    0.61 
 -16   3  -2    1.87    0.56 
 -16   3  -2    1.12    0.44 
  17  -3   2    0.15    0.72 
  17  -3   2   -0.40    0.69 
 -17  -3  -2    0.33    0.66 
 -17   3  -2    0.71    0.48 
 -17   3  -2    0.04    0.58 
  18  -3   2    1.33    0.85 
 -18  -3  -2   -0.35    0.73 
  18  -3   2   -0.37    0.80 
 -18   3  -2    0.33    0.58 
 -16  -4   2    0.19    0.73 
  16  -4  -2   -0.01    0.61 
  16  -4  -2    0.20    0.85 
 -16   4   2    1.09    0.68 
 -16   4   2    2.07    0.75 
  15  -4  -2    0.68    0.59 
 -15  -4   2   -0.71    1.22 
  15  -4  -2    0.17    0.69 
 -15   4   2    0.87    0.63 
 -15   4   2    1.41    0.69 
  14  -4  -2    8.59    1.06 
 -14  -4   2    6.92    1.13 
  14  -4  -2    5.22    1.00 
 -14   4   2    9.33    1.11 
 -14   4   2    6.82    1.01 
 -13  -4   2    1.72    0.56 
  13  -4  -2    0.87    0.48 
 -13   4   2    2.23    0.49 
 -13   4   2    2.11    0.57 
 -12  -4   2    1.48    0.52 
  12  -4  -2    0.86    0.45 
 -12   4   2    1.36    0.49 
 -12   4   2    1.52    0.52 
  11  -4  -2    0.87    0.39 
 -11  -4   2    0.77    0.46 
 -11   4   2    0.68    0.40 
 -11   4   2    0.68    0.45 
  10  -4  -2    6.06    0.77 
 -10   4   2    5.68    0.77 
 -10   4   2    6.25    0.81 
   9  -4  -2    8.46    0.93 
   9  -4  -2    8.31    0.90 
  -9   4   2    8.33    0.92 
   8  -4  -2    4.92    0.69 
   8  -4  -2    4.57    0.65 
  -8   4   2    4.12    0.71 
  -8   4   2    5.47    0.78 
  -8   4   2    4.54    0.67 
   7  -4  -2    4.38    0.64 
   7  -4  -2    2.86    0.53 
  -7   4   2    2.96    0.55 
  -7   4   2    3.69    0.49 
  -7   4   2    2.29    0.52 
   6  -4  -2    1.47    0.34 
   6  -4  -2    2.19    0.43 
  -6   4   2    1.66    0.36 
  -6   4   2    1.23    0.37 
   5  -4  -2    2.25    0.44 
  -5   4   2    1.36    0.39 
  -5   4   2    2.41    0.36 
  -5   4   2    2.09    0.37 
   4  -4  -2   21.76    1.94 
  -4  -4   2   20.65    1.88 
  -4   4   2   22.56    1.90 
  -4   4   2   24.17    1.96 
  -3  -4   2    2.78    0.45 
  -3  -4   2    2.68    0.47 
   3  -4  -2    3.74    0.58 
  -3   4   2    3.59    0.48 
  -3   4   2    3.95    0.55 
  -2  -4   2   11.26    1.18 
   2  -4  -2   12.59    1.17 
  -2  -4   2   11.93    1.11 
  -2   4   2   12.71    1.14 
  -2   4   2   13.44    1.12 
  -1  -4   2    2.73    0.38 
  -1   4   2    2.37    0.42 
  -1   4   2    2.88    0.41 
   0  -4   2   14.51    1.27 
   0  -4  -2   15.34    1.36 
   0   4   2   15.36    1.25 
   0   4   2   12.34    1.24 
   1  -4   2   -0.25    0.26 
  -1  -4  -2    0.25    0.26 
   1   4   2    0.15    0.20 
   1   4   2   -0.04    0.16 
   2  -4   2    2.48    0.38 
  -2  -4  -2    1.60    0.36 
   3  -4   2    4.43    0.60 
  -3  -4  -2    5.68    0.63 
  -3   4  -2    3.81    0.60 
  -4  -4  -2    1.22    0.30 
   4  -4   2    1.39    0.37 
  -4   4  -2    1.88    0.31 
  -4   4  -2    0.74    0.35 
   5  -4   2    2.90    0.48 
   5  -4   2    3.53    0.60 
  -5  -4  -2    4.10    0.58 
  -5   4  -2    2.76    0.49 
  -5   4  -2    4.17    0.54 
   6  -4   2    1.74    0.36 
  -6  -4  -2    1.44    0.39 
   6  -4   2    1.47    0.40 
  -6   4  -2    1.91    0.46 
  -6   4  -2    2.60    0.37 
  -7  -4  -2    1.03    0.39 
   7  -4   2    0.81    0.39 
   7  -4   2    0.24    0.33 
  -7   4  -2    1.14    0.32 
   8  -4   2    2.23    0.46 
   8  -4   2    2.30    0.46 
  -8   4  -2    2.28    0.42 
   9  -4   2    7.82    0.93 
  -9   4  -2    9.24    1.19 
  10  -4   2    1.49    0.42 
  10  -4   2    0.64    0.41 
 -10  -4  -2    0.97    0.56 
 -10   4  -2    0.94    0.38 
 -11  -4  -2    7.49    1.23 
  11  -4   2    8.70    0.97 
  11  -4   2    9.35    0.99 
 -11   4  -2    8.44    0.99 
 -12  -4  -2    2.16    0.69 
  12  -4   2    1.30    0.48 
  12  -4   2    1.67    0.57 
 -12   4  -2    2.36    0.51 
  13  -4   2    1.79    0.62 
  13  -4   2    0.29    0.66 
 -13  -4  -2    0.89    0.68 
 -13   4  -2    1.76    0.49 
  14  -4   2    7.04    1.19 
 -14  -4  -2    7.46    1.11 
 -14   4  -2    7.43    1.05 
  15  -4   2   -1.18    0.62 
  15  -4   2   -0.98    0.73 
 -15  -4  -2   -0.94    0.74 
 -15   4  -2   -0.33    0.54 
  16  -4   2   -0.08    0.80 
 -16  -4  -2   -0.27    0.88 
  16  -4   2    1.67    0.74 
 -16   4  -2   -0.14    0.55 
  14  -5  -2   -0.16    0.70 
  14  -5  -2   -0.47    0.59 
 -14  -5   2   -0.32    0.88 
 -14   5   2    0.09    0.75 
 -14   5   2   -0.21    0.64 
  13  -5  -2   -0.31    0.52 
  13  -5  -2    1.20    0.72 
 -13   5   2   -0.57    0.77 
 -13   5   2    1.83    1.01 
 -13   5   2    0.41    0.71 
 -12  -5   2    0.05    0.63 
  12  -5  -2    0.24    0.57 
  12  -5  -2   -0.59    0.45 
 -12   5   2   -0.15    0.58 
 -12   5   2   -0.41    0.53 
 -12   5   2   -0.45    0.88 
  11  -5  -2   -0.04    0.60 
  11  -5  -2    0.19    0.45 
 -11   5   2   -0.04    0.55 
 -11   5   2   -1.08    0.73 
 -11   5   2    0.39    0.49 
  10  -5  -2    3.77    0.69 
 -10   5   2    3.43    0.68 
 -10   5   2    3.75    0.62 
  -9  -5   2    9.70    1.25 
   9  -5  -2    8.28    1.07 
   9  -5  -2   12.95    1.25 
  -9   5   2   11.21    1.19 
  -9   5   2   11.58    1.17 
   8  -5  -2   28.56    2.48 
  -8  -5   2   22.81    2.43 
   8  -5  -2   25.14    2.50 
  -8   5   2   31.57    2.58 
  -8   5   2   29.61    2.44 
  -8   5   2   28.90    2.42 
   7  -5  -2    8.31    0.97 
  -7  -5   2    8.33    1.07 
   7  -5  -2   10.72    1.14 
  -7   5   2   10.96    1.20 
  -7   5   2   10.31    1.05 
  -7   5   2    9.56    1.03 
  -6  -5   2    8.24    1.09 
   6  -5  -2    9.06    1.07 
  -6   5   2    9.68    1.02 
  -6   5   2    7.38    1.12 
   5  -5  -2    8.56    1.05 
  -5  -5   2    6.60    1.06 
  -5   5   2    9.28    0.96 
  -5   5   2   10.78    1.09 
  -4  -5   2   -0.28    0.45 
   4  -5  -2    0.50    0.45 
  -4   5   2    0.88    0.41 
  -4   5   2    0.77    0.35 
  -3  -5   2   60.52    5.52 
  -3  -5   2   65.54    5.62 
  -3   5   2   71.97    5.53 
  -3   5   2   69.45    5.56 
  -2  -5   2   17.27    1.70 
  -2   5   2   20.29    1.69 
  -2   5   2   19.68    1.71 
  -1  -5   2    0.10    0.33 
  -1   5   2    0.51    0.29 
   0  -5   2    3.69    0.55 
  -1  -5  -2    2.20    0.57 
   1  -5   2    2.52    0.48 
   2  -5   2    0.46    0.39 
  -2  -5  -2    0.53    0.52 
   3  -5   2   18.96    1.74 
  -4   5  -2   24.55    2.05 
  -4   5  -2   22.75    2.09 
   5  -5   2    4.53    0.78 
  -5   5  -2    4.21    0.69 
  -5   5  -2    4.93    0.86 
   6  -5   2    0.92    0.47 
   6  -5   2    0.46    0.36 
  -6   5  -2    0.97    0.51 
  -6   5  -2    1.11    0.36 
  -7  -5  -2    1.54    0.68 
   7  -5   2    1.23    0.45 
   7  -5   2    2.46    0.57 
  -7   5  -2    1.92    0.59 
  -7   5  -2    2.03    0.43 
   8  -5   2   -0.62    0.38 
  -8  -5  -2    0.82    0.53 
   8  -5   2    0.73    0.51 
  -8   5  -2   -0.52    0.56 
  -8   5  -2   -0.94    0.56 
   9  -5   2    1.92    0.56 
   9  -5   2    0.45    0.46 
  -9  -5  -2    1.33    0.63 
  -9   5  -2    1.68    0.70 
  -9   5  -2    1.16    0.45 
  10  -5   2   16.98    1.71 
 -10  -5  -2   20.91    1.91 
  10  -5   2   18.05    1.73 
 -10   5  -2   15.98    2.28 
 -10   5  -2   15.27    1.66 
 -11  -5  -2    1.29    0.75 
  11  -5   2    0.17    0.54 
  11  -5   2    0.27    0.59 
 -11   5  -2   -0.13    0.48 
 -12  -5  -2    2.78    0.87 
  12  -5   2    2.15    0.72 
  12  -5   2    4.12    0.77 
 -12   5  -2    2.55    0.63 
  13  -5   2    0.30    0.62 
  13  -5   2   -0.66    0.62 
 -13  -5  -2    0.59    0.89 
 -13   5  -2    0.28    0.55 
  -9  -6   2    0.87    0.86 
  -9   6   2    2.74    0.96 
  -9   6   2    1.94    0.70 
  -8  -6   2    0.43    0.80 
  -8   6   2   -0.05    0.54 
  -7  -6   2   -0.06    0.80 
  -7   6   2    0.28    0.84 
  -7   6   2    0.40    0.51 
  -6  -6   2    5.42    0.97 
  -6   6   2    4.54    0.83 
  -6   6   2    4.31    0.86 
  -5  -6   2    6.87    1.12 
  -5   6   2    6.88    0.98 
  -5   6   2    6.36    0.95 
  -4   6   2   22.30    1.91 
  -4   6   2   18.96    1.97 
  -3   6   2    0.61    0.51 
  -3   6   2    0.02    0.38 
   0  -6   2    2.33    0.62 
   1  -6   2   -0.15    0.53 
   2  -6   2    9.08    1.13 
  -3  -6  -2   -0.86    0.71 
   3  -6   2    0.20    0.57 
  -4  -6  -2    1.69    0.71 
   4  -6   2    0.32    0.58 
   5  -6   2   -0.09    0.68 
  -5  -6  -2   -0.17    0.75 
  -6  -6  -2    1.17    0.76 
   6  -6   2    1.26    0.71 
  -6   6  -2    0.08    0.36 
  -6   6  -2    0.83    0.66 
   7  -6   2    1.89    0.80 
   7  -6   2    0.88    0.45 
  -7  -6  -2    2.24    0.81 
  -7   6  -2    3.92    1.17 
  -7   6  -2    1.08    0.43 
   8  -6   2    0.15    0.47 
  -8  -6  -2    0.06    0.80 
   8  -6   2    0.58    0.81 
  -8   6  -2    1.12    0.87 
  -8   6  -2    0.06    0.41 
   9  -6   2    2.34    0.89 
   9  -6   2    1.43    0.54 
  -9  -6  -2    2.00    0.85 
  -9   6  -2    0.98    0.51 
  20   0  -3   -0.08    0.71 
 -20   0   3    0.53    0.74 
 -20   0   3    0.70    0.78 
  19   0  -3   -0.75    0.60 
 -19   0   3   -0.18    0.75 
 -19   0   3    0.82    0.69 
 -18   0   3   -0.98    0.73 
 -18   0   3   -0.13    0.57 
  18   0  -3   -0.41    0.50 
 -17   0   3    0.11    0.46 
 -17   0   3    0.06    0.50 
 -16   0   3    0.60    0.45 
 -16   0   3    0.12    0.43 
  16   0  -3    0.20    0.40 
 -15   0   3    0.63    0.41 
 -15   0   3    0.24    0.34 
  15   0  -3    0.05    0.33 
  14   0  -3   -0.11    0.28 
 -14   0   3    0.03    0.29 
 -14   0   3    0.49    0.35 
 -13   0   3    0.01    0.31 
 -13   0   3    0.04    0.22 
  13   0  -3    0.22    0.24 
  12   0  -3   -0.09    0.21 
 -12   0   3    0.16    0.20 
 -12   0   3   -0.10    0.21 
  11   0  -3   -0.16    0.18 
 -11   0   3    0.01    0.17 
 -11   0   3   -0.28    0.19 
 -10   0   3    0.00    0.17 
 -10   0   3    0.10    0.16 
  10   0  -3   -0.04    0.17 
  -9   0   3    0.02    0.14 
  -9   0   3   -0.23    0.16 
   9   0  -3   -0.04    0.15 
  -8   0   3    0.49    0.15 
   8   0  -3    0.62    0.17 
  -7   0   3   -0.01    0.11 
   7   0  -3    0.00    0.12 
  -7   0   3   -0.10    0.13 
  -6   0   3    0.02    0.11 
  -6   0   3   -0.08    0.11 
   6   0  -3   -0.09    0.12 
   5   0  -3   -0.10    0.12 
  -5   0   3    0.04    0.12 
  -5   0   3   -0.16    0.10 
   4   0  -3   -0.07    0.13 
  -4   0   3   -0.05    0.13 
   3   0  -3   -0.02    0.13 
  -3   0   3   -0.01    0.14 
  -2   0   3    0.04    0.12 
   2   0  -3   -0.02    0.11 
  -1   0   3   -0.08    0.07 
  -1   0   3    0.01    0.08 
   0   0  -3   -0.23    0.05 
   0   0   3   -0.17    0.06 
  -1   0  -3   -0.08    0.06 
   1   0   3   -0.07    0.05 
  -2   0  -3    0.06    0.10 
   2   0   3   -0.04    0.09 
   3   0   3   -0.50    0.12 
  -3   0  -3   -0.63    0.12 
  -4   0  -3   -0.12    0.14 
   4   0   3    0.01    0.13 
   4   0   3    0.33    0.15 
   5   0   3   -0.03    0.14 
   5   0   3   -0.09    0.16 
  -5   0  -3   -0.05    0.10 
   6   0   3   -0.09    0.14 
  -6   0  -3    0.10    0.13 
   6   0   3    0.00    0.16 
  -7   0  -3   -0.08    0.14 
   7   0   3    0.13    0.19 
  -7   0  -3    0.08    0.16 
   7   0   3    0.13    0.14 
   8   0   3    0.15    0.18 
   8   0   3    0.02    0.20 
  -8   0  -3    0.18    0.16 
  -8   0  -3    0.15    0.17 
  -9   0  -3   -0.13    0.16 
   9   0   3    0.04    0.19 
   9   0   3    0.01    0.21 
  -9   0  -3   -0.11    0.20 
 -10   0  -3   -0.10    0.18 
  10   0   3    0.18    0.23 
  10   0   3    0.46    0.23 
 -10   0  -3    0.14    0.21 
 -11   0  -3   -0.29    0.19 
 -11   0  -3   -0.20    0.25 
  11   0   3    0.07    0.24 
  11   0   3    0.08    0.24 
  12   0   3    0.22    0.26 
 -12   0  -3    0.04    0.22 
  12   0   3    0.00    0.30 
 -12   0  -3   -0.15    0.29 
  13   0   3   -0.37    0.35 
  13   0   3    0.05    0.36 
 -13   0  -3   -0.32    0.33 
  14   0   3    1.03    0.44 
 -14   0  -3    0.32    0.27 
 -14   0  -3    0.46    0.41 
  14   0   3    0.53    0.42 
 -15   0  -3    0.16    0.31 
  15   0   3    0.28    0.46 
 -15   0  -3    0.39    0.44 
  15   0   3    0.64    0.47 
 -16   0  -3    0.05    0.36 
 -16   0  -3   -0.42    0.47 
  16   0   3   -1.00    0.70 
  16   0   3    0.34    0.58 
  17   0   3    0.99    0.59 
 -17   0  -3    0.74    0.57 
  18   0   3   -0.11    0.86 
 -18   0  -3    0.47    0.67 
 -18   0  -3    0.61    0.48 
  18   0   3    1.05    0.68 
  19   0   3    0.59    0.84 
  19   0   3   -0.37    0.77 
 -19   0  -3    0.53    0.56 
  20   0   3   -1.74    0.89 
 -20   0  -3    0.90    0.62 
  20  -1  -3   -0.61    0.68 
 -20  -1   3    0.43    0.97 
 -20  -1   3    0.01    0.70 
 -20   1   3    1.19    0.78 
 -20   1   3    0.31    0.76 
  20   1  -3   -0.22    0.75 
  19  -1  -3    0.29    0.61 
 -19  -1   3   -0.26    0.61 
 -19  -1   3   -1.03    0.76 
 -19   1   3   -0.47    0.59 
  19   1  -3   -0.63    0.60 
 -19   1   3   -0.40    0.61 
 -18  -1   3   -0.34    0.66 
  18  -1  -3   -0.48    0.50 
 -18  -1   3   -0.52    0.53 
 -18   1   3    0.05    0.50 
 -18   1   3    0.00    0.57 
 -17  -1   3    0.16    0.51 
 -17  -1   3    0.41    0.59 
  17   1  -3   -0.13    0.45 
 -17   1   3    0.29    0.43 
 -17   1   3    1.11    0.54 
 -16  -1   3    0.64    0.51 
 -16  -1   3    0.41    0.45 
 -16   1   3   -0.29    0.34 
  16   1  -3   -0.33    0.37 
 -16   1   3    0.21    0.45 
  15  -1  -3    2.70    0.58 
 -15  -1   3    3.51    0.66 
  15  -1  -3    3.96    0.65 
 -15  -1   3    4.02    0.64 
 -15   1   3    4.53    0.62 
 -15   1   3    3.42    0.56 
 -14  -1   3    2.16    0.44 
  14  -1  -3    2.27    0.42 
 -14  -1   3    3.18    0.53 
  14  -1  -3    1.32    0.45 
  14   1  -3    1.68    0.39 
 -14   1   3    2.31    0.37 
 -14   1   3    2.27    0.42 
 -13  -1   3   22.19    1.89 
 -13  -1   3   19.67    1.88 
  13  -1  -3   24.67    1.92 
  13   1  -3   19.17    1.89 
 -13   1   3   19.70    2.00 
 -13   1   3   25.94    1.90 
 -12  -1   3    0.22    0.23 
  12  -1  -3    0.40    0.32 
  12  -1  -3   -0.11    0.20 
 -12  -1   3    0.01    0.24 
 -12   1   3   -0.02    0.21 
  12   1  -3   -0.22    0.22 
 -12   1   3    0.21    0.22 
  11  -1  -3   -0.12    0.25 
 -11  -1   3   -0.01    0.20 
  11  -1  -3   -0.14    0.19 
 -11  -1   3    0.01    0.19 
 -11   1   3    0.21    0.19 
 -11   1   3   -0.18    0.18 
  11   1  -3   -0.10    0.21 
 -10  -1   3    0.25    0.19 
  10  -1  -3    0.05    0.22 
 -10  -1   3    0.17    0.18 
  10  -1  -3    0.14    0.19 
 -10   1   3    0.28    0.17 
  10   1  -3   -0.22    0.18 
 -10   1   3    0.35    0.17 
   9  -1  -3   79.49    5.93 
  -9  -1   3   73.18    5.90 
   9  -1  -3   73.57    5.93 
  -9  -1   3   70.02    5.91 
   9   1  -3   71.41    5.92 
  -9   1   3   72.00    5.92 
  -9   1   3   65.79    5.91 
   8  -1  -3   35.75    2.63 
  -8  -1   3   32.36    2.61 
   8  -1  -3   29.46    2.62 
  -8  -1   3   26.56    2.59 
  -8   1   3   34.69    2.63 
   8   1  -3   31.55    2.63 
  -8   1   3   30.91    2.62 
   7  -1  -3   18.82    1.75 
  -7  -1   3   20.92    1.74 
   7  -1  -3   20.60    1.76 
   7   1  -3   22.21    1.77 
  -7   1   3   21.69    1.75 
  -7   1   3   21.05    1.75 
  -6  -1   3    0.08    0.13 
   6  -1  -3   -0.01    0.14 
   6  -1  -3   -0.14    0.12 
   6   1  -3   -0.14    0.15 
  -6   1   3    0.07    0.13 
  -6   1   3   -0.07    0.13 
   5  -1  -3   17.31    1.47 
  -5   1   3   17.32    1.47 
  -5   1   3   18.09    1.48 
   4  -1  -3   66.28    5.64 
  -4   1   3   68.83    5.64 
  -4   1   3   72.33    5.65 
   3  -1  -3  239.50   19.50 
  -3  -1   3  203.76   19.49 
  -3   1   3  263.91   19.49 
  -3   1   3  251.49   19.48 
   2  -1  -3   41.67    3.50 
  -2   1   3   39.02    3.49 
  -2   1   3   47.49    3.52 
   1  -1  -3   35.82    2.85 
   1  -1  -3   34.79    2.86 
  -1   1   3   35.31    2.86 
  -1   1   3   32.34    2.84 
   0  -1  -3  520.92   42.05 
   0   1   3  512.85   42.05 
   1  -1   3    6.86    0.61 
  -1  -1  -3    7.63    0.62 
  -1   1  -3    6.33    0.60 
   1   1   3    7.31    0.61 
  -2  -1  -3    1.08    0.16 
   2  -1   3    1.22    0.18 
  -2   1  -3    1.06    0.18 
   2   1   3    0.89    0.14 
   3  -1   3    0.28    0.15 
  -3  -1  -3    0.19    0.12 
   3   1   3    0.27    0.10 
  -3   1  -3    0.23    0.13 
   4  -1   3   80.55    6.47 
  -4  -1  -3   77.77    6.47 
   4  -1   3   76.74    6.46 
   4   1   3   81.62    6.47 
   5  -1   3    2.75    0.33 
  -5  -1  -3    2.71    0.34 
   5  -1   3    3.44    0.38 
   5   1   3    2.76    0.33 
  -5   1  -3    2.44    0.36 
  -6  -1  -3   77.84    6.36 
   6  -1   3   79.75    6.36 
   6  -1   3   71.98    6.34 
   6   1   3   76.81    6.34 
   6   1   3   81.27    6.34 
   7  -1   3    0.33    0.20 
   7  -1   3    0.18    0.22 
  -7  -1  -3    0.22    0.16 
   7   1   3    0.12    0.19 
   7   1   3    0.30    0.18 
  -7   1  -3    0.39    0.19 
  -7   1  -3    0.17    0.22 
   8  -1   3    8.53    0.86 
  -8  -1  -3    9.87    0.87 
   8  -1   3    9.64    0.88 
   8   1   3    9.35    0.86 
  -8   1  -3    9.40    0.88 
   8   1   3   10.28    0.85 
  -8   1  -3    8.66    0.89 
  -9  -1  -3   34.15    2.82 
  -9  -1  -3   31.38    2.81 
   9  -1   3   33.01    2.82 
   9  -1   3   35.38    2.83 
  -9   1  -3   33.35    2.83 
  -9   1  -3   33.40    2.82 
   9   1   3   34.04    2.81 
   9   1   3   35.39    2.81 
  10  -1   3   18.22    1.56 
  10  -1   3   19.58    1.58 
 -10  -1  -3   17.75    1.57 
 -10  -1  -3   17.23    1.56 
  10   1   3   17.72    1.55 
 -10   1  -3   17.69    1.57 
 -10   1  -3   18.21    1.57 
  11  -1   3    0.64    0.27 
 -11  -1  -3    0.98    0.29 
 -11  -1  -3    0.86    0.26 
  11  -1   3    1.37    0.30 
  11   1   3    1.09    0.27 
 -11   1  -3    0.95    0.29 
 -11   1  -3    0.69    0.26 
  12  -1   3   -0.27    0.25 
 -12  -1  -3   -0.36    0.31 
  12  -1   3   -0.52    0.26 
 -12  -1  -3   -0.05    0.25 
 -12   1  -3   -0.27    0.27 
  12   1   3    0.02    0.32 
  12   1   3    0.11    0.31 
 -12   1  -3    0.21    0.27 
  13  -1   3    8.59    0.92 
  13  -1   3    7.94    0.84 
 -13  -1  -3    7.57    0.83 
 -13  -1  -3    8.60    0.86 
  13   1   3    6.77    0.83 
 -13   1  -3    7.55    0.79 
 -13   1  -3    6.18    0.80 
  13   1   3    8.11    0.82 
  14  -1   3    1.13    0.50 
  14  -1   3   -0.25    0.39 
 -14  -1  -3    0.02    0.42 
 -14  -1  -3    0.14    0.34 
 -14   1  -3   -0.03    0.34 
  14   1   3    1.17    0.41 
  14   1   3   -0.02    0.44 
 -14   1  -3    0.05    0.28 
 -15  -1  -3   25.04    2.28 
  15  -1   3   26.64    2.25 
 -15  -1  -3   24.78    2.26 
  15  -1   3   29.25    2.24 
 -15   1  -3   22.28    2.22 
 -15   1  -3   27.65    2.23 
  15   1   3   21.71    2.22 
  16  -1   3    2.04    0.61 
 -16  -1  -3    2.40    0.61 
 -16  -1  -3    3.38    0.67 
  16   1   3    1.89    0.56 
  16   1   3    2.14    0.60 
 -16   1  -3    3.46    0.52 
 -16   1  -3    2.70    0.56 
  17  -1   3    8.14    1.17 
  17  -1   3    6.33    1.15 
 -17  -1  -3    7.79    1.05 
 -17   1  -3    5.56    0.89 
 -17   1  -3    6.03    0.89 
 -18  -1  -3   -0.13    0.55 
  18  -1   3    0.12    0.74 
  18   1   3   -0.11    0.86 
 -18   1  -3    0.54    0.41 
 -18   1  -3    0.74    0.64 
  18   1   3   -0.12    0.63 
 -19  -1  -3    9.96    1.35 
  19  -1   3    7.04    1.27 
  19  -1   3    8.31    1.28 
 -19   1  -3    7.80    1.13 
  20  -1   3    1.40    1.01 
  20  -1   3   -0.35    0.95 
 -20  -1  -3    0.69    0.73 
 -20   1  -3    0.77    0.60 
  20   1   3   -0.01    0.83 
  20   1   3    0.69    1.03 
 -19  -2   3    1.59    0.64 
 -19  -2   3    0.74    0.84 
  19  -2  -3    0.17    0.63 
 -19   2   3    1.49    0.64 
 -19   2   3    1.01    0.60 
 -18  -2   3    0.85    0.60 
  18  -2  -3    1.12    0.52 
 -18  -2   3    0.17    0.82 
 -18   2   3    1.31    0.56 
  18   2  -3    1.06    0.55 
 -18   2   3    1.29    0.54 
 -17  -2   3   -0.54    0.67 
 -17  -2   3    0.13    0.51 
 -17   2   3   -0.37    0.48 
  17   2  -3   -0.28    0.44 
 -17   2   3    0.44    0.48 
 -16  -2   3    2.55    0.74 
  16  -2  -3    3.48    0.69 
 -16  -2   3    1.13    0.68 
 -16   2   3    2.72    0.51 
 -16   2   3    4.24    0.63 
  15  -2  -3    0.96    0.56 
 -15  -2   3    2.79    0.57 
 -15  -2   3    1.91    0.46 
 -15   2   3    2.86    0.46 
 -15   2   3    2.37    0.44 
 -14  -2   3   15.56    1.37 
  14  -2  -3   16.34    1.41 
 -14  -2   3   14.00    1.31 
  14   2  -3   11.60    1.37 
 -14   2   3   15.39    1.33 
 -14   2   3   13.37    1.33 
  13  -2  -3   -0.42    0.74 
 -13  -2   3   -0.19    0.35 
  13  -2  -3   -0.14    0.26 
 -13  -2   3    0.17    0.30 
 -13   2   3    0.09    0.27 
  13   2  -3   -0.25    0.32 
 -13   2   3   -0.03    0.32 
  12  -2  -3    9.45    0.92 
 -12  -2   3    9.77    0.85 
 -12  -2   3    8.52    0.80 
  12  -2  -3    6.43    1.00 
 -12   2   3    7.32    0.81 
  12   2  -3    7.36    0.88 
 -12   2   3    8.53    0.83 
 -11  -2   3   12.34    1.02 
  11  -2  -3   12.23    1.11 
  11  -2  -3   12.11    1.08 
 -11   2   3   10.98    1.06 
 -11   2   3   10.40    1.06 
  10  -2  -3    1.33    0.28 
  10  -2  -3    1.88    0.35 
 -10  -2   3    2.20    0.33 
 -10   2   3    1.37    0.28 
 -10   2   3    1.48    0.30 
   9  -2  -3    4.89    0.54 
   9  -2  -3    5.80    0.59 
  -9   2   3    4.77    0.56 
  -9   2   3    4.99    0.54 
  -8  -2   3    1.51    0.29 
   8  -2  -3    1.53    0.28 
   8  -2  -3    2.48    0.37 
  -8   2   3    1.73    0.31 
  -8   2   3    1.78    0.28 
   7  -2  -3   38.99    3.06 
   7  -2  -3   35.69    3.04 
  -7   2   3   37.14    3.04 
  -7   2   3   35.03    3.04 
   6  -2  -3   94.64    7.89 
   6  -2  -3  101.20    7.91 
  -6   2   3   97.31    7.89 
  -6   2   3   93.41    7.90 
   5  -2  -3    0.02    0.13 
   5  -2  -3   -0.22    0.18 
  -5   2   3    0.20    0.16 
  -5   2   3   -0.12    0.15 
   4  -2  -3    0.91    0.18 
   4  -2  -3    1.08    0.22 
  -4   2   3    1.01    0.20 
  -4   2   3    1.45    0.25 
   3  -2  -3    9.50    0.90 
  -3   2   3   10.91    0.90 
  -3   2   3   10.82    0.94 
  -3   2   3   10.82    0.92 
  -2   2   3   66.45    5.76 
  -2   2   3   67.77    5.75 
  -2   2   3   77.47    5.79 
   1  -2  -3   21.64    1.67 
  -1   2   3   17.69    1.64 
  -1   2   3   19.84    1.66 
   0  -2   3  110.17    8.60 
   0  -2  -3  108.22    8.63 
   0   2   3   96.53    8.61 
   0   2   3  107.53    8.61 
   1  -2   3   41.84    3.21 
  -1  -2  -3   34.71    3.22 
   1   2   3   40.89    3.23 
   2  -2   3   16.06    1.20 
   2  -2   3   16.39    1.21 
  -2  -2  -3   12.97    1.20 
  -2   2  -3   12.59    1.20 
   2   2   3   12.82    1.19 
   3  -2   3    5.69    0.53 
  -3  -2  -3    4.62    0.52 
   3  -2   3    5.92    0.54 
   3   2   3    4.92    0.50 
  -3   2  -3    6.54    0.55 
   4  -2   3    3.67    0.42 
   4  -2   3    3.19    0.44 
  -4  -2  -3    3.81    0.44 
  -4   2  -3    4.31    0.46 
   4   2   3    4.52    0.41 
   5  -2   3    0.09    0.16 
  -5  -2  -3    0.16    0.15 
   5   2   3    0.00    0.11 
  -5   2  -3    0.09    0.19 
   6  -2   3    2.05    0.33 
  -6  -2  -3    1.87    0.31 
   6  -2   3    2.37    0.36 
  -6   2  -3    2.40    0.39 
   6   2   3    2.28    0.32 
   7  -2   3    4.33    0.48 
   7  -2   3    3.85    0.50 
  -7  -2  -3    4.43    0.52 
   7   2   3    4.73    0.46 
  -7   2  -3    4.48    0.52 
   8  -2   3   12.97    1.22 
   8  -2   3   14.11    1.23 
  -8  -2  -3   14.40    1.25 
  -8   2  -3   13.12    1.24 
   8   2   3   15.01    1.20 
   9  -2   3    7.06    0.79 
  -9  -2  -3    8.56    0.82 
   9  -2   3    8.22    0.80 
  -9   2  -3    7.82    0.81 
  -9   2  -3    8.02    0.81 
   9   2   3    9.12    0.76 
 -10  -2  -3   22.92    1.91 
  10  -2   3   23.19    1.90 
  10  -2   3   20.69    1.89 
 -10   2  -3   20.25    1.89 
  10   2   3   24.31    1.86 
 -10   2  -3   20.43    1.90 
  11  -2   3    6.38    0.68 
  11  -2   3    5.53    0.67 
 -11  -2  -3    6.12    0.74 
 -11   2  -3    6.20    0.72 
  11   2   3    6.05    0.65 
 -11   2  -3    6.30    0.68 
  12  -2   3    4.18    0.67 
 -12  -2  -3    3.84    0.65 
  12  -2   3    3.00    0.70 
 -12   2  -3    4.15    0.61 
 -12   2  -3    4.37    0.58 
 -13  -2  -3    0.12    0.40 
  13  -2   3    0.13    0.38 
  13  -2   3    0.57    0.35 
 -13   2  -3    0.47    0.37 
 -13   2  -3    0.21    0.28 
  13   2   3    0.32    0.34 
  13   2   3   -0.01    0.28 
 -14  -2  -3   14.11    1.34 
  14  -2   3   12.64    1.26 
  14   2   3   10.90    1.22 
 -14   2  -3   12.39    1.28 
 -14   2  -3   15.17    1.25 
 -15  -2  -3   11.82    1.30 
 -15   2  -3   10.08    1.19 
 -15   2  -3   13.21    1.16 
 -16  -2  -3    2.40    0.64 
  16   2   3    1.73    0.45 
 -16   2  -3    2.38    0.56 
 -16   2  -3    2.27    0.48 
 -17  -2  -3    2.74    0.63 
  17  -2   3    1.16    0.70 
  17   2   3    1.63    0.57 
 -17   2  -3    1.69    0.62 
 -17   2  -3    1.72    0.52 
 -18  -2  -3    1.16    0.61 
  18  -2   3    0.61    0.74 
  18  -2   3    1.37    0.80 
  18   2   3    0.01    0.63 
 -18   2  -3    0.61    0.52 
 -19  -2  -3   11.22    1.56 
 -19   2  -3    9.97    1.37 
  18  -3  -3    0.78    0.96 
 -18  -3   3   -0.61    0.68 
  18  -3  -3    0.38    0.61 
 -18   3   3   -0.78    0.63 
 -18   3   3    1.38    0.65 
 -17  -3   3   -0.05    0.59 
  17  -3  -3    0.57    0.81 
  17  -3  -3    0.22    0.52 
 -17   3   3    0.54    0.54 
 -17   3   3    1.33    0.60 
  16  -3  -3    0.54    0.72 
 -16   3   3    1.36    0.55 
 -16   3   3    0.87    0.49 
  15  -3  -3   -0.08    0.45 
 -15  -3   3    0.68    0.45 
 -15   3   3    0.88    0.43 
 -15   3   3    0.63    0.46 
  14  -3  -3    6.13    0.82 
 -14  -3   3    5.72    0.81 
 -14   3   3    4.94    0.77 
 -14   3   3    6.30    0.77 
  13  -3  -3    4.76    0.70 
 -13  -3   3    4.72    0.68 
  13  -3  -3    4.44    0.75 
 -13   3   3    3.88    0.65 
 -13   3   3    3.73    0.58 
  12  -3  -3    1.54    0.43 
  12  -3  -3    1.34    0.42 
 -12  -3   3    1.25    0.34 
 -12   3   3    1.42    0.33 
 -12   3   3    1.42    0.41 
  11  -3  -3    0.11    0.41 
  11  -3  -3    0.09    0.34 
 -11   3   3   -0.11    0.31 
 -11   3   3   -0.26    0.25 
  10  -3  -3    6.61    0.74 
 -10   3   3    7.03    0.74 
 -10   3   3    6.27    0.70 
   9  -3  -3    8.54    0.85 
   9  -3  -3    7.74    0.82 
  -9   3   3    7.61    0.81 
  -9   3   3    8.27    0.80 
   8  -3  -3   13.33    1.18 
   8  -3  -3   13.85    1.22 
  -8   3   3   12.37    1.17 
  -8   3   3   12.98    1.18 
   7  -3  -3    3.21    0.44 
   7  -3  -3    3.56    0.52 
  -7   3   3    4.02    0.47 
  -7   3   3    3.43    0.46 
   6  -3  -3    0.52    0.21 
   6  -3  -3    0.78    0.25 
  -6   3   3    0.31    0.23 
  -6   3   3    0.33    0.22 
   5  -3  -3    0.32    0.24 
   5  -3  -3    0.40    0.20 
  -5   3   3    0.26    0.21 
  -5   3   3    0.31    0.21 
  -5   3   3    0.23    0.21 
   4  -3  -3    0.32    0.22 
   4  -3  -3    0.35    0.17 
  -4   3   3    0.28    0.19 
  -4   3   3    0.30    0.20 
  -4   3   3    0.30    0.19 
  -3   3   3    2.48    0.40 
  -3   3   3    2.58    0.35 
  -3   3   3    2.33    0.33 
  -2   3   3   33.39    2.88 
  -2   3   3   36.14    2.91 
  -1  -3   3    1.59    0.28 
   1  -3  -3    1.64    0.30 
  -1   3   3    2.19    0.33 
  -1   3   3    2.01    0.32 
   0  -3   3   63.09    4.88 
   0  -3  -3   62.36    4.93 
   0   3   3   61.38    4.89 
   0   3   3   51.63    4.89 
   1  -3   3   24.53    1.89 
  -1  -3  -3   24.06    1.92 
   1   3   3   22.63    1.89 
   1   3   3   19.08    1.88 
   2  -3   3    3.99    0.39 
   2  -3   3    3.21    0.40 
  -2  -3  -3    3.14    0.41 
  -2   3  -3    2.71    0.40 
   2   3   3    2.79    0.35 
   2   3   3    3.90    0.39 
  -2   3  -3    2.95    0.39 
   3  -3   3    2.82    0.38 
   3  -3   3    2.27    0.38 
  -3  -3  -3    2.43    0.38 
   3   3   3    2.62    0.34 
   3   3   3    2.23    0.31 
  -3   3  -3    3.11    0.39 
  -3   3  -3    2.45    0.36 
   4  -3   3   12.94    1.11 
  -4  -3  -3   10.80    1.11 
   4  -3   3   12.01    1.11 
   4   3   3   11.76    1.08 
   4   3   3   13.21    1.09 
  -4   3  -3   14.68    1.14 
   5  -3   3    7.17    0.69 
  -5  -3  -3    6.13    0.69 
   5  -3   3    6.27    0.68 
   5   3   3    7.38    0.63 
   5   3   3    6.39    0.63 
  -5   3  -3    7.39    0.70 
   6  -3   3    2.88    0.47 
  -6  -3  -3    4.36    0.54 
   6  -3   3    3.46    0.49 
  -6   3  -3    4.71    0.53 
   7  -3   3   10.18    0.97 
  -7  -3  -3   10.77    1.04 
   7  -3   3    9.92    0.98 
  -7   3  -3   11.33    1.01 
  -8  -3  -3   14.76    1.37 
   8  -3   3   14.35    1.32 
   8  -3   3   14.37    1.31 
  -8   3  -3   14.98    1.33 
   9  -3   3    4.38    0.56 
  -9  -3  -3    3.27    0.57 
   9  -3   3    4.57    0.57 
  -9   3  -3    4.49    0.63 
  10  -3   3    0.40    0.46 
  10  -3   3   -0.17    0.30 
 -10   3  -3   -0.07    0.32 
  11  -3   3    0.98    0.36 
 -11  -3  -3    0.97    0.42 
  11  -3   3    0.83    0.36 
 -11   3  -3    0.75    0.36 
  12  -3   3    2.83    0.47 
 -12  -3  -3    2.70    0.57 
 -12   3  -3    2.68    0.47 
  13  -3   3    1.73    0.50 
 -13  -3  -3    0.90    0.48 
 -13   3  -3    1.35    0.42 
 -14  -3  -3    0.29    0.49 
  14  -3   3    0.12    0.53 
 -14   3  -3    0.45    0.40 
  15  -3   3    0.17    0.55 
 -15  -3  -3    0.64    0.55 
 -15   3  -3   -0.12    0.39 
  16  -3   3    1.08    0.61 
 -16  -3  -3   -0.11    0.59 
  16  -3   3   -0.46    0.59 
 -16   3  -3    0.74    0.48 
  17  -3   3    0.34    0.75 
  17  -3   3    1.21    0.71 
 -17  -3  -3   -0.40    0.65 
 -17   3  -3   -0.31    0.52 
  18  -3   3    0.52    0.82 
  18  -3   3    0.44    0.92 
 -18  -3  -3    0.00    0.76 
 -18   3  -3   -0.30    0.63 
 -16  -4   3   -0.34    0.78 
  16  -4  -3    0.78    0.66 
  16  -4  -3    0.00    0.93 
 -16   4   3    1.40    0.71 
 -16   4   3    1.77    0.74 
  15  -4  -3   -0.34    0.64 
 -15  -4   3    0.18    0.68 
  15  -4  -3   -0.14    0.60 
 -15   4   3    0.71    0.65 
 -15   4   3    0.81    0.63 
  14  -4  -3    1.70    0.59 
  14  -4  -3    0.75    0.52 
 -14   4   3    1.37    0.62 
 -14   4   3    1.19    0.61 
  13  -4  -3    0.07    0.42 
 -13   4   3    0.27    0.52 
 -13   4   3    0.20    0.48 
  12  -4  -3    4.09    0.75 
 -12   4   3    4.47    0.79 
 -12   4   3    4.85    0.75 
  11  -4  -3   11.13    1.22 
 -11   4   3   13.56    1.27 
 -11   4   3   12.53    1.23 
  10  -4  -3    4.84    0.73 
 -10   4   3    6.42    0.78 
 -10   4   3    5.87    0.75 
   9  -4  -3    3.83    0.62 
   9  -4  -3    4.09    0.68 
  -9   4   3    3.32    0.62 
  -9   4   3    3.87    0.79 
  -9   4   3    5.64    0.79 
   8  -4  -3   51.42    4.41 
   8  -4  -3   52.92    4.43 
  -8   4   3   56.38    4.49 
  -8   4   3   50.03    4.40 
  -8   4   3   54.29    4.41 
   7  -4  -3   10.51    1.05 
   7  -4  -3   12.44    1.11 
  -7   4   3   10.39    1.06 
  -7   4   3   11.25    1.25 
  -7   4   3   10.64    1.06 
   6  -4  -3   12.75    1.19 
   6  -4  -3   13.12    1.31 
  -6   4   3   13.06    1.20 
  -6   4   3   13.35    1.26 
  -6   4   3   12.47    1.20 
   5  -4  -3   13.06    1.23 
   5  -4  -3   12.20    1.16 
  -5   4   3   12.81    1.19 
  -5   4   3   13.77    1.25 
  -4   4   3    5.63    0.67 
  -4   4   3    6.14    0.72 
  -3  -4   3    4.47    0.54 
  -3  -4   3    4.35    0.64 
  -3   4   3    5.89    0.61 
  -3   4   3    5.16    0.63 
  -2  -4   3   33.55    2.85 
  -2  -4   3   31.76    2.91 
  -2   4   3   35.89    2.90 
  -2   4   3   36.08    2.87 
  -1  -4   3   16.18    1.44 
  -1   4   3   17.30    1.45 
  -1   4   3   16.31    1.45 
   0  -4  -3    0.94    0.32 
   0  -4   3    1.25    0.27 
   0   4   3    1.12    0.26 
   0   4   3    1.02    0.26 
  -1  -4  -3   24.65    2.06 
   1  -4   3   24.08    2.00 
   1   4   3   21.87    1.98 
   1   4   3   23.56    1.98 
  -2  -4  -3    8.08    0.82 
   2  -4   3    7.27    0.78 
   2   4   3    7.74    0.72 
   2   4   3    7.27    0.72 
   3  -4   3    2.84    0.43 
  -3  -4  -3    3.66    0.52 
  -3   4  -3    2.08    0.34 
  -3   4  -3    2.78    0.41 
   4  -4   3    0.49    0.26 
   4  -4   3    0.30    0.30 
  -4  -4  -3    0.74    0.28 
  -4   4  -3    0.49    0.30 
  -4   4  -3    0.44    0.24 
   5  -4   3    7.28    0.72 
  -5  -4  -3    7.97    0.79 
   5  -4   3    6.49    0.77 
  -5   4  -3    7.36    0.78 
  -5   4  -3    5.05    0.83 
  -6  -4  -3    6.15    0.77 
   6  -4   3    4.55    0.70 
   6  -4   3    6.05    0.66 
  -6   4  -3    5.15    0.78 
  -6   4  -3    5.90    0.72 
   7  -4   3    5.82    0.70 
  -7  -4  -3    6.67    0.84 
   7  -4   3    5.69    0.75 
  -7   4  -3    6.11    0.75 
   8  -4   3   19.89    1.79 
   8  -4   3   20.01    1.77 
  -8  -4  -3   21.32    1.86 
  -8   4  -3   18.73    1.79 
  -9  -4  -3    0.94    0.48 
   9  -4   3    0.43    0.41 
   9  -4   3    0.92    0.41 
  -9   4  -3    0.37    0.39 
  10  -4   3    1.32    0.44 
  10  -4   3    2.44    0.49 
 -10  -4  -3    1.76    0.62 
 -10   4  -3    1.42    0.44 
  11  -4   3    2.43    0.53 
 -11  -4  -3    1.79    0.66 
  11  -4   3    1.38    0.51 
 -11   4  -3    1.60    0.48 
  12  -4   3   17.28    1.67 
  12  -4   3   18.24    1.66 
 -12  -4  -3   19.13    1.84 
 -12   4  -3   14.43    1.62 
 -13  -4  -3    3.60    0.85 
  13  -4   3    3.30    0.72 
 -13   4  -3    3.70    0.64 
  14  -4   3    1.92    0.81 
  14  -4   3    2.66    0.65 
 -14  -4  -3    4.31    0.91 
 -14   4  -3    3.87    0.66 
 -15  -4  -3    3.40    0.90 
  15  -4   3    2.32    0.72 
  15  -4   3    2.29    0.95 
 -15   4  -3    2.48    0.62 
 -16  -4  -3    3.11    1.03 
  16  -4   3    3.25    0.85 
  16  -4   3    1.74    0.78 
 -16   4  -3    4.12    0.81 
  14  -5  -3   -0.41    0.64 
 -14   5   3    2.27    1.15 
 -14   5   3    2.00    0.88 
 -14   5   3    0.18    0.62 
  13  -5  -3    0.06    0.53 
  13  -5  -3    1.81    0.63 
 -13   5   3    0.88    0.61 
 -13   5   3    1.89    0.74 
 -13   5   3    1.02    1.02 
  12  -5  -3    0.73    0.62 
  12  -5  -3    0.34    0.51 
 -12   5   3    1.13    0.70 
 -12   5   3   -1.08    0.87 
 -12   5   3    0.63    0.54 
  11  -5  -3    2.30    0.58 
  11  -5  -3    3.37    0.66 
 -11   5   3    3.79    0.65 
 -11   5   3    1.49    0.86 
 -11   5   3    4.02    0.69 
  10  -5  -3    0.15    0.53 
  10  -5  -3    0.16    0.41 
 -10   5   3    0.93    0.52 
 -10   5   3    0.79    0.49 
 -10   5   3    0.70    0.68 
   9  -5  -3    2.03    0.55 
   9  -5  -3    0.92    0.43 
  -9   5   3    1.04    0.50 
  -9   5   3    1.76    0.52 
   8  -5  -3    5.53    1.04 
  -8   5   3    6.15    1.03 
  -8   5   3    5.94    0.88 
  -8   5   3    6.39    0.88 
   7  -5  -3    2.22    0.49 
  -7   5   3    2.69    0.63 
  -7   5   3    3.94    0.68 
  -7   5   3    3.63    0.55 
  -6  -5   3    6.10    0.99 
  -6   5   3    8.07    1.04 
  -6   5   3    7.67    1.02 
  -5  -5   3    5.42    0.92 
  -5   5   3    5.94    0.78 
  -4  -5   3   15.73    1.49 
  -4  -5   3   12.42    1.32 
  -4   5   3   15.94    1.43 
  -4   5   3   14.72    1.37 
  -3  -5   3    8.34    0.95 
  -3   5   3    9.98    0.99 
  -3   5   3   10.26    1.05 
  -2  -5   3    0.47    0.33 
  -2   5   3    0.78    0.38 
  -2   5   3    0.74    0.35 
  -1  -5   3    4.37    0.65 
  -1   5   3    4.11    0.64 
  -1   5   3    4.78    0.63 
   0  -5   3    3.36    0.48 
   0   5   3    2.12    0.40 
   0   5   3    2.96    0.51 
  -1  -5  -3    0.78    0.46 
   1  -5   3    0.56    0.37 
   2  -5   3    2.56    0.51 
   3  -5   3    4.06    0.64 
  -3  -5  -3    4.78    0.85 
   4  -5   3    4.20    0.81 
  -4  -5  -3    5.42    0.84 
  -5  -5  -3    2.26    0.56 
   5  -5   3    2.21    0.56 
  -5   5  -3    3.10    0.58 
   6  -5   3    1.53    0.41 
   6  -5   3    3.02    0.58 
  -6  -5  -3    2.26    0.51 
  -6   5  -3    2.63    0.61 
  -6   5  -3    1.74    0.39 
   7  -5   3   14.72    1.48 
  -7  -5  -3   14.09    1.46 
  -7   5  -3   12.93    1.54 
  -8  -5  -3    3.43    0.66 
   8  -5   3    3.09    0.65 
   8  -5   3    2.18    0.51 
  -8   5  -3    2.92    0.76 
   9  -5   3    4.70    0.85 
   9  -5   3    6.99    0.99 
  -9  -5  -3    5.77    0.91 
  -9   5  -3    4.24    0.68 
  -9   5  -3    7.47    1.05 
 -10  -5  -3    2.24    0.77 
  10  -5   3    1.56    0.67 
 -10   5  -3    2.28    0.82 
  11  -5   3   -0.51    0.52 
 -11  -5  -3    0.16    0.77 
  11  -5   3   -0.15    0.58 
  12  -5   3   17.79    1.90 
  12  -5   3   20.31    1.90 
 -12   5  -3   17.27    1.85 
 -13  -5  -3    1.27    0.96 
  13  -5   3    0.77    0.75 
  13  -5   3    0.99    0.65 
   9  -6  -3    0.14    0.54 
  -9  -6   3    0.29    0.92 
  -9   6   3    2.94    0.94 
  -9   6   3    1.12    0.66 
  -8  -6   3    7.28    1.52 
  -8   6   3   10.06    1.50 
  -8   6   3    9.33    1.19 
  -7  -6   3   -0.37    1.07 
  -7   6   3    0.20    0.54 
  -6  -6   3    1.90    0.92 
  -6   6   3    0.44    0.50 
  -6   6   3    1.02    0.68 
  -5   6   3   29.06    2.68 
  -5   6   3   29.72    2.72 
  -4   6   3   15.59    1.45 
  -4   6   3   13.29    1.63 
  -3   6   3    3.84    0.69 
  -3   6   3    3.87    0.58 
  -2  -6   3    3.18    0.65 
  -2   6   3    4.24    0.70 
  -2   6   3    3.51    0.62 
  -1  -6   3    3.74    0.65 
   1  -6   3    7.66    1.01 
   2  -6   3    1.33    0.58 
   3  -6   3   -0.43    0.53 
  -3  -6  -3   -0.13    0.68 
  -4  -6  -3    1.63    0.69 
   4  -6   3   -0.24    0.56 
  -5  -6  -3    0.37    0.70 
   5  -6   3   -0.19    0.61 
   6  -6   3   -0.22    0.65 
  -6  -6  -3   -0.48    0.68 
   7  -6   3   -0.10    0.49 
   7  -6   3    0.84    0.71 
  -7  -6  -3    1.47    0.77 
  -7   6  -3    0.10    0.39 
  -7   6  -3    0.94    0.80 
   8  -6   3    0.30    0.58 
   8  -6   3    0.17    0.76 
  -8  -6  -3    0.35    0.81 
  -8   6  -3   -0.26    0.55 
  -8   6  -3    1.18    0.89 
   9  -6   3    0.54    0.60 
  -9  -6  -3    0.13    0.81 
   9  -6   3    0.04    0.82 
  -9   6  -3    0.00    0.98 
  -9   6  -3    0.29    0.47 
 -20   0   4   -0.52    0.77 
  20   0  -4   -0.62    0.72 
 -20   0   4   -0.51    0.80 
 -19   0   4    0.35    0.66 
 -19   0   4    0.77    0.67 
  19   0  -4   -0.13    0.57 
 -18   0   4    0.28    0.56 
 -18   0   4    0.75    0.61 
  18   0  -4   -0.11    0.54 
 -17   0   4   11.65    1.26 
 -17   0   4   13.26    1.32 
 -16   0   4   23.66    2.10 
 -16   0   4   24.67    2.08 
  16   0  -4   21.89    2.12 
 -15   0   4    7.51    0.88 
 -15   0   4    8.38    0.89 
  15   0  -4    7.69    0.92 
 -14   0   4    0.89    0.38 
 -14   0   4    1.07    0.32 
 -13   0   4    9.84    1.01 
  13   0  -4   10.95    1.00 
 -13   0   4   10.91    0.99 
  12   0  -4  108.97    8.24 
 -12   0   4   85.10    8.21 
 -12   0   4  107.39    8.23 
  11   0  -4    2.08    0.36 
 -11   0   4    2.25    0.35 
 -11   0   4    2.42    0.33 
 -10   0   4    3.97    0.47 
 -10   0   4    4.34    0.45 
  10   0  -4    4.38    0.48 
  -9   0   4   76.60    6.36 
   9   0  -4   79.18    6.38 
  -9   0   4   77.44    6.36 
  -8   0   4   76.04    6.72 
   8   0  -4   86.07    6.74 
  -8   0   4   84.70    6.73 
   7   0  -4   25.19    2.09 
  -7   0   4   24.45    2.07 
   6   0  -4   23.63    1.89 
  -6   0   4   21.40    1.87 
   5   0  -4   74.27    6.08 
   4   0  -4   78.25    6.32 
  -4   0   4   76.21    6.31 
  -3   0   4  202.46   16.12 
   3   0  -4  193.48   16.12 
  -2   0   4  457.16   37.23 
  -1   0   4    0.21    0.11 
   1   0  -4    0.25    0.10 
   0   0  -4   41.98    3.40 
   0   0   4   41.17    3.40 
  -1   0  -4   24.89    2.10 
   1   0   4   26.09    2.10 
  -2   0  -4 1000.00   80.06 
   2   0   4  968.15   80.05 
   3   0   4   47.84    4.17 
  -3   0  -4   53.99    4.18 
   4   0   4  237.03   19.51 
  -4   0  -4  242.70   19.52 
  -5   0  -4   -0.12    0.16 
   5   0   4   -0.18    0.13 
   5   0   4    0.06    0.14 
   6   0   4    0.49    0.20 
   6   0   4    0.52    0.16 
  -6   0  -4    0.44    0.17 
   7   0   4    0.08    0.19 
  -7   0  -4    0.27    0.18 
   7   0   4    0.15    0.15 
  -8   0  -4    2.50    0.40 
   8   0   4    3.89    0.44 
   8   0   4    3.07    0.39 
   9   0   4   75.89    6.44 
  -9   0  -4   75.49    6.46 
   9   0   4   84.22    6.46 
  10   0   4   89.40    7.75 
 -10   0  -4   95.10    7.77 
  10   0   4   99.46    7.77 
  11   0   4   80.26    7.02 
  11   0   4   91.12    7.04 
 -11   0  -4   85.36    7.04 
  12   0   4   71.78    5.98 
  12   0   4   71.24    5.96 
 -12   0  -4   74.04    5.98 
 -13   0  -4   27.61    2.27 
  13   0   4   23.39    2.26 
  13   0   4   27.76    2.27 
 -14   0  -4  144.37   13.20 
  14   0   4  177.82   13.19 
  15   0   4    5.31    0.77 
 -15   0  -4    4.60    0.72 
  16   0   4    1.57    0.55 
 -16   0  -4    1.77    0.44 
  16   0   4    1.13    0.60 
  17   0   4    1.67    0.62 
 -17   0  -4    2.39    0.55 
  18   0   4    0.53    0.68 
  18   0   4    0.92    0.85 
 -18   0  -4    0.95    0.54 
 -19   0  -4    0.15    0.59 
  19   0   4    0.05    0.89 
  20   0   4    1.28    1.28 
 -20   0  -4    3.55    0.80 
  20   0   4   -0.71    1.03 
 -20  -1   4   -1.14    0.99 
  20  -1  -4   -0.23    0.76 
 -20  -1   4    0.86    0.71 
  20   1  -4   -0.69    0.71 
 -20   1   4   -0.23    0.80 
 -20   1   4   -0.43    0.71 
  19  -1  -4   -0.27    0.59 
 -19  -1   4   -0.04    0.82 
 -19  -1   4    0.90    0.66 
 -19   1   4    0.22    0.66 
 -19   1   4   -0.59    0.60 
  19   1  -4   -0.37    0.60 
 -18  -1   4    0.29    0.62 
 -18  -1   4   -0.05    0.59 
  18  -1  -4   -0.13    0.48 
 -18   1   4    0.80    0.53 
 -18   1   4   -0.01    0.63 
 -17  -1   4    1.77    0.56 
  17  -1  -4    1.47    0.49 
 -17  -1   4    2.52    0.70 
 -17   1   4    2.48    0.47 
 -17   1   4    2.18    0.58 
  17   1  -4    1.82    0.59 
 -16  -1   4    1.73    0.52 
 -16  -1   4    1.86    0.57 
 -16   1   4    1.96    0.42 
 -16   1   4    1.86    0.51 
  16   1  -4    1.09    0.51 
 -15  -1   4    6.53    0.82 
 -15  -1   4    7.82    0.83 
  15   1  -4    6.26    0.90 
 -15   1   4    6.18    0.74 
 -15   1   4    6.26    0.80 
 -14  -1   4    5.12    0.79 
 -14   1   4    5.14    0.63 
 -14   1   4    5.83    0.70 
  14   1  -4    5.79    0.74 
 -13  -1   4    9.63    0.88 
 -13  -1   4    8.96    0.89 
 -13   1   4    8.71    0.86 
  13   1  -4    8.58    0.92 
 -12  -1   4    2.28    0.35 
  12  -1  -4    2.08    0.37 
 -12  -1   4    2.31    0.37 
  12   1  -4    1.91    0.39 
 -12   1   4    2.18    0.38 
 -12   1   4    2.54    0.36 
  11  -1  -4    7.53    0.76 
 -11  -1   4    7.88    0.76 
 -11  -1   4    8.24    0.75 
 -11   1   4    7.85    0.76 
 -11   1   4    8.13    0.75 
  10  -1  -4    9.48    0.83 
 -10  -1   4    7.23    0.79 
 -10  -1   4    9.17    0.81 
 -10   1   4    9.14    0.82 
 -10   1   4    8.75    0.81 
  10   1  -4    9.23    0.85 
  -9  -1   4    9.71    0.90 
   9  -1  -4   10.10    0.92 
   9   1  -4   10.71    0.95 
  -9   1   4   10.33    0.91 
  -9   1   4   10.13    0.91 
   8  -1  -4   41.91    3.57 
  -8  -1   4   43.48    3.57 
  -8   1   4   43.74    3.57 
  -8   1   4   43.78    3.57 
   7  -1  -4   90.39    7.14 
  -7  -1   4   83.45    7.13 
  -7   1   4   82.01    7.13 
  -7   1   4   93.15    7.13 
   6  -1  -4   37.56    3.11 
   6   1  -4   33.96    3.12 
  -6   1   4   40.89    3.12 
  -6   1   4   38.48    3.11 
   5  -1  -4   69.45    5.51 
  -5  -1   4   59.02    5.51 
   5   1  -4   59.54    5.51 
  -5   1   4   73.27    5.51 
  -5   1   4   74.97    5.51 
   4  -1  -4    0.47    0.16 
  -4  -1   4    0.52    0.17 
  -4   1   4    0.60    0.15 
  -4   1   4    0.80    0.17 
   3  -1  -4   92.05    7.46 
  -3   1   4   90.81    7.46 
   2  -1  -4   18.21    1.57 
  -2   1   4   19.77    1.58 
  -2   1   4   18.09    1.56 
   1  -1  -4   67.02    5.58 
   1  -1  -4   76.89    5.58 
  -1   1   4   65.20    5.57 
  -1   1   4   63.48    5.58 
   0  -1  -4  142.12   12.31 
   0   1   4  165.80   12.31 
   0   1   4  145.88   12.32 
   1  -1   4    0.32    0.11 
  -1  -1  -4    0.15    0.12 
   1   1   4    0.16    0.11 
  -1   1  -4    0.23    0.10 
  -2  -1  -4  552.21   41.40 
   2  -1   4  492.06   41.45 
   2   1   4  511.08   41.43 
  -2   1  -4  481.06   41.44 
  -3  -1  -4   12.55    1.04 
   3  -1   4   13.64    1.04 
   3   1   4   11.77    1.02 
  -3   1  -4   10.04    1.03 
   4  -1   4   15.71    1.33 
  -4  -1  -4   15.36    1.34 
   4   1   4   15.74    1.32 
   5  -1   4    4.38    0.43 
   5  -1   4    3.24    0.39 
  -5  -1  -4    4.08    0.42 
   5   1   4    3.99    0.38 
  -5   1  -4    2.94    0.40 
   6  -1   4    2.52    0.34 
  -6  -1  -4    1.89    0.32 
   6  -1   4    2.27    0.33 
   6   1   4    2.42    0.36 
  -6   1  -4    2.81    0.35 
   6   1   4    1.98    0.31 
   7  -1   4    3.23    0.37 
  -7  -1  -4    2.32    0.38 
   7  -1   4    2.68    0.41 
   7   1   4    2.55    0.38 
   7   1   4    3.12    0.40 
  -7   1  -4    3.38    0.40 
  -8  -1  -4    7.61    0.76 
   8  -1   4    7.10    0.73 
   8  -1   4    8.44    0.76 
   8   1   4    8.89    0.75 
  -8   1  -4    6.46    0.75 
   8   1   4    7.96    0.72 
   9  -1   4   39.28    3.51 
   9  -1   4   43.08    3.53 
  -9  -1  -4   42.70    3.54 
   9   1   4   43.41    3.52 
  -9   1  -4   44.28    3.54 
   9   1   4   41.83    3.51 
  10  -1   4    2.94    0.45 
 -10  -1  -4    3.16    0.47 
  10  -1   4    3.68    0.48 
  10   1   4    2.60    0.46 
 -10   1  -4    3.76    0.49 
  10   1   4    3.93    0.46 
 -11  -1  -4   28.60    2.55 
  11  -1   4   29.10    2.53 
  11  -1   4   31.78    2.56 
  11   1   4   29.38    2.53 
 -11   1  -4   31.66    2.56 
  11   1   4   29.89    2.53 
  12  -1   4    0.71    0.32 
 -12  -1  -4    0.40    0.28 
  12   1   4    0.33    0.34 
  12   1   4    0.22    0.33 
  13  -1   4   11.63    1.17 
 -13  -1  -4   10.34    1.24 
 -13   1  -4   12.34    1.13 
  13   1   4   12.67    1.12 
  13   1   4   10.34    1.11 
  14  -1   4   -0.37    0.40 
  14  -1   4   -0.40    0.40 
 -14  -1  -4    0.29    0.34 
  14   1   4   -0.47    0.42 
 -14   1  -4    0.08    0.30 
  14   1   4   -0.39    0.44 
 -15  -1  -4   28.71    2.81 
  15  -1   4   35.71    2.80 
  15  -1   4   29.25    2.81 
  15   1   4   32.60    2.78 
 -15   1  -4   35.43    2.81 
 -16  -1  -4   21.95    2.28 
  16  -1   4   27.43    2.27 
  16   1   4   24.42    2.23 
 -16   1  -4   27.42    2.27 
  17  -1   4    6.96    1.17 
 -17  -1  -4   10.40    1.20 
 -17   1  -4   10.33    1.15 
  17   1   4    8.34    1.14 
  18  -1   4   -1.25    0.77 
 -18  -1  -4   -0.36    0.56 
  18  -1   4   -0.58    0.73 
  18   1   4    1.01    0.80 
 -18   1  -4    0.26    0.49 
  19  -1   4   -0.54    0.81 
  19  -1   4    0.02    0.92 
 -19  -1  -4   -0.35    0.63 
 -19   1  -4   -0.70    0.52 
  19   1   4   -0.03    0.74 
  19   1   4   -0.76    0.78 
  20  -1   4    0.12    0.97 
  20  -1   4   -0.02    1.03 
 -20  -1  -4    1.49    0.78 
  20   1   4   -1.03    0.95 
 -20   1  -4    0.12    0.63 
  20   1   4   -0.46    0.82 
 -19  -2   4    0.60    0.68 
  19  -2  -4    0.28    0.66 
 -19  -2   4   -1.64    0.96 
 -19   2   4    0.64    0.67 
 -19   2   4    0.89    0.60 
 -18  -2   4    1.07    0.61 
 -18  -2   4    0.31    0.81 
  18  -2  -4    0.87    0.60 
 -18   2   4    2.21    0.63 
 -18   2   4    1.08    0.56 
  18   2  -4    1.80    0.64 
 -17  -2   4    0.37    0.50 
 -17  -2   4    0.67    0.69 
  17   2  -4    0.22    0.51 
 -17   2   4    0.13    0.43 
 -17   2   4    0.60    0.50 
 -16  -2   4    7.23    1.03 
 -16   2   4    6.97    0.88 
 -16   2   4    7.55    0.92 
  16   2  -4    8.15    1.04 
 -15  -2   4   -0.09    0.39 
 -15   2   4    0.31    0.34 
 -15   2   4   -0.21    0.38 
  15   2  -4    0.15    0.42 
 -14  -2   4    2.14    0.43 
 -14  -2   4    3.08    0.52 
  14   2  -4    1.98    0.48 
 -14   2   4    2.71    0.45 
 -14   2   4    2.48    0.45 
 -13  -2   4    1.79    0.39 
  13  -2  -4    2.13    0.41 
  13  -2  -4    1.54    0.50 
 -13  -2   4    2.94    0.46 
 -13   2   4    1.65    0.37 
 -13   2   4    1.85    0.38 
  13   2  -4    1.63    0.42 
 -12  -2   4    6.73    0.68 
 -12  -2   4    6.76    0.65 
  12  -2  -4    5.14    0.74 
 -12   2   4    5.31    0.65 
 -12   2   4    6.68    0.67 
  12   2  -4    4.72    0.75 
  11  -2  -4   -0.10    0.21 
  11  -2  -4    0.09    0.33 
 -11   2   4    0.56    0.29 
  11   2  -4   -0.32    0.27 
  10  -2  -4    0.13    0.28 
 -10  -2   4    0.21    0.21 
  10  -2  -4   -0.14    0.19 
 -10   2   4   -0.10    0.20 
 -10   2   4   -0.21    0.19 
  10   2  -4    0.20    0.24 
   9  -2  -4    9.89    0.90 
   9  -2  -4    8.66    0.85 
  -9  -2   4    9.63    0.84 
  -9   2   4    9.31    0.85 
  -9   2   4    8.64    0.86 
   8  -2  -4    4.97    0.54 
  -8   2   4    4.94    0.55 
  -8   2   4    5.85    0.54 
   7  -2  -4   52.72    4.43 
  -7   2   4   55.31    4.43 
  -7   2   4   53.36    4.43 
   6  -2  -4   45.60    3.92 
  -6   2   4   49.54    3.92 
  -6   2   4   47.71    3.93 
   5  -2  -4    2.80    0.36 
  -5   2   4    3.38    0.40 
  -5   2   4    3.53    0.38 
   4  -2  -4   51.17    4.56 
  -4   2   4   54.66    4.56 
  -4   2   4   54.87    4.58 
  -4   2   4   62.24    4.61 
   3  -2  -4    8.52    0.80 
  -3   2   4    8.78    0.79 
  -3   2   4    8.75    0.81 
  -3   2   4   10.33    0.85 
   2  -2  -4    2.17    0.30 
  -2   2   4    2.03    0.34 
  -2   2   4    2.14    0.30 
   1  -2  -4   34.28    2.69 
  -1   2   4   31.31    2.68 
  -1   2   4   31.17    2.67 
   0  -2  -4  115.47    9.09 
   0   2   4  107.10    9.08 
   1  -2   4   27.04    1.95 
  -1  -2  -4   22.86    1.96 
   1   2   4   20.54    1.95 
   2  -2   4    4.06    0.37 
  -2  -2  -4    3.46    0.36 
   2   2   4    2.99    0.34 
  -2   2  -4    2.88    0.37 
   3  -2   4    0.83    0.19 
  -3  -2  -4    0.61    0.17 
   3  -2   4    0.62    0.19 
   3   2   4    0.56    0.15 
  -3   2  -4    0.82    0.20 
   4  -2   4   59.16    4.46 
  -4  -2  -4   53.22    4.46 
   4  -2   4   55.05    4.45 
   4   2   4   54.42    4.45 
  -4   2  -4   48.98    4.46 
  -5  -2  -4    0.18    0.18 
   5  -2   4    0.29    0.18 
   5  -2   4   -0.09    0.19 
   5   2   4    0.31    0.14 
  -5   2  -4    0.15    0.16 
  -6  -2  -4    4.26    0.50 
   6  -2   4    4.03    0.46 
   6  -2   4    4.09    0.48 
  -6   2  -4    4.34    0.51 
   6   2   4    4.58    0.46 
   7  -2   4    3.70    0.44 
  -7  -2  -4    3.22    0.48 
   7  -2   4    3.35    0.42 
  -7   2  -4    3.24    0.46 
   8  -2   4   17.73    1.55 
  -8  -2  -4   19.19    1.58 
   8  -2   4   16.75    1.54 
  -8   2  -4   16.57    1.57 
   8   2   4   19.31    1.53 
   9  -2   4    9.48    0.93 
  -9  -2  -4   10.28    0.97 
   9  -2   4    9.48    0.91 
  -9   2  -4    9.49    0.95 
   9   2   4   10.39    0.91 
  10  -2   4   11.31    1.06 
  10  -2   4   11.58    1.08 
 -10  -2  -4   11.54    1.11 
 -10   2  -4   11.41    1.11 
  10   2   4   12.20    1.06 
  11  -2   4    1.22    0.32 
 -11  -2  -4    0.53    0.33 
  11  -2   4    0.80    0.28 
 -11   2  -4    0.44    0.30 
  11   2   4    0.77    0.32 
  12  -2   4    1.21    0.37 
 -12  -2  -4    0.49    0.35 
  12  -2   4    0.38    0.30 
 -12   2  -4    0.57    0.32 
  12   2   4    0.44    0.36 
  13  -2   4    1.27    0.40 
 -13  -2  -4    0.89    0.42 
 -13   2  -4    1.08    0.37 
  13   2   4    0.77    0.39 
  14  -2   4   18.69    1.91 
 -14  -2  -4   20.09    1.93 
 -14   2  -4   23.40    1.89 
 -15  -2  -4    0.16    0.48 
 -15   2  -4    0.03    0.36 
  15   2   4    1.00    0.46 
  16  -2   4    0.97    0.67 
 -16  -2  -4    2.17    0.62 
 -16   2  -4    2.05    0.45 
  16   2   4    1.01    0.52 
  16   2   4    0.83    0.55 
  17  -2   4    3.78    0.97 
  17  -2   4    7.46    1.02 
 -17  -2  -4    6.64    1.11 
 -17   2  -4    5.39    0.94 
 -18  -2  -4    0.46    0.70 
  18  -2   4   -0.21    0.79 
 -18   2  -4    0.17    0.50 
  18   2   4    0.08    0.66 
  19  -2   4    0.63    0.93 
  19  -2   4    0.16    0.80 
 -19  -2  -4    0.83    0.79 
 -19   2  -4   -0.29    0.59 
 -18  -3   4    0.02    0.64 
  18  -3  -4   -1.13    0.68 
 -18   3   4    1.08    0.67 
 -18   3   4    0.83    0.63 
 -17  -3   4    0.45    0.57 
  17  -3  -4    1.08    0.58 
 -17   3   4    2.74    0.66 
 -17   3   4    1.87    0.62 
  16  -3  -4    1.23    0.57 
 -16  -3   4    1.78    0.54 
 -16   3   4    3.11    0.56 
  15  -3  -4    0.49    0.50 
 -15  -3   4    0.92    0.42 
 -15   3   4   -0.02    0.45 
 -15   3   4    0.94    0.49 
  14  -3  -4    1.75    0.47 
 -14   3   4    1.77    0.49 
 -14   3   4    1.68    0.49 
  13  -3  -4    0.23    0.45 
  13  -3  -4   -0.06    0.35 
 -13   3   4   -0.68    0.35 
 -13   3   4    0.06    0.32 
  12  -3  -4    4.73    0.66 
  12  -3  -4    4.50    0.71 
 -12   3   4    3.54    0.59 
 -12   3   4    3.96    0.58 
  11  -3  -4    6.20    0.77 
  11  -3  -4    6.81    0.76 
 -11   3   4    5.78    0.69 
 -11   3   4    5.19    0.72 
  10  -3  -4    5.95    0.74 
  10  -3  -4    4.65    0.63 
 -10   3   4    5.71    0.84 
 -10   3   4    5.38    0.63 
   9  -3  -4    2.27    0.39 
   9  -3  -4    2.89    0.44 
  -9   3   4    2.58    0.40 
  -9   3   4    1.44    0.54 
   8  -3  -4    0.40    0.22 
   8  -3  -4    0.60    0.30 
  -8   3   4    0.08    0.22 
  -8   3   4    0.81    0.26 
   7  -3  -4    3.62    0.45 
  -7   3   4    3.58    0.47 
  -7   3   4    2.76    0.44 
   6  -3  -4    2.16    0.37 
  -6   3   4    2.26    0.38 
  -6   3   4    2.67    0.39 
  -6   3   4    2.09    0.36 
   5  -3  -4   34.64    3.08 
  -5   3   4   37.70    3.13 
  -5   3   4   39.65    3.09 
  -5   3   4   36.93    3.10 
   4  -3  -4    1.10    0.23 
  -4   3   4    1.21    0.25 
  -4   3   4    1.32    0.27 
  -4   3   4    1.18    0.23 
  -3   3   4   81.19    6.58 
  -3   3   4   78.62    6.55 
  -2   3   4    0.40    0.20 
  -2   3   4    0.67    0.21 
   1  -3  -4   28.13    2.28 
  -1   3   4   25.05    2.25 
  -1   3   4   27.16    2.24 
   0  -3  -4   77.78    6.06 
   0  -3   4   72.96    6.00 
   0   3   4   65.24    6.02 
   0   3   4   77.97    6.02 
   1  -3   4    0.06    0.17 
  -1  -3  -4   -0.04    0.14 
   1   3   4    0.09    0.19 
   1   3   4   -0.01    0.13 
  -2  -3  -4    0.73    0.21 
   2  -3   4    0.62    0.22 
   2  -3   4    0.94    0.20 
   2   3   4    1.04    0.23 
   2   3   4    0.54    0.17 
   3  -3   4   32.41    2.57 
  -3  -3  -4   28.26    2.57 
   3  -3   4   33.57    2.57 
   3   3   4   30.38    2.55 
   3   3   4   34.12    2.57 
  -3   3  -4   25.97    2.56 
   4  -3   4    2.78    0.37 
  -4  -3  -4    2.30    0.38 
   4  -3   4    2.04    0.38 
   4   3   4    2.06    0.39 
  -4   3  -4    2.01    0.33 
   4   3   4    2.23    0.31 
   5  -3   4    3.94    0.51 
  -5  -3  -4    4.02    0.53 
   5  -3   4    4.53    0.50 
   5   3   4    4.47    0.47 
   5   3   4    3.98    0.50 
  -5   3  -4    3.98    0.51 
  -6  -3  -4    6.70    0.81 
   6  -3   4    7.78    0.77 
   6  -3   4    7.70    0.75 
  -6   3  -4    6.79    0.77 
   6   3   4    8.63    0.72 
  -7  -3  -4   -0.03    0.29 
   7  -3   4   -0.01    0.23 
   7  -3   4    0.02    0.26 
  -7   3  -4   -0.48    0.23 
   7   3   4    0.18    0.20 
   8  -3   4    5.45    0.65 
   8  -3   4    5.54    0.64 
  -8  -3  -4    6.60    0.77 
  -8   3  -4    4.78    0.71 
  -9  -3  -4   16.91    1.47 
   9  -3   4   14.23    1.40 
   9  -3   4   16.31    1.42 
  -9   3  -4   15.03    1.44 
  10  -3   4    0.41    0.30 
 -10  -3  -4   -0.11    0.37 
 -10   3  -4   -0.13    0.31 
  11  -3   4    4.05    0.60 
 -11  -3  -4    4.07    0.65 
  11  -3   4    4.15    0.64 
 -11   3  -4    3.74    0.59 
 -12  -3  -4   17.40    1.82 
  12  -3   4   21.81    1.78 
 -12   3  -4   18.50    1.78 
 -13  -3  -4    2.62    0.56 
  13  -3   4    1.48    0.53 
 -13   3  -4    1.94    0.50 
 -14  -3  -4    1.35    0.53 
  14  -3   4   -0.27    0.52 
 -14   3  -4   -0.54    0.43 
 -15  -3  -4    8.53    1.13 
  15  -3   4    5.59    1.03 
 -15   3  -4    8.53    1.02 
  16  -3   4    5.43    0.96 
  16  -3   4    6.91    1.00 
 -16  -3  -4    7.02    1.25 
 -16   3  -4    6.47    0.99 
  17  -3   4   -1.38    0.74 
  17  -3   4   -0.42    0.74 
 -17  -3  -4    0.76    0.72 
 -17   3  -4    1.18    0.52 
  18  -3   4    0.39    0.87 
 -18  -3  -4    0.48    0.79 
  18  -3   4   -0.65    0.78 
 -18   3  -4    0.66    0.60 
  16  -4  -4    0.38    0.71 
 -16   4   4    0.70    0.71 
 -16   4   4    0.69    0.71 
  15  -4  -4    0.57    0.62 
 -15   4   4    1.57    0.64 
 -15   4   4    1.81    0.66 
  14  -4  -4    0.04    0.51 
 -14   4   4    0.80    0.56 
 -14   4   4    0.45    0.58 
 -13   4   4    4.24    0.64 
 -13   4   4    4.56    0.72 
  12  -4  -4    3.32    0.62 
 -12   4   4    4.64    0.75 
 -12   4   4    4.48    0.79 
  11  -4  -4    7.29    0.92 
 -11   4   4    7.86    0.94 
 -11   4   4    8.24    0.92 
  10  -4  -4    7.95    0.96 
 -10   4   4   11.26    1.10 
 -10   4   4    8.56    0.98 
 -10   4   4    8.53    0.96 
   9  -4  -4   -0.22    0.33 
  -9   4   4   -0.32    0.38 
  -9   4   4    0.04    0.35 
  -9   4   4    0.29    0.45 
   8  -4  -4    1.31    0.37 
  -8   4   4    1.08    0.37 
  -8   4   4    1.44    0.38 
  -8   4   4    0.66    0.40 
   7  -4  -4    0.01    0.29 
  -7   4   4    0.11    0.36 
  -7   4   4    0.43    0.48 
  -7   4   4   -0.09    0.31 
   6  -4  -4   42.51    3.61 
  -6   4   4   43.07    3.66 
  -6   4   4   43.63    3.60 
  -6   4   4   43.69    3.62 
   5  -4  -4    0.05    0.23 
  -5   4   4    0.05    0.30 
  -5   4   4   -0.11    0.25 
  -5   4   4   -0.02    0.28 
  -4   4   4   20.57    1.74 
  -4   4   4   18.05    1.69 
  -3   4   4    5.37    0.68 
  -3   4   4    6.66    0.72 
  -2  -4   4    0.39    0.24 
  -2   4   4   -0.18    0.24 
  -2   4   4    0.24    0.25 
  -1  -4   4    4.82    0.52 
  -1   4   4    4.11    0.53 
  -1   4   4    3.52    0.53 
   0  -4  -4    0.03    0.22 
   0  -4   4    0.56    0.25 
   0   4   4    0.07    0.21 
   0   4   4   -0.06    0.23 
   1  -4   4    2.69    0.43 
  -1  -4  -4    1.58    0.37 
   1   4   4    2.00    0.37 
   1   4   4    1.97    0.32 
   2  -4   4   12.58    1.11 
  -2  -4  -4   12.13    1.15 
   2   4   4   11.20    1.08 
   2   4   4   12.41    1.09 
  -3  -4  -4    5.48    0.72 
   3  -4   4    6.04    0.67 
   3   4   4    6.08    0.62 
   3   4   4    5.47    0.61 
   4  -4   4   12.34    1.17 
   4  -4   4   13.68    1.21 
  -4  -4  -4   13.40    1.22 
   4   4   4   15.39    1.16 
  -4   4  -4   10.95    1.22 
  -4   4  -4   10.79    1.17 
   4   4   4   13.54    1.14 
  -5  -4  -4    4.34    0.62 
   5  -4   4    4.10    0.56 
   5  -4   4    4.77    0.59 
  -5   4  -4    2.85    0.54 
  -5   4  -4    3.74    0.70 
   6  -4   4   25.94    2.30 
   6  -4   4   26.42    2.33 
  -6  -4  -4   28.82    2.37 
  -7  -4  -4    1.22    0.44 
   7  -4   4    0.58    0.34 
   7  -4   4    0.88    0.41 
  -7   4  -4    0.58    0.31 
   8  -4   4   14.99    1.42 
  -8  -4  -4   16.61    1.50 
   8  -4   4   14.00    1.38 
   9  -4   4   32.36    2.84 
   9  -4   4   34.11    2.88 
  10  -4   4    0.31    0.40 
  10  -4   4    0.36    0.43 
 -10  -4  -4    1.16    0.55 
 -10   4  -4   -0.32    0.36 
  11  -4   4    9.94    1.15 
 -11  -4  -4   11.21    1.36 
  11  -4   4   10.87    1.17 
  12  -4   4    0.45    0.53 
 -12  -4  -4    1.24    0.70 
  12  -4   4    1.68    0.49 
 -12   4  -4    0.33    0.42 
  13  -4   4    0.10    0.54 
 -13  -4  -4   -0.79    0.74 
  13  -4   4   -0.26    0.53 
 -13   4  -4   -0.14    0.44 
  14  -4   4    0.38    0.76 
 -14  -4  -4    0.36    0.80 
  14  -4   4    0.53    0.62 
 -14   4  -4   -0.42    0.45 
  15  -4   4   -1.05    0.71 
 -15  -4  -4    1.04    0.82 
  15  -4   4    0.58    0.65 
 -15   4  -4    0.68    0.51 
  16  -4   4    1.13    0.79 
  16  -4   4   -1.03    0.92 
 -16  -4  -4    3.69    1.04 
 -16   4  -4    2.24    0.63 
 -13   5   4    4.71    0.93 
 -13   5   4    3.99    1.13 
 -13   5   4    3.57    0.88 
  12  -5  -4    0.05    0.51 
 -12   5   4   -1.02    0.81 
 -12   5   4    0.69    0.55 
 -12   5   4    1.19    0.65 
  11  -5  -4    3.44    0.67 
 -11   5   4    4.72    0.73 
 -11   5   4    4.86    0.79 
 -11   5   4    3.84    0.93 
  10  -5  -4    2.78    0.60 
 -10   5   4    4.99    0.71 
 -10   5   4    4.32    0.83 
 -10   5   4    4.24    0.69 
   9  -5  -4    3.11    0.58 
  -9   5   4    5.11    0.81 
  -9   5   4    4.84    0.83 
  -8   5   4   10.77    1.20 
  -8   5   4   11.73    1.20 
   7  -5  -4    2.35    0.50 
  -7   5   4    3.92    0.66 
  -7   5   4    2.64    0.62 
  -7   5   4    4.08    0.61 
  -6   5   4   16.07    1.55 
  -6   5   4   17.05    1.65 
  -5   5   4   23.79    2.16 
  -4  -5   4    5.52    0.78 
  -4   5   4    5.40    0.76 
  -4   5   4    5.31    1.07 
  -3  -5   4    6.81    0.86 
  -3   5   4    9.88    0.95 
  -3   5   4    9.42    0.98 
  -2  -5   4    3.49    0.61 
  -2   5   4    4.72    0.70 
  -2   5   4    5.45    0.68 
  -1  -5   4    6.64    0.84 
  -1   5   4    7.60    0.87 
  -1   5   4    8.64    0.86 
   0  -5   4    0.89    0.37 
   0   5   4    0.71    0.32 
   0   5   4    0.51    0.33 
   1  -5   4    1.98    0.45 
  -1  -5  -4    1.83    0.48 
   1   5   4    1.87    0.38 
   1   5   4    2.32    0.39 
   2  -5   4    0.74    0.41 
  -2  -5  -4    0.92    0.44 
   2   5   4    0.66    0.32 
  -3  -5  -4    5.43    0.84 
   3  -5   4    4.48    0.68 
   4  -5   4   10.18    1.28 
  -4  -5  -4   12.35    1.27 
   5  -5   4    0.84    0.57 
  -5  -5  -4    0.25    0.43 
   5  -5   4    0.32    0.33 
  -5   5  -4    0.94    0.49 
  -5   5  -4    0.44    0.29 
   6  -5   4    3.99    0.71 
   6  -5   4    6.03    0.88 
  -6  -5  -4    6.32    0.89 
  -6   5  -4    4.07    0.67 
  -6   5  -4    6.29    0.98 
   7  -5   4    1.53    0.47 
  -7  -5  -4    1.67    0.54 
   7  -5   4    3.05    0.64 
  -7   5  -4    1.44    0.42 
  -7   5  -4    2.70    0.64 
   8  -5   4   -0.01    0.43 
   8  -5   4    0.99    0.57 
  -8  -5  -4    0.82    0.58 
   9  -5   4    5.81    0.87 
   9  -5   4    6.79    1.02 
  -9   5  -4    4.58    0.78 
 -10  -5  -4   23.80    2.23 
  10  -5   4   18.88    1.95 
  10  -5   4   21.33    2.05 
  11  -5   4    6.31    1.09 
  11  -5   4    5.24    0.91 
 -11   5  -4    3.48    0.65 
  12  -5   4    4.92    0.89 
 -12  -5  -4    5.23    1.07 
  12  -5   4    4.07    0.81 
  13  -5   4   -0.64    0.75 
 -13  -5  -4    0.16    0.99 
  13  -5   4   -0.72    0.82 
  -9   6   4   10.63    1.43 
  -9   6   4   10.42    1.74 
  -8   6   4    3.39    0.91 
  -8   6   4    3.56    0.73 
  -7  -6   4    2.74    0.89 
  -7   6   4    2.15    0.63 
  -7   6   4    1.42    0.86 
  -6  -6   4    0.09    0.91 
  -6   6   4    0.25    0.53 
  -5   6   4    7.01    1.02 
  -5   6   4    5.20    0.89 
  -4   6   4    0.94    0.61 
  -4   6   4    1.33    0.66 
  -3  -6   4    1.75    0.58 
  -3   6   4    2.59    0.70 
  -3   6   4    3.10    0.56 
  -2  -6   4    3.97    0.69 
  -2   6   4    6.00    0.90 
  -2   6   4    6.52    0.85 
  -1  -6   4    1.88    0.55 
  -1   6   4    3.39    0.61 
   1  -6   4    2.42    0.59 
   2  -6   4    1.36    0.56 
   3  -6   4    0.36    0.58 
  -3  -6  -4    0.55    0.65 
  -4  -6  -4    1.69    0.70 
   4  -6   4    0.99    0.62 
   5  -6   4    0.91    0.66 
  -5  -6  -4   -0.01    0.67 
   6  -6   4    0.14    0.70 
  -6  -6  -4    0.06    0.70 
   7  -6   4    0.95    0.76 
   7  -6   4    0.23    0.46 
  -7  -6  -4    1.57    0.79 
   8  -6   4    2.54    0.91 
  -8  -6  -4    2.56    0.90 
  -8   6  -4    3.26    1.08 
   9  -6   4    0.56    0.62 
   9  -6   4    1.60    0.93 
  -9  -6  -4    1.05    0.86 
  -9   6  -4    1.45    0.48 
  -9   6  -4    1.91    1.01 
 -20   0   5   -0.82    0.85 
  20   0  -5   -0.48    0.74 
 -20   0   5   -0.88    0.86 
 -19   0   5   -0.94    0.70 
 -19   0   5    1.29    0.73 
  19   0  -5   -0.94    0.60 
 -18   0   5    1.07    0.67 
  18   0  -5   -0.62    0.54 
 -18   0   5   -0.26    0.62 
 -17   0   5   -0.61    0.52 
 -17   0   5   -0.12    0.57 
 -16   0   5    0.36    0.51 
  16   0  -5   -0.25    0.38 
 -16   0   5    0.01    0.38 
  15   0  -5   -0.35    0.31 
 -15   0   5    0.15    0.42 
 -15   0   5   -0.21    0.33 
 -14   0   5    0.07    0.38 
 -14   0   5    0.23    0.26 
  14   0  -5   -0.36    0.27 
  13   0  -5   -0.12    0.24 
 -13   0   5    0.25    0.26 
  12   0  -5   -0.16    0.23 
 -12   0   5    0.25    0.21 
 -11   0   5    0.82    0.24 
  11   0  -5    0.45    0.22 
  10   0  -5    0.64    0.24 
 -10   0   5    0.74    0.19 
 -10   0   5    0.77    0.21 
   9   0  -5   -0.02    0.17 
  -9   0   5    0.08    0.15 
  -9   0   5    0.17    0.19 
  -8   0   5   -0.17    0.16 
  -8   0   5   -0.03    0.14 
   8   0  -5   -0.09    0.16 
  -7   0   5   -0.13    0.15 
   7   0  -5   -0.01    0.15 
  -7   0   5    0.11    0.16 
   6   0  -5    0.04    0.15 
   5   0  -5   -0.04    0.13 
  -5   0   5   -0.11    0.15 
   4   0  -5   -0.11    0.12 
  -4   0   5   -0.02    0.15 
  -3   0   5   -0.01    0.14 
   3   0  -5    0.08    0.14 
  -2   0   5    0.06    0.11 
  -2   0   5   -0.09    0.12 
   1   0  -5    0.07    0.09 
  -1   0   5    0.03    0.11 
   0   0   5    0.38    0.10 
   0   0  -5    0.45    0.11 
   1   0   5    0.03    0.08 
  -1   0  -5   -0.03    0.08 
  -2   0  -5    0.25    0.11 
   2   0   5    0.03    0.09 
   3   0   5   -0.01    0.10 
  -3   0  -5   -0.03    0.12 
  -4   0  -5   -0.03    0.13 
   4   0   5   -0.06    0.11 
   5   0   5    0.03    0.11 
  -5   0  -5   -0.13    0.14 
   6   0   5    0.08    0.17 
   6   0   5    0.00    0.14 
  -6   0  -5   -0.23    0.16 
   7   0   5    0.11    0.17 
   7   0   5   -0.33    0.19 
  -7   0  -5   -0.08    0.20 
  -8   0  -5   -0.02    0.19 
   8   0   5   -0.19    0.21 
   8   0   5   -0.06    0.16 
  -9   0  -5   -0.17    0.19 
   9   0   5   -0.29    0.24 
   9   0   5    0.12    0.18 
 -10   0  -5    0.14    0.20 
  10   0   5    0.21    0.27 
  10   0   5    0.13    0.21 
  11   0   5   -0.20    0.22 
  11   0   5   -0.01    0.29 
 -11   0  -5    0.38    0.23 
 -12   0  -5    0.19    0.30 
  12   0   5   -0.53    0.31 
  12   0   5    0.11    0.37 
  13   0   5    0.29    0.42 
  13   0   5    0.80    0.38 
 -13   0  -5    0.58    0.29 
  14   0   5   -0.73    0.51 
 -14   0  -5    0.07    0.31 
  14   0   5    0.46    0.47 
  15   0   5    0.20    0.45 
  15   0   5   -0.28    0.51 
 -15   0  -5   -0.07    0.34 
  16   0   5    0.45    0.59 
 -16   0  -5   -0.19    0.41 
  16   0   5   -0.62    0.51 
  17   0   5    1.60    0.64 
 -17   0  -5    0.02    0.44 
  18   0   5   -0.85    0.79 
 -18   0  -5   -0.25    0.49 
  19   0   5   -0.62    0.96 
 -19   0  -5   -0.04    0.54 
  20   0   5   -1.61    1.05 
  20   0   5    0.12    0.92 
 -20   0  -5   -0.75    0.63 
 -20  -1   5    0.16    0.92 
 -20  -1   5   -0.66    0.79 
  20   1  -5   -0.17    0.67 
 -20   1   5    0.16    0.73 
 -20   1   5    0.53    0.86 
 -19  -1   5    0.15    0.81 
 -19  -1   5    0.71    0.69 
  19  -1  -5   -0.64    0.56 
 -19   1   5    0.02    0.76 
 -19   1   5    0.60    0.64 
  19   1  -5   -0.80    0.57 
 -18  -1   5    1.06    0.71 
 -18  -1   5    2.20    0.68 
  18  -1  -5    0.95    0.52 
 -18   1   5    2.04    0.66 
 -18   1   5    1.21    0.54 
  17  -1  -5    0.99    0.47 
 -17  -1   5    1.62    0.57 
 -17  -1   5    0.19    0.60 
 -17   1   5    0.75    0.43 
 -17   1   5    1.40    0.59 
  17   1  -5    0.55    0.54 
 -16  -1   5    0.50    0.47 
 -16  -1   5    0.23    0.51 
 -16   1   5    0.50    0.34 
 -16   1   5    0.45    0.48 
  16   1  -5   -0.61    0.42 
 -15  -1   5   24.53    2.08 
 -15  -1   5   22.46    2.09 
 -15   1   5   23.20    2.07 
  15   1  -5   22.64    2.11 
 -15   1   5   25.52    2.10 
  14  -1  -5    0.12    0.28 
 -14  -1   5    0.25    0.37 
 -14  -1   5    0.66    0.36 
 -14   1   5    0.55    0.26 
  14   1  -5   -0.53    0.32 
 -14   1   5    0.72    0.41 
 -13  -1   5   27.75    2.28 
 -13  -1   5   25.51    2.27 
  13  -1  -5   27.85    2.31 
  13   1  -5   27.18    2.32 
 -13   1   5   25.53    2.27 
 -12  -1   5    2.32    0.34 
  12  -1  -5    1.70    0.33 
 -12  -1   5    2.58    0.45 
 -12   1   5    1.70    0.46 
 -12   1   5    2.24    0.41 
  12   1  -5    1.79    0.36 
  11  -1  -5   27.90    2.30 
 -11  -1   5   22.10    2.26 
 -11  -1   5   30.06    2.29 
 -11   1   5   27.50    2.29 
 -11   1   5   28.20    2.29 
  10  -1  -5   17.61    1.51 
 -10  -1   5   17.70    1.50 
 -10   1   5   17.35    1.50 
 -10   1   5   17.22    1.51 
   9  -1  -5   -0.10    0.16 
  -9  -1   5    0.38    0.19 
  -9  -1   5    0.07    0.17 
  -9   1   5    0.16    0.17 
  -9   1   5    0.05    0.17 
   9   1  -5    0.08    0.20 
  -8  -1   5   37.67    3.26 
   8  -1  -5   43.27    3.27 
  -8   1   5   33.97    3.25 
  -8   1   5   42.67    3.26 
  -7  -1   5  115.29   10.64 
   7  -1  -5  137.87   10.65 
   7   1  -5  128.61   10.66 
  -7   1   5  130.00   10.64 
  -7   1   5  140.24   10.64 
  -6  -1   5   24.21    1.85 
   6  -1  -5   20.85    1.83 
  -6   1   5   21.16    1.82 
  -6   1   5   20.57    1.82 
   5  -1  -5  139.04   11.74 
  -5   1   5  143.24   11.74 
  -5   1   5  149.77   11.74 
  -4  -1   5   -0.04    0.14 
   4  -1  -5   -0.04    0.13 
  -4   1   5   -0.07    0.14 
   3  -1  -5    2.11    0.31 
  -3   1   5    2.54    0.31 
  -3   1   5    2.36    0.32 
   2  -1  -5    6.35    0.61 
  -2   1   5    6.06    0.59 
  -2   1   5    6.66    0.61 
   1  -1  -5   80.23    6.77 
  -1   1   5   85.99    6.78 
  -1   1   5   82.07    6.76 
   0  -1  -5   27.08    2.27 
   0   1   5   29.21    2.27 
   0   1   5   25.91    2.27 
   1  -1   5   20.59    1.83 
   1   1   5   23.65    1.84 
  -2  -1  -5  145.13   10.97 
   2  -1   5  133.79   10.97 
   2   1   5  142.84   10.96 
  -2   1  -5  116.58   10.96 
   3  -1   5    0.99    0.18 
  -3  -1  -5    0.98    0.18 
   3   1   5    0.81    0.15 
  -3   1  -5    1.05    0.18 
   4  -1   5   33.55    3.08 
  -4   1  -5   35.92    3.09 
   4   1   5   42.60    3.09 
  -5  -1  -5   38.41    3.06 
   5  -1   5   35.92    3.05 
   5  -1   5   34.13    3.04 
   5   1   5   38.70    3.05 
   6  -1   5    0.85    0.22 
  -6  -1  -5    0.12    0.17 
   6  -1   5    0.54    0.19 
   6   1   5    0.14    0.19 
   6   1   5    0.31    0.15 
  -6   1  -5    0.26    0.20 
   7  -1   5   10.50    1.01 
  -7  -1  -5   10.12    1.02 
   7  -1   5   11.52    1.03 
   7   1   5   12.70    1.03 
  -7   1  -5   11.79    1.04 
   7   1   5   11.75    1.01 
   8  -1   5    9.21    0.84 
  -8  -1  -5    8.55    0.86 
   8  -1   5    9.29    0.86 
   8   1   5    9.33    0.84 
  -8   1  -5    8.06    0.86 
   8   1   5   10.56    0.86 
  -9  -1  -5   22.40    2.08 
   9  -1   5   23.37    2.06 
   9  -1   5   25.34    2.08 
  -9   1  -5   25.03    2.10 
   9   1   5   26.22    2.07 
   9   1   5   23.91    2.05 
 -10  -1  -5   17.12    1.56 
  10  -1   5   17.52    1.54 
  10  -1   5   18.79    1.56 
 -10   1  -5   16.70    1.58 
  10   1   5   19.02    1.56 
  10   1   5   17.48    1.54 
  11  -1   5   35.68    2.89 
  11  -1   5   33.60    2.88 
 -11  -1  -5   32.64    2.90 
 -11   1  -5   33.05    2.91 
  11   1   5   35.15    2.87 
  11   1   5   35.26    2.88 
  12  -1   5    5.08    0.58 
  12  -1   5    4.66    0.60 
 -12  -1  -5    4.21    0.67 
  12   1   5    4.19    0.60 
 -12   1  -5    4.56    0.67 
  12   1   5    5.02    0.64 
 -13  -1  -5    0.33    0.32 
  13  -1   5   -0.02    0.36 
  13  -1   5   -0.45    0.37 
  13   1   5   -0.19    0.40 
 -13   1  -5   -0.18    0.28 
  13   1   5   -0.06    0.38 
  14  -1   5    4.05    0.67 
  14  -1   5    5.10    0.68 
 -14  -1  -5    4.64    0.74 
  14   1   5    3.84    0.67 
 -14   1  -5    4.98    0.73 
  14   1   5    3.82    0.65 
 -15  -1  -5   42.07    3.84 
  15  -1   5   41.44    3.80 
  15  -1   5   47.39    3.84 
  15   1   5   43.06    3.79 
 -15   1  -5   50.89    3.85 
 -16  -1  -5    7.94    1.03 
 -16   1  -5    7.28    1.04 
 -17  -1  -5    0.41    0.50 
  17  -1   5   -0.09    0.63 
  17   1   5    1.98    0.63 
 -17   1  -5    0.19    0.47 
  17   1   5    0.00    0.70 
  18  -1   5    0.55    0.79 
  18  -1   5    0.96    0.74 
  18   1   5    1.10    0.69 
 -19  -1  -5    1.60    0.68 
  19  -1   5    0.69    0.86 
  19  -1   5   -1.03    0.92 
 -19   1  -5    1.13    0.64 
  19   1   5    0.35    0.80 
  19   1   5    0.52    0.87 
 -19  -2   5    0.61    0.69 
  19  -2  -5    0.70    0.63 
 -19  -2   5    0.89    0.94 
  19   2  -5    1.59    0.77 
 -19   2   5    0.24    0.67 
 -19   2   5    2.50    0.78 
 -18  -2   5   -0.71    0.89 
 -18  -2   5    0.52    0.59 
  18  -2  -5   -0.10    0.55 
 -18   2   5    1.47    0.60 
 -18   2   5    0.38    0.59 
  17  -2  -5   -0.09    0.55 
 -17  -2   5    0.36    0.68 
 -17  -2   5    0.65    0.54 
 -17   2   5    0.11    0.49 
 -17   2   5    0.92    0.52 
  17   2  -5    0.84    0.57 
 -16  -2   5    2.26    0.68 
 -16  -2   5    2.25    0.59 
 -16   2   5    2.59    0.56 
  16   2  -5    3.38    0.66 
 -16   2   5    2.89    0.55 
 -15  -2   5    1.85    0.51 
 -15  -2   5    2.86    0.56 
 -15   2   5    2.35    0.49 
  15   2  -5    1.67    0.64 
 -15   2   5    3.05    0.49 
 -14  -2   5    2.04    0.52 
 -14  -2   5    3.10    0.54 
  14   2  -5    2.04    0.49 
 -14   2   5    2.60    0.46 
 -14   2   5    3.21    0.55 
  13  -2  -5    2.26    0.45 
 -13  -2   5    3.00    0.50 
 -13  -2   5    3.38    0.48 
 -13   2   5    3.65    0.52 
  13   2  -5    2.16    0.50 
 -13   2   5    2.89    0.45 
  12  -2  -5   30.21    2.47 
 -12  -2   5   29.44    2.42 
 -12  -2   5   31.48    2.46 
 -12   2   5   28.12    2.45 
  12   2  -5   24.86    2.49 
 -12   2   5   29.08    2.45 
 -11  -2   5    6.91    0.64 
  11  -2  -5    6.12    0.65 
  11   2  -5    4.50    0.69 
 -11   2   5    4.81    0.81 
 -10  -2   5    0.50    0.23 
  10  -2  -5    0.13    0.20 
 -10   2   5    0.37    0.21 
  10   2  -5    0.37    0.23 
 -10   2   5    0.32    0.22 
   9  -2  -5    5.76    0.58 
  -9  -2   5    5.89    0.62 
  -9   2   5    6.27    0.61 
   9   2  -5    4.61    0.63 
  -9   2   5    5.74    0.59 
  -8  -2   5   24.88    2.27 
   8  -2  -5   27.23    2.27 
  -8   2   5   27.54    2.27 
  -8   2   5   28.30    2.26 
   7  -2  -5    6.47    0.64 
  -7  -2   5    5.95    0.68 
  -7   2   5    7.08    0.66 
  -7   2   5    7.11    0.65 
   6  -2  -5   39.07    3.35 
  -6  -2   5   38.68    3.36 
  -6   2   5   42.88    3.35 
  -6   2   5   41.26    3.36 
   5  -2  -5    1.63    0.32 
  -5  -2   5    1.94    0.35 
  -5   2   5    2.46    0.31 
  -5   2   5    1.69    0.30 
  -4  -2   5    0.02    0.17 
   4  -2  -5    0.25    0.17 
  -4   2   5    0.41    0.16 
  -4   2   5    0.29    0.18 
  -4   2   5    0.05    0.16 
   3  -2  -5   20.91    1.81 
  -3   2   5   20.37    1.80 
  -3   2   5   23.26    1.84 
  -3   2   5   21.74    1.82 
   2  -2  -5    1.09    0.21 
  -2   2   5    1.07    0.23 
  -2   2   5    0.60    0.21 
  -2   2   5    0.71    0.18 
   1  -2  -5   86.87    6.96 
  -1   2   5   82.84    6.95 
   0  -2  -5    3.69    0.38 
   0  -2   5    2.75    0.34 
   0   2   5    3.57    0.38 
  -1  -2  -5   35.29    2.81 
   1  -2   5   33.67    2.79 
   1   2   5   32.63    2.80 
  -2  -2  -5    8.62    0.75 
  -2   2  -5    7.96    0.74 
   2   2   5    8.49    0.74 
  -3  -2  -5    9.09    0.83 
   3  -2   5   10.64    0.83 
  -3   2  -5    8.15    0.83 
   3   2   5    9.06    0.81 
  -4  -2  -5   25.31    2.23 
   4  -2   5   30.10    2.23 
   4  -2   5   28.50    2.23 
  -4   2  -5   24.02    2.24 
   4   2   5   25.25    2.21 
   5  -2   5    3.14    0.39 
  -5  -2  -5    2.97    0.41 
   5  -2   5    2.94    0.39 
  -5   2  -5    3.15    0.41 
   5   2   5    3.17    0.37 
  -6  -2  -5   10.49    0.90 
   6  -2   5    9.21    0.85 
   6  -2   5    9.57    0.87 
   6   2   5    9.91    0.85 
  -6   2  -5    7.92    0.87 
   7  -2   5   20.45    1.82 
  -7  -2  -5   21.52    1.85 
   7  -2   5   21.20    1.83 
   7   2   5   22.50    1.82 
   8  -2   5   28.95    2.49 
  -8  -2  -5   28.96    2.52 
   8  -2   5   30.16    2.50 
  -8   2  -5   30.66    2.53 
   8   2   5   29.36    2.48 
   9  -2   5    1.07    0.28 
   9  -2   5    0.63    0.24 
  -9  -2  -5    0.15    0.27 
  -9   2  -5    0.27    0.24 
   9   2   5    0.18    0.23 
  10  -2   5    2.32    0.37 
  10  -2   5    2.70    0.39 
 -10  -2  -5    1.91    0.39 
 -10   2  -5    1.50    0.38 
  10   2   5    2.59    0.42 
  11  -2   5    8.45    0.98 
 -11  -2  -5    8.68    0.94 
  11   2   5    8.59    0.85 
  12  -2   5    0.32    0.33 
  12  -2   5    0.97    0.37 
 -12  -2  -5    0.27    0.41 
 -12   2  -5    0.38    0.33 
  12   2   5   -0.01    0.37 
 -13  -2  -5    4.56    0.85 
 -13   2  -5    7.09    0.82 
  13   2   5    6.77    0.78 
 -14  -2  -5   -0.01    0.44 
  14   2   5    0.01    0.43 
 -14   2  -5   -0.28    0.34 
 -15  -2  -5    0.04    0.44 
  15   2   5   -0.62    0.50 
 -15   2  -5    0.05    0.36 
 -16  -2  -5    8.08    1.20 
  16  -2   5    9.75    1.08 
 -16   2  -5    8.47    1.06 
 -17  -2  -5   -0.02    0.62 
  17  -2   5   -0.35    0.63 
  17  -2   5   -0.04    0.64 
  17   2   5    0.63    0.61 
 -17   2  -5    0.61    0.48 
  17   2   5   -0.01    0.62 
  18  -2   5    0.05    0.77 
 -18  -2  -5    2.09    0.75 
  18  -2   5   -0.11    0.73 
  18   2   5    0.99    0.66 
 -18   2  -5    2.02    0.55 
  18   2   5    0.21    0.74 
 -19  -2  -5   13.16    1.88 
 -19   2  -5   17.54    1.74 
  18  -3  -5   -0.86    0.62 
 -18  -3   5   -0.59    0.63 
 -18   3   5    0.85    0.68 
 -18   3   5    1.38    0.76 
  17  -3  -5   -0.48    0.57 
 -17  -3   5    0.19    0.57 
 -17   3   5    0.64    0.63 
 -17   3   5    0.31    0.60 
  16  -3  -5    1.75    0.60 
 -16  -3   5    0.73    0.53 
 -16   3   5    2.13    0.61 
 -16   3   5    1.63    0.57 
 -15  -3   5    0.24    0.44 
  15  -3  -5    0.73    0.49 
 -15   3   5    0.43    0.48 
 -15   3   5    1.01    0.52 
  14  -3  -5    2.20    0.56 
 -14   3   5    3.14    0.55 
 -14   3   5    2.06    0.53 
  13  -3  -5    4.33    0.70 
 -13   3   5    3.29    0.63 
 -13   3   5    3.47    0.57 
  12  -3  -5    0.58    0.36 
 -12   3   5    0.07    0.36 
 -12   3   5    0.30    0.31 
  11  -3  -5    1.62    0.41 
 -11   3   5    3.11    0.52 
 -11   3   5    2.07    0.43 
 -10  -3   5   16.29    1.46 
 -10   3   5   15.21    1.57 
 -10   3   5   17.92    1.48 
   9  -3  -5    9.06    0.90 
  -9   3   5    8.28    0.85 
  -9   3   5    8.82    0.87 
   8  -3  -5    7.68    0.79 
  -8   3   5    8.10    0.80 
  -8   3   5    8.60    0.82 
   7  -3  -5    2.09    0.36 
  -7   3   5    2.13    0.35 
  -7   3   5    3.11    0.48 
  -7   3   5    2.35    0.43 
   6  -3  -5    2.97    0.44 
  -6   3   5    3.82    0.46 
  -6   3   5    3.49    0.46 
  -6   3   5    2.83    0.48 
   5  -3  -5   31.81    2.87 
  -5   3   5   35.22    2.87 
  -5   3   5   36.18    2.92 
  -5   3   5   34.91    2.89 
   4  -3  -5   44.63    3.91 
  -4   3   5   48.56    3.96 
  -4   3   5   48.70    3.91 
  -4   3   5   47.83    3.93 
  -3   3   5    1.53    0.29 
  -3   3   5    1.56    0.30 
  -2   3   5   19.92    1.71 
  -2   3   5   20.08    1.73 
   1  -3  -5    2.16    0.34 
  -1   3   5    1.83    0.31 
  -1   3   5    1.91    0.31 
   0  -3   5    2.04    0.30 
   0  -3  -5    1.99    0.30 
   0   3   5    2.15    0.32 
   0   3   5    2.11    0.38 
  -1  -3  -5    3.15    0.37 
   1  -3   5    2.19    0.32 
   1   3   5    1.60    0.33 
   1   3   5    2.84    0.40 
  -2  -3  -5   14.06    1.19 
   2  -3   5   12.94    1.16 
   2   3   5   13.44    1.17 
   3  -3   5   -0.15    0.18 
  -3  -3  -5    0.15    0.16 
   3  -3   5   -0.01    0.20 
   3   3   5    0.20    0.15 
  -3   3  -5    0.06    0.18 
   3   3   5   -0.13    0.23 
   4  -3   5    0.52    0.22 
  -4  -3  -5    0.43    0.22 
   4  -3   5    0.46    0.25 
   4   3   5    0.52    0.17 
  -4   3  -5    0.31    0.22 
   5  -3   5   14.54    1.27 
  -5  -3  -5   13.67    1.29 
   5  -3   5   14.94    1.28 
  -5   3  -5   11.81    1.27 
   5   3   5   16.44    1.26 
  -6  -3  -5    5.38    0.68 
   6  -3   5    5.91    0.60 
   6  -3   5    5.13    0.62 
   6   3   5    5.92    0.59 
  -6   3  -5    4.60    0.61 
  -7  -3  -5    0.99    0.34 
   7  -3   5    1.24    0.31 
   7  -3   5    1.17    0.29 
   7   3   5    0.94    0.25 
  -7   3  -5    0.84    0.28 
  -8  -3  -5    1.12    0.41 
   8  -3   5    1.76    0.34 
   8  -3   5    2.00    0.37 
   8   3   5    1.56    0.30 
   9  -3   5    0.80    0.30 
  -9  -3  -5   -0.15    0.36 
   9   3   5    0.49    0.25 
  -9   3  -5    0.33    0.30 
 -10  -3  -5   23.05    2.08 
  10  -3   5   22.23    2.00 
  10  -3   5   21.85    1.99 
  10   3   5   23.72    1.94 
  11  -3   5   21.40    1.84 
 -11  -3  -5   21.82    1.92 
  11  -3   5   18.29    1.80 
  12  -3   5    4.31    0.72 
 -12  -3  -5    5.52    0.91 
 -12   3  -5    4.21    0.76 
  13  -3   5    6.85    0.83 
 -13  -3  -5    5.22    0.98 
 -13   3  -5    4.14    0.82 
  14  -3   5    0.23    0.54 
 -14  -3  -5   -0.39    0.56 
 -14   3  -5    0.05    0.43 
  15  -3   5    1.03    0.62 
 -15  -3  -5    0.89    0.60 
 -15   3  -5    0.48    0.50 
  16  -3   5    0.02    0.60 
 -16  -3  -5    0.47    0.65 
  16  -3   5   -0.57    0.58 
 -16   3  -5   -0.44    0.53 
 -17  -3  -5    0.56    0.79 
  17  -3   5    0.59    0.72 
  17  -3   5   -0.07    0.68 
 -17   3  -5    0.24    0.57 
  16  -4  -5    0.09    0.70 
 -16   4   5    0.98    0.72 
 -16   4   5    1.59    0.75 
  15  -4  -5   -0.28    0.58 
 -15   4   5    0.67    0.66 
 -15   4   5    0.57    0.63 
  14  -4  -5    0.00    0.51 
 -14   4   5    0.08    0.60 
 -14   4   5   -0.15    0.56 
  13  -4  -5    0.35    0.48 
 -13   4   5    0.32    0.45 
 -13   4   5    0.43    0.52 
  12  -4  -5    0.08    0.42 
 -12   4   5   -0.24    0.45 
 -12   4   5    0.23    0.44 
  11  -4  -5    0.68    0.42 
 -11   4   5    0.85    0.46 
 -11   4   5    1.49    0.43 
  10  -4  -5   -0.30    0.36 
 -10   4   5   -0.33    0.38 
 -10   4   5    0.14    0.37 
   9  -4  -5    1.13    0.43 
  -9   4   5    2.00    0.43 
  -9   4   5    0.68    0.41 
  -9   4   5    0.86    0.41 
   8  -4  -5    8.62    0.96 
  -8   4   5    9.50    1.00 
  -8   4   5   10.07    0.98 
  -8   4   5    9.59    1.04 
   7  -4  -5    6.65    0.77 
  -7   4   5    7.96    0.85 
  -7   4   5    6.18    0.80 
  -7   4   5    6.75    0.78 
   6  -4  -5   58.49    5.16 
  -6   4   5   66.44    5.16 
  -5   4   5   30.08    2.68 
  -5   4   5   31.41    2.73 
  -5   4   5   33.54    2.67 
  -4   4   5   34.01    2.82 
  -4   4   5   32.92    2.85 
  -4   4   5   34.19    2.88 
  -3   4   5    2.18    0.40 
  -3   4   5    2.18    0.39 
  -2   4   5    5.84    0.68 
  -2   4   5    5.44    0.67 
  -1  -4   5    0.32    0.23 
  -1   4   5    0.47    0.25 
  -1   4   5    0.94    0.30 
   0  -4   5    4.14    0.51 
   0  -4  -5    4.87    0.57 
   0   4   5    4.55    0.58 
   0   4   5    3.51    0.53 
  -1  -4  -5    1.01    0.32 
   1  -4   5    1.43    0.31 
   1   4   5    1.27    0.27 
   1   4   5    2.05    0.34 
   2  -4   5    4.58    0.57 
  -2  -4  -5    4.26    0.62 
   2   4   5    4.85    0.59 
   2   4   5    4.33    0.52 
   3  -4   5   31.53    2.78 
  -3  -4  -5   33.12    2.82 
   3  -4   5   31.82    2.77 
   3   4   5   32.68    2.76 
   3   4   5   35.73    2.77 
  -4  -4  -5    6.61    0.74 
   4  -4   5    5.77    0.72 
   4  -4   5    5.58    0.69 
  -4   4  -5    5.32    0.68 
  -4   4  -5    6.02    0.75 
   4   4   5    6.86    0.67 
   4   4   5    6.80    0.68 
  -5  -4  -5    3.80    0.58 
   5  -4   5    2.55    0.48 
   5  -4   5    3.21    0.54 
   5   4   5    3.37    0.49 
   5   4   5    3.79    0.51 
  -5   4  -5    2.27    0.42 
  -5   4  -5    3.11    0.53 
   6  -4   5    0.10    0.34 
   6  -4   5    0.32    0.32 
  -6  -4  -5    0.72    0.37 
  -6   4  -5    0.18    0.27 
   6   4   5    0.17    0.25 
   6   4   5    0.12    0.25 
   7  -4   5    3.26    0.48 
  -7   4  -5    2.26    0.44 
   8  -4   5    2.03    0.46 
  -8  -4  -5    1.58    0.54 
   8  -4   5    1.23    0.53 
  -8   4  -5    0.95    0.37 
   9  -4   5    2.04    0.56 
  -9  -4  -5    2.33    0.62 
   9  -4   5    3.32    0.55 
  -9   4  -5    1.79    0.42 
  10  -4   5    2.34    0.55 
  10  -4   5    1.98    0.60 
 -10  -4  -5    1.47    0.60 
  11  -4   5    0.72    0.54 
 -11  -4  -5    0.56    0.59 
  11  -4   5    0.00    0.53 
 -11   4  -5    0.11    0.39 
 -12  -4  -5   10.15    1.40 
  12  -4   5    9.57    1.06 
  12  -4   5    9.68    1.18 
 -12   4  -5    7.00    1.05 
 -13  -4  -5   -0.42    0.72 
  13  -4   5   -0.26    0.56 
  13  -4   5   -1.39    0.67 
 -13   4  -5   -0.20    0.45 
  14  -4   5    0.64    0.63 
  14  -4   5   -1.50    0.75 
 -14  -4  -5   -0.18    0.79 
 -14   4  -5    0.03    0.48 
  15  -4   5   -1.52    0.85 
 -15  -4  -5    0.21    0.87 
 -15   4  -5   -0.78    0.49 
  16  -4   5    0.06    0.90 
 -16  -4  -5    1.46    1.01 
  16  -4   5   -0.45    0.81 
 -16   4  -5    0.16    0.57 
  13  -5  -5    0.39    0.60 
 -13   5   5    2.09    0.83 
 -13   5   5    2.09    0.65 
 -13   5   5   -0.71    1.00 
  12  -5  -5    0.81    0.61 
 -12   5   5    2.37    0.68 
 -12   5   5    0.17    0.80 
  11  -5  -5   -0.28    0.50 
 -11   5   5    1.87    0.61 
 -11   5   5    1.28    0.71 
 -11   5   5    0.55    0.60 
  10  -5  -5    2.84    0.65 
 -10   5   5    4.34    0.71 
 -10   5   5    3.97    0.78 
 -10   5   5    4.51    0.72 
   9  -5  -5   -0.64    0.38 
  -9   5   5   -0.18    0.57 
  -9   5   5    0.08    0.50 
  -9   5   5   -0.16    0.46 
  -8   5   5    2.81    0.59 
  -8   5   5    2.96    0.57 
  -7   5   5    3.49    0.62 
  -7   5   5    3.97    0.68 
  -7   5   5    3.88    0.69 
  -6   5   5    3.41    0.57 
  -6   5   5    2.88    0.62 
  -5   5   5   17.29    1.54 
  -5   5   5   14.76    1.57 
  -4   5   5   18.43    1.74 
  -3  -5   5    1.63    0.37 
  -3   5   5    2.47    0.84 
  -2  -5   5    4.96    0.72 
  -2   5   5    6.97    0.79 
  -2   5   5    6.43    0.80 
  -1  -5   5    9.81    1.16 
  -1   5   5   12.93    1.20 
  -1   5   5   13.51    1.19 
   0  -5   5    0.04    0.34 
   0   5   5    0.06    0.33 
   0   5   5   -0.33    0.33 
   1  -5   5    1.79    0.44 
  -1  -5  -5    1.73    0.47 
   1   5   5    1.45    0.38 
   1   5   5    0.95    0.37 
  -2  -5  -5    1.05    0.43 
   2  -5   5    0.32    0.39 
   2   5   5    0.07    0.32 
   2   5   5    0.75    0.33 
  -3  -5  -5    6.41    0.90 
   3  -5   5    5.14    0.84 
   3   5   5    7.12    0.75 
   3   5   5    5.90    0.72 
  -4  -5  -5    0.48    0.44 
   4  -5   5   -0.25    0.51 
  -5  -5  -5   -0.03    0.45 
   5  -5   5   -0.87    0.43 
   5  -5   5   -0.72    0.48 
  -6  -5  -5    0.14    0.46 
   6  -5   5    0.59    0.48 
  -6   5  -5    0.28    0.31 
  -6   5  -5    1.29    0.55 
  -7  -5  -5    1.31    0.52 
   7  -5   5    1.24    0.61 
   7  -5   5    2.22    0.57 
  -7   5  -5    0.55    0.34 
  -7   5  -5    2.36    0.67 
  -8  -5  -5    0.92    0.57 
   8  -5   5    0.09    0.44 
   8  -5   5    0.62    0.58 
  -8   5  -5   -0.04    0.83 
  -8   5  -5    0.45    0.34 
   9  -5   5    3.22    0.74 
  -9  -5  -5    3.02    0.78 
  -9   5  -5    3.74    0.89 
  10  -5   5    5.53    0.99 
 -10   5  -5    6.26    0.91 
  11  -5   5    2.04    0.69 
  11  -5   5    3.48    0.91 
 -11  -5  -5    3.11    0.91 
 -11   5  -5    2.18    0.55 
  12  -5   5    0.40    0.75 
 -12  -5  -5    0.75    0.93 
  12  -5   5   -0.33    0.74 
 -12   5  -5   -0.10    0.49 
  13  -5   5   -0.78    0.80 
  13  -5   5    0.93    0.74 
 -13  -5  -5    0.50    1.00 
 -13   5  -5    0.17    0.55 
  -8   6   5    1.76    0.70 
  -8   6   5    1.86    0.83 
  -7   6   5    2.60    0.79 
  -7   6   5    3.17    0.74 
  -6   6   5    0.91    0.62 
  -5   6   5    2.63    0.64 
  -4  -6   5    0.16    0.47 
  -4   6   5    0.04    0.59 
  -4   6   5    0.04    0.54 
  -3  -6   5   11.08    1.18 
  -3   6   5   10.58    1.37 
  -2  -6   5    3.58    0.65 
  -2   6   5    5.13    0.89 
  -2   6   5    6.06    0.85 
  -1  -6   5   -0.02    0.47 
  -1   6   5    0.07    0.46 
  -1   6   5   -0.10    0.54 
   0  -6   5    0.25    0.66 
   0   6   5   -0.13    0.42 
   0   6   5    0.03    0.49 
   1  -6   5    0.27    0.52 
  -2  -6  -5    0.76    0.76 
   2  -6   5    0.16    0.55 
  -3  -6  -5    1.56    0.68 
   3  -6   5   -0.48    0.57 
   4  -6   5    0.35    0.65 
  -4  -6  -5    2.12    0.73 
  -5  -6  -5    0.57    0.73 
   5  -6   5   -0.16    0.70 
   6  -6   5   -0.23    0.47 
   6  -6   5   -0.45    0.75 
  -6  -6  -5    0.33    0.71 
   7  -6   5    0.65    0.56 
   7  -6   5    0.34    0.84 
  -7  -6  -5    1.74    0.82 
   8  -6   5   -0.87    0.90 
  -8  -6  -5   -0.38    0.80 
   8  -6   5   -0.09    0.59 
  -8   6  -5    0.22    0.43 
  -8   6  -5    0.75    1.16 
 -20   0   6    1.82    0.99 
 -20   0   6    0.83    0.86 
  20   0  -6   -0.13    0.77 
 -19   0   6    3.43    0.89 
  19   0  -6    3.50    0.84 
  18   0  -6   -0.32    0.52 
 -18   0   6   -0.07    0.64 
 -18   0   6    1.41    0.71 
 -17   0   6    1.14    0.63 
 -17   0   6    0.25    0.58 
 -16   0   6    0.62    0.41 
 -16   0   6    0.20    0.51 
  16   0  -6    0.52    0.62 
 -15   0   6    0.64    0.34 
 -15   0   6    0.57    0.50 
  15   0  -6   -0.36    0.36 
  14   0  -6   26.42    2.32 
 -14   0   6   25.81    2.28 
 -14   0   6   27.22    2.32 
 -13   0   6   77.00    6.28 
  13   0  -6   75.48    6.33 
  12   0  -6   18.45    1.55 
 -12   0   6   15.21    1.52 
 -12   0   6   18.62    1.52 
 -11   0   6    4.45    0.55 
 -11   0   6    5.35    0.52 
  11   0  -6    4.25    0.55 
  10   0  -6   21.30    1.74 
 -10   0   6   17.83    1.71 
 -10   0   6   21.21    1.71 
  -9   0   6    1.51    0.26 
   9   0  -6    1.65    0.30 
  -9   0   6    1.46    0.27 
   8   0  -6    0.87    0.21 
  -8   0   6    0.54    0.22 
  -8   0   6    0.79    0.21 
   7   0  -6   23.57    2.02 
  -7   0   6   23.95    2.01 
   6   0  -6    2.52    0.40 
  -6   0   6    3.61    0.42 
   5   0  -6   31.57    2.75 
  -5   0   6   34.46    2.76 
  -4   0   6   28.13    2.18 
   4   0  -6   23.66    2.17 
  -3   0   6    9.98    0.88 
  -2   0   6    2.86    0.33 
  -2   0   6    2.64    0.33 
   1   0  -6   48.29    3.90 
  -1   0   6   46.80    3.91 
   0   0  -6  134.30   10.88 
   0   0   6  132.99   10.88 
  -1   0  -6    2.28    0.26 
   1   0   6    2.31    0.27 
   2   0   6   65.27    5.28 
  -2   0  -6   63.90    5.28 
   3   0   6    1.50    0.24 
  -3   0  -6    1.60    0.27 
   5   0   6    2.22    0.31 
   6   0   6  374.21   28.41 
  -6   0  -6  324.13   28.41 
   7   0   6   68.94    5.39 
   7   0   6   59.24    5.39 
  -7   0  -6   68.79    5.42 
   8   0   6   55.09    4.66 
  -8   0  -6   57.90    4.68 
   9   0   6    4.99    0.55 
   9   0   6    4.40    0.51 
  -9   0  -6    5.07    0.60 
 -10   0  -6   21.72    1.84 
  10   0   6   20.09    1.81 
 -11   0  -6    7.75    0.80 
  11   0   6    7.43    0.79 
  11   0   6    6.77    0.73 
  12   0   6    0.88    0.36 
  12   0   6    0.85    0.29 
 -12   0  -6    0.27    0.29 
  13   0   6   27.49    2.76 
 -13   0  -6   37.38    2.82 
  13   0   6   33.24    2.80 
  14   0   6   11.88    1.28 
  14   0   6   14.87    1.25 
 -14   0  -6   11.53    1.26 
 -15   0  -6   -0.21    0.37 
  15   0   6   -0.04    0.53 
  15   0   6    0.74    0.47 
  16   0   6    2.90    0.73 
  16   0   6    2.30    0.63 
 -16   0  -6    3.07    0.54 
 -17   0  -6   21.16    2.00 
  18   0   6    3.70    0.95 
 -18   0  -6    6.42    1.02 
  19   0   6   -1.00    1.00 
 -19   0  -6    0.27    0.59 
  19   0   6    1.41    0.85 
 -20  -1   6    0.49    1.08 
  20  -1  -6   -0.59    0.80 
 -20  -1   6    0.31    0.83 
  20   1  -6    0.74    0.78 
 -20   1   6    0.20    0.81 
 -20   1   6    0.68    0.96 
 -19  -1   6    1.13    0.78 
  19  -1  -6    0.12    0.69 
 -19  -1   6    0.01    0.87 
  19   1  -6    0.63    0.65 
 -19   1   6    0.79    0.80 
 -19   1   6    1.37    0.66 
 -18  -1   6    1.53    0.68 
 -18  -1   6   -0.09    0.74 
  18  -1  -6    0.79    0.55 
  18   1  -6    1.87    0.64 
 -18   1   6    0.73    0.55 
 -18   1   6    1.06    0.68 
 -17  -1   6    0.73    0.64 
  17  -1  -6   -0.38    0.43 
 -17  -1   6    0.10    0.58 
 -17   1   6    0.46    0.69 
 -17   1   6   -0.19    0.41 
 -16  -1   6   15.75    1.44 
 -16  -1   6   14.38    1.44 
 -16   1   6   12.39    1.42 
 -16   1   6   14.41    1.38 
  16   1  -6   15.56    1.52 
 -15  -1   6    1.18    0.46 
 -15  -1   6    1.51    0.45 
  15   1  -6    1.05    0.45 
 -15   1   6    1.32    0.33 
 -15   1   6    1.63    0.53 
 -14  -1   6    2.35    0.43 
 -14  -1   6    2.51    0.42 
 -14   1   6    1.69    0.48 
 -14   1   6    1.94    0.36 
 -13  -1   6    0.43    0.37 
 -13  -1   6    1.53    0.39 
  13  -1  -6    1.23    0.33 
 -13   1   6    1.74    0.33 
  13   1  -6    1.23    0.38 
 -13   1   6    0.69    0.41 
 -12  -1   6    8.98    1.01 
 -12  -1   6   13.25    1.05 
  12  -1  -6   12.62    1.06 
 -12   1   6    9.72    1.05 
  12   1  -6    9.37    1.08 
 -12   1   6   12.77    1.04 
  11  -1  -6   13.62    1.20 
 -11  -1   6   14.50    1.19 
  11   1  -6   12.78    1.24 
 -11   1   6   11.24    1.18 
 -11   1   6   13.80    1.19 
 -10  -1   6    0.58    0.22 
  10  -1  -6    0.70    0.23 
 -10  -1   6    0.58    0.26 
 -10   1   6    0.44    0.22 
 -10   1   6    0.52    0.23 
  10   1  -6    0.30    0.24 
  -9  -1   6   -0.01    0.23 
  -9  -1   6   -0.09    0.19 
   9  -1  -6   -0.11    0.20 
  -9   1   6   -0.03    0.18 
   9   1  -6   -0.05    0.20 
  -9   1   6   -0.11    0.18 
   8  -1  -6    0.42    0.21 
  -8  -1   6    0.68    0.27 
   8   1  -6    0.55    0.24 
  -8   1   6    0.91    0.20 
  -8   1   6    0.74    0.20 
   7  -1  -6   18.81    1.45 
  -7  -1   6   14.28    1.44 
  -7   1   6   19.01    1.44 
   7   1  -6   16.29    1.45 
  -7   1   6   14.78    1.42 
  -6  -1   6   17.94    1.58 
   6  -1  -6   18.51    1.57 
  -6   1   6   18.71    1.56 
  -6   1   6   17.84    1.56 
  -5  -1   6    2.77    0.40 
   5  -1  -6    2.80    0.37 
  -5   1   6    2.91    0.37 
   4  -1  -6    3.95    0.46 
  -4  -1   6    3.99    0.48 
  -4   1   6    4.71    0.47 
  -4   1   6    4.61    0.48 
   3  -1  -6    6.49    0.63 
  -3   1   6    6.41    0.62 
  -3   1   6    6.75    0.63 
   2  -1  -6    4.20    0.45 
  -2   1   6    4.32    0.45 
  -2   1   6    4.24    0.46 
   1  -1  -6   20.47    1.73 
  -1   1   6   21.42    1.74 
  -1   1   6   19.99    1.72 
   0  -1  -6  240.25   19.03 
   0   1   6  227.44   19.03 
   1  -1   6   17.09    1.58 
   1   1   6   20.96    1.59 
  -2  -1  -6   53.22    4.18 
   2  -1   6   47.10    4.17 
   2   1   6   52.41    4.18 
   3  -1   6   21.81    1.94 
  -3  -1  -6   25.95    1.95 
  -3   1  -6   20.55    1.94 
   3   1   6   23.77    1.93 
   4  -1   6   19.14    1.73 
   4   1   6   23.06    1.73 
  -4   1  -6   19.26    1.74 
  -5  -1  -6   95.43    8.10 
   5  -1   6  102.86    8.09 
   5   1   6   98.44    8.09 
  -6  -1  -6   10.89    0.98 
   6  -1   6   10.77    0.96 
   6  -1   6   10.87    0.95 
   6   1   6   11.11    0.94 
  -6   1  -6    9.33    0.97 
  -7  -1  -6   58.17    4.81 
   7  -1   6   57.52    4.80 
   7  -1   6   58.91    4.80 
  -7   1  -6   51.87    4.81 
   7   1   6   59.94    4.80 
   7   1   6   62.88    4.79 
  -8  -1  -6   27.55    2.33 
   8  -1   6   26.00    2.30 
   8  -1   6   26.83    2.32 
  -8   1  -6   28.18    2.34 
   8   1   6   28.96    2.32 
   8   1   6   27.19    2.30 
   9  -1   6    2.79    0.41 
   9  -1   6    2.90    0.43 
  -9  -1  -6    2.99    0.45 
   9   1   6    3.02    0.43 
  -9   1  -6    3.11    0.49 
   9   1   6    2.77    0.44 
  10  -1   6    2.21    0.34 
 -10  -1  -6    1.04    0.29 
  10  -1   6    1.53    0.29 
  10   1   6    1.60    0.30 
  10   1   6    2.49    0.44 
 -10   1  -6    1.49    0.32 
 -11  -1  -6   11.58    1.21 
  11  -1   6   13.02    1.20 
  11  -1   6   12.42    1.21 
  11   1   6   14.59    1.24 
  11   1   6   12.69    1.19 
 -11   1  -6   15.23    1.27 
 -12  -1  -6    2.01    0.44 
  12  -1   6    1.63    0.51 
  12  -1   6    2.73    0.54 
  12   1   6    2.76    0.41 
  12   1   6    2.02    0.48 
 -12   1  -6    2.69    0.45 
  13  -1   6    1.42    0.38 
  13  -1   6    1.66    0.42 
 -13  -1  -6    1.16    0.38 
 -13   1  -6    1.15    0.35 
  13   1   6    0.96    0.42 
  13   1   6    1.27    0.48 
  14  -1   6    0.64    0.40 
 -14  -1  -6    0.19    0.36 
  14  -1   6   -0.01    0.42 
 -14   1  -6    0.18    0.37 
  14   1   6    0.07    0.42 
  14   1   6   -0.60    0.46 
 -15  -1  -6    2.75    0.56 
  15   1   6    2.62    0.75 
  15   1   6    1.76    0.63 
 -16  -1  -6    6.51    0.98 
  16   1   6    6.43    0.87 
  16   1   6    4.60    0.86 
 -16   1  -6    7.00    0.96 
 -17  -1  -6    2.14    0.62 
  17  -1   6    1.24    0.70 
  17  -1   6    2.03    0.70 
 -17   1  -6    2.37    0.56 
  17   1   6    0.78    0.71 
  17   1   6   -0.43    0.61 
  18  -1   6    1.38    0.75 
 -18  -1  -6    0.42    0.58 
  18  -1   6   -0.51    0.80 
  18   1   6    0.90    0.70 
 -18   1  -6    0.35    0.55 
  19  -1   6    1.80    0.95 
  19  -1   6    1.68    0.89 
  19   1   6    1.12    1.19 
  19   1   6    1.23    0.99 
 -19  -2   6    0.89    0.74 
 -19  -2   6    0.97    0.96 
  19  -2  -6    0.16    0.66 
  19   2  -6    0.43    0.69 
 -19   2   6    0.10    0.69 
 -19   2   6    1.42    0.79 
 -18  -2   6   -0.11    0.64 
 -18  -2   6   -0.33    0.82 
 -18   2   6   -0.19    0.64 
 -18   2   6   -0.25    0.57 
 -17  -2   6    0.17    0.77 
 -17  -2   6    0.39    0.56 
  17  -2  -6   -0.48    0.44 
  17   2  -6   -0.35    0.54 
 -17   2   6    0.36    0.49 
 -17   2   6   -0.25    0.56 
 -16  -2   6    0.69    0.54 
 -16  -2   6    0.83    0.63 
  16   2  -6    0.14    0.50 
 -16   2   6   -0.28    0.48 
 -16   2   6   -0.17    0.40 
 -15  -2   6    1.71    0.50 
 -15  -2   6    1.91    0.60 
 -15   2   6    3.07    0.52 
 -15   2   6    2.66    0.49 
  15   2  -6    1.86    0.55 
 -14  -2   6   15.08    1.23 
 -14   2   6   12.22    1.24 
  14   2  -6   11.23    1.30 
 -13  -2   6   15.08    1.40 
  13  -2  -6   15.55    1.47 
 -13  -2   6   17.71    1.50 
 -13   2   6   15.59    1.43 
 -13   2   6   15.49    1.44 
  12  -2  -6   43.72    3.65 
 -12  -2   6   46.59    3.64 
 -12   2   6   39.88    3.63 
 -12   2   6   43.59    3.64 
 -11  -2   6    0.46    0.29 
  11  -2  -6    0.43    0.25 
  11   2  -6    0.37    0.31 
 -11   2   6    0.60    0.28 
 -11   2   6    0.65    0.24 
 -10  -2   6   18.35    1.58 
  10  -2  -6   16.63    1.56 
 -10   2   6   18.01    1.54 
 -10   2   6   18.26    1.55 
   9  -2  -6    0.97    0.27 
  -9  -2   6    1.32    0.32 
  -9   2   6    1.26    0.26 
  -9   2   6    1.04    0.26 
   9   2  -6    0.72    0.27 
   8  -2  -6    1.27    0.29 
  -8  -2   6    1.68    0.34 
  -8   2   6    1.69    0.28 
  -8   2   6    1.61    0.29 
   7  -2  -6   12.15    1.05 
  -7  -2   6   10.55    1.09 
  -7   2   6   12.29    1.05 
  -7   2   6   11.37    1.03 
   6  -2  -6   18.36    1.53 
  -6  -2   6   15.41    1.56 
  -6   2   6   18.14    1.52 
  -6   2   6   18.99    1.53 
  -5  -2   6   -0.17    0.22 
   5  -2  -6    0.14    0.18 
  -5   2   6   -0.10    0.16 
  -5   2   6    0.05    0.18 
  -5   2   6   -0.15    0.16 
   4  -2  -6   25.68    2.19 
  -4   2   6   25.13    2.17 
  -4   2   6   27.73    2.21 
  -4   2   6   25.49    2.19 
   3  -2  -6    6.75    0.65 
  -3   2   6    5.99    0.63 
  -3   2   6    7.19    0.68 
  -3   2   6    6.67    0.67 
   2  -2  -6   62.84    5.18 
   2  -2  -6   70.93    5.18 
  -2   2   6   61.21    5.18 
  -2   2   6   56.51    5.14 
   1  -2  -6   -0.06    0.13 
  -1   2   6    0.09    0.15 
   0  -2  -6   19.27    1.62 
   0  -2   6   17.79    1.58 
   0   2   6   19.85    1.61 
   1  -2   6    6.93    0.70 
  -1  -2  -6    8.21    0.72 
   1   2   6    8.12    0.70 
  -2  -2  -6    1.04    0.20 
   2  -2   6    1.25    0.23 
   2   2   6    1.32    0.23 
  -2   2  -6    0.89    0.18 
  -3  -2  -6    2.50    0.35 
  -3   2  -6    2.49    0.36 
   3   2   6    2.98    0.33 
   4  -2   6   10.91    0.98 
   4   2   6   12.28    0.98 
  -4   2  -6    9.96    0.99 
   5  -2   6    7.51    0.77 
   5  -2   6    8.77    0.78 
  -5  -2  -6    8.97    0.80 
  -5   2  -6    7.51    0.80 
   5   2   6    8.66    0.76 
   6  -2   6    1.68    0.33 
  -6  -2  -6    2.21    0.34 
   6  -2   6    1.98    0.30 
  -6   2  -6    1.96    0.35 
   6   2   6    2.26    0.32 
   7  -2   6    1.31    0.27 
  -7  -2  -6    1.30    0.30 
   7  -2   6    1.24    0.25 
  -7   2  -6    1.28    0.31 
   7   2   6    0.92    0.22 
   8  -2   6    2.62    0.40 
  -8  -2  -6    2.55    0.43 
   8  -2   6    2.66    0.43 
   8   2   6    3.04    0.40 
  -8   2  -6    2.52    0.44 
   9  -2   6    3.11    0.44 
   9  -2   6    2.93    0.43 
  -9  -2  -6    2.49    0.45 
  -9   2  -6    2.28    0.42 
   9   2   6    2.81    0.42 
  10  -2   6   50.69    4.26 
  10  -2   6   51.76    4.25 
 -10  -2  -6   50.16    4.29 
  10   2   6   52.07    4.23 
  11  -2   6   10.75    1.02 
  11  -2   6   10.49    1.01 
  11   2   6    9.94    0.99 
  12  -2   6   45.62    3.74 
  12  -2   6   44.94    3.71 
 -12  -2  -6   41.83    3.73 
  12   2   6   43.10    3.67 
 -13  -2  -6    2.04    0.50 
 -13   2  -6    1.78    0.43 
  13   2   6    1.64    0.47 
 -14  -2  -6    3.97    0.67 
 -14   2  -6    3.95    0.74 
  14   2   6    3.69    0.69 
 -15  -2  -6    1.02    0.50 
 -15   2  -6    0.50    0.44 
  15   2   6    0.62    0.52 
  16  -2   6    0.83    0.58 
 -16  -2  -6    0.94    0.82 
 -16   2  -6    0.41    0.45 
  16   2   6   -0.23    0.62 
 -17  -2  -6    1.08    0.64 
  17  -2   6    1.12    0.62 
  17  -2   6    1.96    0.67 
  17   2   6    1.71    0.79 
  17   2   6    0.47    0.71 
 -17   2  -6    0.78    0.52 
  18  -2   6    0.77    0.80 
  18  -2   6    1.22    0.80 
  18   2   6    1.01    0.82 
  18   2   6    1.70    1.00 
 -18   2  -6    2.77    0.65 
 -18  -3   6    0.48    0.67 
  18  -3  -6    0.06    0.70 
 -18   3   6   -0.04    1.02 
 -18   3   6   -0.42    0.60 
  18   3  -6    0.24    0.70 
  17  -3  -6   -0.33    0.58 
 -17  -3   6    0.41    0.71 
 -17   3   6    1.10    0.67 
 -17   3   6   -0.61    0.58 
  17   3  -6    0.73    0.60 
 -16  -3   6    0.75    0.49 
  16  -3  -6   -0.51    0.50 
 -16   3   6    0.67    0.56 
 -16   3   6   -0.37    0.61 
  15  -3  -6   -0.77    0.46 
 -15   3   6    0.07    0.51 
  15   3  -6   -0.14    0.47 
 -15   3   6    0.38    0.51 
  14  -3  -6    9.44    1.09 
 -14   3   6    9.69    1.06 
 -14   3   6    9.07    1.09 
  13  -3  -6    3.34    0.60 
 -13   3   6    4.04    0.61 
 -13   3   6    4.52    0.69 
  12  -3  -6    0.19    0.35 
 -12   3   6   -0.29    0.36 
 -12   3   6    0.37    0.34 
  11  -3  -6    8.98    0.93 
 -11  -3   6    9.32    0.92 
 -11   3   6    8.71    0.90 
 -11   3   6    7.11    0.93 
  10  -3  -6   14.55    1.38 
 -10   3   6   13.58    1.28 
 -10   3   6   14.02    1.30 
   9  -3  -6    9.76    0.99 
  -9   3   6    9.78    0.98 
  -9   3   6   10.31    0.97 
   8  -3  -6    3.23    0.51 
  -8   3   6    3.31    0.53 
  -8   3   6    4.76    0.60 
   7  -3  -6    2.13    0.37 
  -7   3   6    1.51    0.34 
  -7   3   6    2.32    0.35 
  -7   3   6    2.21    0.37 
   6  -3  -6    5.57    0.64 
  -6   3   6    5.64    0.63 
  -6   3   6    5.92    0.64 
  -6   3   6    6.45    0.68 
   5  -3  -6    2.26    0.43 
  -5   3   6    3.00    0.47 
  -5   3   6    3.52    0.45 
  -5   3   6    3.00    0.43 
   4  -3  -6   25.70    2.17 
  -4   3   6   25.69    2.19 
  -4   3   6   24.84    2.17 
  -4   3   6   26.01    2.15 
  -3   3   6    1.97    0.35 
  -3   3   6    2.09    0.36 
  -2   3   6   12.18    1.13 
  -2   3   6   12.74    1.13 
   1  -3  -6   68.18    5.47 
  -1   3   6   67.65    5.45 
  -1   3   6   62.56    5.45 
   0  -3  -6    0.29    0.17 
   0  -3   6    0.08    0.17 
   0   3   6    0.22    0.17 
   0   3   6    0.04    0.25 
  -1  -3  -6   26.74    2.24 
   1  -3   6   23.39    2.20 
   1   3   6   25.10    2.22 
   1   3   6   30.90    2.25 
  -2  -3  -6    6.85    0.66 
   2  -3   6    6.02    0.63 
   2   3   6    6.77    0.63 
   3  -3   6    1.12    0.24 
  -3  -3  -6    1.40    0.26 
   3   3   6    1.41    0.24 
  -3   3  -6    0.96    0.22 
   4  -3   6   -0.30    0.19 
  -4  -3  -6    0.38    0.21 
   4  -3   6    0.01    0.23 
  -4   3  -6    0.18    0.21 
   4   3   6   -0.14    0.15 
   5  -3   6   12.68    1.12 
   5  -3   6   11.99    1.10 
  -5  -3  -6   12.45    1.14 
   5   3   6   13.16    1.09 
  -5   3  -6   10.95    1.13 
   6  -3   6    0.40    0.26 
  -6  -3  -6    0.53    0.27 
   6  -3   6    0.01    0.27 
  -6   3  -6   -0.14    0.24 
   6   3   6    0.01    0.20 
   7  -3   6    2.37    0.44 
  -7  -3  -6    2.39    0.45 
   7  -3   6    2.19    0.37 
  -7   3  -6    1.69    0.37 
   7   3   6    1.48    0.31 
   8  -3   6   -0.19    0.29 
  -8  -3  -6   -0.01    0.33 
   8  -3   6   -0.07    0.27 
   8   3   6    0.19    0.24 
  -8   3  -6   -0.37    0.27 
   9  -3   6   10.23    1.26 
  -9  -3  -6    9.53    1.18 
  -9   3  -6    7.95    1.03 
   9   3   6   11.91    0.96 
 -10  -3  -6    5.67    0.88 
  10  -3   6    5.76    0.71 
  10  -3   6    5.76    0.71 
  10   3   6    5.57    0.66 
  11  -3   6   48.36    4.28 
  11  -3   6   53.02    4.29 
 -11  -3  -6   50.58    4.35 
  11   3   6   52.70    4.25 
 -12  -3  -6    0.74    0.51 
  12  -3   6    0.31    0.45 
  12  -3   6   -0.46    0.40 
  12   3   6    0.30    0.43 
 -12   3  -6    0.17    0.40 
 -13  -3  -6    5.03    0.81 
  13  -3   6    6.43    0.79 
 -13   3  -6    4.02    0.71 
 -14  -3  -6    0.75    0.60 
  14  -3   6    1.48    0.57 
 -14   3  -6    0.29    0.50 
 -15  -3  -6    3.22    0.80 
 -15   3  -6    2.92    0.67 
  16  -3   6    1.27    0.66 
 -16  -3  -6    1.13    0.78 
  16  -3   6    1.14    0.70 
 -16   3  -6    1.93    0.65 
 -17  -3  -6   -0.88    0.77 
  17  -3   6   -0.68    0.71 
  17  -3   6   -0.27    0.80 
 -17   3  -6    0.03    0.66 
  16  -4  -6    1.18    0.75 
 -16   4   6    1.96    0.81 
 -16   4   6    2.72    0.81 
  15  -4  -6    0.66    0.64 
 -15   4   6    1.01    0.70 
 -15   4   6    0.71    0.69 
  14  -4  -6    0.90    0.57 
 -14   4   6    1.46    0.64 
 -14   4   6    1.05    0.50 
 -13   4   6    3.09    0.66 
 -13   4   6    3.02    0.69 
  12  -4  -6    2.47    0.61 
 -12   4   6    3.17    0.58 
 -12   4   6    3.15    0.62 
  11  -4  -6   -0.26    0.38 
 -11   4   6    0.95    0.44 
 -11   4   6    0.20    0.46 
  10  -4  -6    2.15    0.52 
 -10   4   6    3.71    0.56 
 -10   4   6    3.52    0.57 
  -9   4   6   -0.16    0.38 
  -9   4   6   -0.37    0.39 
   8  -4  -6    7.37    0.87 
  -8   4   6    8.58    0.90 
  -8   4   6    8.55    0.94 
  -8   4   6    6.97    0.90 
   7  -4  -6    0.01    0.33 
  -7   4   6    0.89    0.34 
  -7   4   6    0.49    0.35 
  -7   4   6    0.13    0.35 
   6  -4  -6    1.24    0.35 
  -6   4   6    1.73    0.40 
  -6   4   6    1.78    0.39 
  -6   4   6    0.97    0.35 
   5  -4  -6    6.72    0.76 
  -5   4   6    7.54    0.77 
  -5   4   6    6.35    0.91 
  -4   4   6    0.74    0.33 
  -4   4   6    0.36    0.33 
  -3   4   6    5.39    0.70 
  -3   4   6    5.37    0.68 
  -2   4   6    0.80    0.32 
  -2   4   6    1.27    0.36 
  -1  -4   6    0.51    0.23 
  -1   4   6    0.94    0.35 
  -1   4   6    0.39    0.28 
   0  -4   6    1.69    0.32 
   0   4   6    2.02    0.37 
   0   4   6    2.95    0.42 
   1  -4   6    4.60    0.59 
   1  -4   6    4.82    0.63 
  -1  -4  -6    4.99    0.67 
   1   4   6    5.01    0.59 
   1   4   6    5.85    0.65 
  -2  -4  -6    0.72    0.29 
   2  -4   6    0.93    0.30 
   2   4   6    0.68    0.27 
   2   4   6    1.42    0.33 
   3  -4   6    0.08    0.27 
  -3  -4  -6    0.13    0.28 
   3  -4   6   -0.45    0.31 
   3   4   6    0.21    0.22 
   3   4   6    0.39    0.28 
   4  -4   6   26.34    2.48 
   4  -4   6   28.91    2.49 
   4   4   6   29.92    2.46 
   4   4   6   31.11    2.47 
  -5  -4  -6    2.24    0.63 
   5  -4   6    3.30    0.52 
   5  -4   6    3.42    0.61 
   5   4   6    3.17    0.45 
   5   4   6    4.04    0.57 
  -5   4  -6    3.86    0.71 
  -6  -4  -6   10.36    1.06 
   6  -4   6    8.62    0.98 
   6  -4   6    9.44    1.02 
   6   4   6   11.59    0.96 
  -6   4  -6    7.76    0.98 
   6   4   6    9.59    0.96 
  -7  -4  -6    6.27    0.88 
   7  -4   6    4.49    0.76 
  -7   4  -6    4.08    0.71 
   7   4   6    6.20    0.69 
  -8  -4  -6    9.08    1.13 
   8  -4   6    7.21    0.91 
   8  -4   6    7.18    0.96 
   8   4   6    9.40    0.86 
   8   4   6    8.23    0.86 
   9  -4   6   -0.34    0.37 
  -9  -4  -6    0.17    0.55 
   9  -4   6   -0.40    0.42 
  -9   4  -6    0.33    0.32 
 -10  -4  -6    3.64    0.75 
  10  -4   6    3.97    0.65 
  10  -4   6    2.40    0.63 
 -10   4  -6    2.78    0.53 
  11  -4   6    1.42    0.56 
  11  -4   6   -0.08    0.57 
 -11  -4  -6    0.44    0.66 
 -11   4  -6   -0.38    0.37 
  12  -4   6    2.54    0.68 
 -12  -4  -6    1.99    0.74 
  12  -4   6    1.63    0.68 
 -12   4  -6    1.54    0.51 
  13  -4   6    6.14    1.02 
 -13  -4  -6    6.17    1.07 
 -13   4  -6    5.36    0.82 
  14  -4   6    1.70    0.78 
 -14  -4  -6    4.40    1.02 
  14  -4   6    2.59    0.77 
 -14   4  -6    3.76    0.71 
  15  -4   6    0.01    0.73 
  15  -4   6   -1.30    0.90 
 -15  -4  -6   -0.49    0.93 
 -15   4  -6   -0.46    0.55 
  13  -5  -6   -1.06    0.62 
 -13   5   6    0.22    0.75 
 -13   5   6    0.21    0.67 
 -13   5   6   -1.91    0.89 
  12  -5  -6   -0.37    0.54 
 -12   5   6   -0.32    0.77 
 -12   5   6   -0.21    0.62 
 -12   5   6    0.82    0.63 
  11  -5  -6    0.15    0.56 
 -11   5   6    0.68    0.61 
 -11   5   6    0.02    0.67 
 -11   5   6    0.29    0.59 
  10  -5  -6   -0.38    0.52 
 -10   5   6    0.35    0.64 
 -10   5   6    0.70    0.56 
 -10   5   6   -0.09    0.55 
   9  -5  -6    0.02    0.47 
  -9   5   6    0.69    0.56 
  -9   5   6    0.30    0.55 
  -9   5   6    0.41    0.49 
  -8   5   6    0.09    0.44 
  -8   5   6    0.85    0.52 
  -7   5   6    8.15    1.06 
  -6   5   6   10.58    1.27 
  -6   5   6   12.07    1.25 
  -5   5   6   46.29    4.05 
  -5   5   6   48.86    4.02 
  -4   5   6    4.54    0.79 
  -4   5   6    4.41    0.67 
  -3  -5   6    0.51    0.32 
  -3   5   6    0.69    0.40 
  -2   5   6    1.72    0.45 
  -1  -5   6    2.09    0.44 
  -1   5   6    1.44    0.46 
  -1   5   6    2.06    0.45 
   0  -5  -6    0.29    0.44 
   0  -5   6    1.18    0.39 
   0   5   6    0.70    0.38 
   0   5   6    0.37    0.36 
   1  -5   6    0.96    0.40 
  -1  -5  -6    0.25    0.39 
   1   5   6    0.66    0.36 
   1   5   6    0.45    0.36 
  -2  -5  -6    1.17    0.45 
   2  -5   6    1.58    0.45 
   2   5   6    1.20    0.37 
   2   5   6    0.95    0.36 
  -3  -5  -6    2.10    0.50 
   3  -5   6    2.99    0.53 
   3   5   6    1.96    0.40 
   4  -5   6    2.33    0.68 
  -4  -5  -6    0.84    0.46 
   4  -5   6    0.56    0.55 
   4   5   6    1.66    0.41 
   4   5   6    0.96    0.34 
   5  -5   6    0.80    0.46 
  -5  -5  -6    0.14    0.47 
   5  -5   6   -0.44    0.40 
  -6  -5  -6    2.88    0.67 
   6  -5   6    4.99    0.86 
   6  -5   6    2.34    0.63 
   7  -5   6    5.27    0.97 
   7  -5   6    5.91    1.06 
  -7  -5  -6    6.72    1.04 
  -7   5  -6    5.01    0.78 
  -7   5  -6    6.70    0.93 
   8  -5   6    0.49    0.63 
  -8  -5  -6    1.03    0.61 
   8  -5   6    0.24    0.66 
  -8   5  -6    0.38    0.36 
  -8   5  -6    0.24    0.73 
   9  -5   6    1.42    0.74 
   9  -5   6    1.54    0.67 
  -9  -5  -6    2.36    0.75 
  -9   5  -6    2.10    0.80 
  -9   5  -6    0.90    0.51 
  10  -5   6    0.46    0.72 
  10  -5   6    0.28    0.72 
 -10  -5  -6    1.09    0.86 
 -10   5  -6    0.85    0.44 
 -11  -5  -6    2.08    0.93 
  11  -5   6    1.11    0.93 
  11  -5   6    2.79    0.81 
 -11   5  -6    0.87    0.48 
  12  -5   6    2.16    0.85 
 -12  -5  -6    4.04    1.05 
 -12   5  -6    2.22    0.59 
  -8   6   6    1.92    0.85 
  -8   6   6    2.28    0.79 
  -7   6   6    1.04    0.69 
  -7   6   6    0.85    0.72 
  -6   6   6    1.10    0.65 
  -6   6   6   -0.13    0.66 
  -5   6   6    8.78    1.18 
  -4  -6   6   -0.67    0.43 
  -4   6   6    0.46    0.55 
  -3  -6   6    0.74    0.47 
  -3   6   6    1.92    0.58 
  -3   6   6    1.85    0.62 
  -2  -6   6    0.19    0.44 
  -2   6   6   -0.61    0.52 
  -2   6   6   -0.30    0.66 
  -1   6   6    3.39    0.63 
  -1   6   6    3.92    0.68 
   0  -6   6    0.66    0.56 
   0   6   6    1.29    0.86 
   0   6   6    0.69    0.47 
   1  -6   6   -0.33    0.59 
   1   6   6    1.12    0.54 
   1   6   6    0.02    0.43 
  -2  -6  -6   -0.85    0.66 
   2  -6   6    0.02    0.59 
   3  -6   6    1.03    0.64 
  -3  -6  -6    1.65    0.72 
   4  -6   6    0.24    0.65 
  -4  -6  -6    1.79    0.71 
   5  -6   6   -0.21    0.68 
  -5  -6  -6   -0.22    0.76 
   6  -6   6   10.19    1.44 
   7  -6   6   -0.76    0.52 
   7  -6   6   -0.43    0.80 
  -7  -6  -6    0.29    0.81 
 -20   0   7   -0.43    0.96 
  20   0  -7   -0.42    0.75 
 -20   0   7    0.33    1.04 
 -19   0   7   -0.15    0.84 
  19   0  -7   -0.19    0.62 
 -19   0   7   -0.50    0.83 
  18   0  -7    0.09    0.56 
 -18   0   7    0.35    0.70 
 -18   0   7    0.41    0.75 
 -17   0   7    0.67    0.56 
  17   0  -7   -0.04    0.50 
 -17   0   7    0.21    0.62 
 -16   0   7    0.17    0.37 
 -16   0   7    0.41    0.58 
  15   0  -7   -0.19    0.35 
 -15   0   7    0.38    0.34 
 -15   0   7    0.72    0.52 
 -14   0   7    1.31    0.37 
  14   0  -7    1.28    0.37 
 -14   0   7    1.54    0.68 
 -13   0   7   -0.46    0.39 
 -13   0   7    0.62    0.29 
  13   0  -7    0.06    0.29 
  12   0  -7    0.31    0.27 
 -12   0   7   -0.29    0.28 
  11   0  -7    0.20    0.22 
 -11   0   7    0.07    0.20 
 -11   0   7    0.01    0.25 
  10   0  -7   -0.10    0.20 
 -10   0   7   -0.14    0.19 
 -10   0   7    0.05    0.21 
  -9   0   7   -0.04    0.21 
   9   0  -7   -0.10    0.19 
  -9   0   7   -0.21    0.19 
  -8   0   7   -0.14    0.20 
   8   0  -7   -0.14    0.16 
   7   0  -7   -0.05    0.19 
  -7   0   7   -0.13    0.20 
   6   0  -7   -0.18    0.14 
  -6   0   7    0.00    0.17 
  -5   0   7    0.07    0.17 
   5   0  -7    0.08    0.16 
  -4   0   7   -0.01    0.17 
  -3   0   7    0.04    0.14 
  -3   0   7    0.09    0.12 
  -2   0   7   -0.02    0.12 
  -2   0   7    0.01    0.14 
  -1   0   7    0.05    0.12 
   1   0  -7    0.00    0.10 
   0   0  -7    1.14    0.22 
   0   0   7    1.27    0.21 
  -1   0  -7    0.15    0.10 
   1   0   7    0.09    0.10 
  -2   0  -7    0.02    0.11 
   2   0   7    0.04    0.10 
  -3   0  -7    0.14    0.13 
   3   0   7   -0.11    0.10 
  -4   0  -7   -0.14    0.14 
   4   0   7   -0.22    0.11 
  -5   0  -7   -0.05    0.15 
   5   0   7   -0.06    0.13 
  -6   0  -7   -0.12    0.18 
   6   0   7   -0.08    0.15 
  -7   0  -7   -0.04    0.18 
   7   0   7   -0.08    0.15 
   7   0   7   -0.11    0.17 
  -8   0  -7   -0.19    0.18 
   8   0   7   -0.02    0.20 
   8   0   7   -0.23    0.16 
  -9   0  -7   -0.42    0.21 
   9   0   7   -0.05    0.18 
  10   0   7    0.02    0.18 
  10   0   7   -0.10    0.29 
 -10   0  -7   -0.09    0.22 
  11   0   7    0.11    0.23 
 -11   0  -7   -0.05    0.49 
  11   0   7   -0.12    0.29 
 -12   0  -7   -0.31    0.29 
  12   0   7   -0.33    0.37 
  12   0   7   -0.27    0.25 
  13   0   7   -0.16    0.27 
 -13   0  -7    0.26    0.33 
 -14   0  -7    0.58    0.36 
  14   0   7    0.64    0.49 
  14   0   7   -0.18    0.39 
 -15   0  -7   -0.25    0.36 
  15   0   7   -0.03    0.46 
  15   0   7    1.00    0.58 
 -16   0  -7   -0.03    0.41 
 -17   0  -7    0.07    0.47 
  17   0   7   -1.01    0.84 
  18   0   7   -1.51    0.69 
  18   0   7   -0.11    0.83 
 -18   0  -7   -0.27    0.54 
 -19   0  -7   -0.42    0.60 
  19   0   7    0.54    0.94 
  19   0   7    1.39    0.86 
 -19  -1   7   -0.86    1.02 
 -19  -1   7    2.29    0.82 
  19  -1  -7   -0.18    0.68 
 -19   1   7    1.50    0.74 
  19   1  -7    0.09    0.71 
 -19   1   7    0.46    0.87 
 -18  -1   7    0.40    0.79 
  18  -1  -7   -1.05    0.54 
 -18  -1   7    0.49    0.76 
 -18   1   7   -0.23    0.58 
  18   1  -7    0.27    0.63 
 -18   1   7    0.84    0.74 
 -17  -1   7    1.19    0.68 
 -17  -1   7   -0.07    0.63 
  17  -1  -7   -0.57    0.45 
 -17   1   7   -0.06    0.43 
 -17   1   7    0.40    0.75 
 -16  -1   7   -0.08    0.55 
 -16  -1   7    0.37    0.60 
 -16   1   7    0.89    0.58 
  16   1  -7    0.05    0.46 
 -15  -1   7    3.92    0.70 
 -15  -1   7    4.65    0.73 
 -15   1   7    2.83    0.65 
  15   1  -7    3.19    0.61 
 -15   1   7    3.09    0.56 
 -14  -1   7    1.45    0.49 
 -14  -1   7    2.86    0.48 
 -14   1   7    1.27    0.52 
  14   1  -7    2.16    0.48 
 -14   1   7    2.44    0.41 
  13  -1  -7    8.51    1.00 
 -13  -1   7   10.63    0.98 
 -13   1   7    9.78    1.01 
  13   1  -7    9.54    1.03 
 -13   1   7    9.70    0.95 
  12  -1  -7   32.55    3.05 
 -12  -1   7   28.92    2.86 
 -12  -1   7   36.96    2.90 
  12   1  -7   36.94    2.94 
 -12   1   7   36.32    2.91 
 -12   1   7   34.19    2.89 
  11  -1  -7    1.09    0.32 
 -11  -1   7    1.23    0.30 
 -11  -1   7    1.59    0.33 
 -11   1   7    1.51    0.34 
  11   1  -7    1.66    0.36 
 -11   1   7    1.29    0.32 
 -10  -1   7    4.11    0.57 
  10  -1  -7    4.03    0.51 
 -10   1   7    4.15    0.48 
  10   1  -7    3.35    0.55 
 -10   1   7    3.90    0.50 
  -9  -1   7    8.42    0.82 
   9  -1  -7    8.43    0.79 
  -9   1   7    7.10    0.75 
  -9   1   7    7.77    0.76 
  -8  -1   7    0.21    0.26 
   8  -1  -7    0.57    0.20 
  -8   1   7    0.30    0.20 
   8   1  -7    0.39    0.20 
  -8   1   7    0.17    0.19 
   7  -1  -7   11.53    0.93 
  -7  -1   7    8.39    0.93 
  -7   1   7   10.89    0.92 
  -7   1   7   10.23    0.91 
   7   1  -7    8.53    0.92 
   6  -1  -7   50.52    4.25 
  -6   1   7   52.33    4.25 
   5  -1  -7    0.85    0.21 
  -5  -1   7    0.83    0.23 
  -4  -1   7    1.64    0.26 
   4  -1  -7    1.54    0.29 
  -4   1   7    1.33    0.25 
   3  -1  -7   25.27    2.12 
  -3   1   7   23.63    2.10 
  -3   1   7   26.35    2.12 
   2  -1  -7   33.94    2.75 
  -2   1   7   33.61    2.77 
  -2   1   7   31.78    2.74 
   1  -1  -7    2.31    0.29 
  -1  -1   7    1.59    0.25 
  -1   1   7    2.21    0.31 
  -1   1   7    2.45    0.29 
   0  -1  -7   18.84    1.59 
   1  -1   7   45.27    4.15 
   1   1   7   55.84    4.16 
   2  -1   7  105.93    9.36 
   2   1   7  123.71    9.37 
   3  -1   7   21.50    1.73 
  -3   1  -7   18.52    1.72 
   3   1   7   21.06    1.71 
   4  -1   7    0.21    0.15 
  -4  -1  -7    0.51    0.18 
  -4   1  -7    0.26    0.16 
   4   1   7    0.24    0.11 
  -5  -1  -7    0.79    0.22 
   5  -1   7    0.99    0.21 
   5   1   7    0.54    0.16 
  -5   1  -7    1.05    0.24 
  -6  -1  -7   38.31    3.01 
  -6   1  -7   31.73    3.00 
   6   1   7   37.48    2.98 
   7  -1   7    6.59    0.63 
  -7  -1  -7    6.69    0.68 
   7   1   7    7.03    0.64 
  -7   1  -7    5.18    0.66 
   7   1   7    6.38    0.62 
  -8  -1  -7   27.48    2.26 
   8  -1   7   21.74    2.21 
   8  -1   7   26.67    2.23 
   8   1   7   29.18    2.23 
   8   1   7   26.98    2.23 
  -9  -1  -7    0.33    0.22 
   9  -1   7   -0.18    0.18 
   9  -1   7   -0.12    0.22 
  -9   1  -7   -0.24    0.24 
   9   1   7   -0.30    0.24 
   9   1   7   -0.21    0.19 
 -10  -1  -7   11.57    1.16 
  10  -1   7   12.22    1.11 
  10  -1   7   12.22    1.13 
  10   1   7   11.67    1.11 
  10   1   7   13.03    1.15 
 -10   1  -7   13.25    1.19 
  11  -1   7   32.92    2.86 
  11  -1   7   32.81    2.86 
  11   1   7   38.37    2.88 
  11   1   7   31.71    2.84 
 -12  -1  -7    6.23    0.78 
  12  -1   7    6.87    0.72 
  12  -1   7    7.68    0.78 
 -12   1  -7    5.61    0.80 
  12   1   7    7.02    0.73 
  12   1   7    6.91    0.81 
  13  -1   7   -0.07    0.38 
 -13  -1  -7   -0.09    0.32 
  13  -1   7    0.24    0.35 
  13   1   7    0.11    0.39 
  13   1   7    0.23    0.47 
 -13   1  -7    0.03    0.34 
 -14  -1  -7    0.74    0.39 
  14  -1   7    1.34    0.41 
  14  -1   7    0.50    0.45 
  14   1   7    0.60    0.69 
  14   1   7    0.50    0.45 
 -14   1  -7    1.09    0.40 
 -15  -1  -7    0.78    0.42 
 -15   1  -7    0.86    0.44 
  15   1   7    0.88    0.50 
  15   1   7   -0.31    0.57 
  16  -1   7    1.45    0.64 
  16  -1   7    2.02    0.79 
 -16  -1  -7    2.26    0.60 
 -16   1  -7    2.12    0.55 
  16   1   7    2.49    0.57 
  16   1   7    1.05    0.69 
  17  -1   7   -0.13    0.72 
 -17  -1  -7    1.45    0.60 
 -17   1  -7    1.76    0.59 
  17   1   7    1.86    0.66 
  18  -1   7    0.10    0.85 
 -18  -1  -7   -0.05    0.63 
  18  -1   7   -0.94    0.70 
  18   1   7   -1.18    0.91 
 -18   1  -7    0.32    0.57 
  19  -1   7    3.74    0.95 
 -19  -1  -7    2.22    0.76 
  19  -1   7    0.82    1.00 
  19   1   7    0.26    1.04 
 -19   1  -7    2.86    0.72 
 -19  -2   7   -0.51    1.15 
  19  -2  -7    0.52    0.75 
 -19  -2   7    0.58    0.80 
 -19   2   7    1.50    0.93 
  19   2  -7    0.78    0.67 
  18  -2  -7   -0.10    0.63 
 -18  -2   7    0.54    0.88 
 -18  -2   7    1.14    0.71 
  18   2  -7   -0.33    0.62 
 -18   2   7    0.53    0.75 
 -18   2   7    0.18    0.55 
 -17  -2   7    1.31    0.64 
  17  -2  -7   -0.27    0.54 
 -17  -2   7    0.77    0.80 
 -17   2   7    0.35    0.61 
 -17   2   7   -0.40    0.47 
 -16  -2   7   -0.32    0.69 
  16  -2  -7   -0.27    0.54 
 -16  -2   7    0.65    0.51 
 -16   2   7    0.78    0.60 
  16   2  -7   -0.05    0.45 
 -16   2   7   -0.82    0.41 
 -15  -2   7    3.40    0.68 
 -15  -2   7    2.62    0.57 
  15   2  -7    2.76    0.59 
 -15   2   7    3.21    0.55 
 -15   2   7    3.94    0.69 
 -14  -2   7    0.28    0.42 
  14  -2  -7   -0.10    0.33 
 -14  -2   7    0.41    0.34 
 -14   2   7   -0.40    0.43 
 -14   2   7    0.60    0.33 
  13  -2  -7    1.54    0.42 
 -13  -2   7    1.74    0.43 
 -13   2   7    1.66    0.36 
  13   2  -7    1.09    0.40 
 -13   2   7    0.62    0.42 
 -12  -2   7    0.56    0.35 
  12  -2  -7   -0.09    0.29 
  12   2  -7    0.38    0.34 
 -12   2   7    0.28    0.26 
 -12   2   7   -0.18    0.28 
 -11  -2   7   42.87    3.76 
 -11   2   7   44.69    3.75 
 -11   2   7   47.38    3.76 
  10  -2  -7   40.89    3.29 
 -10  -2   7   35.24    3.28 
 -10   2   7   40.99    3.29 
  -9  -2   7    6.10    0.74 
   9  -2  -7    6.01    0.66 
  -9   2   7    6.75    0.65 
  -9   2   7    5.42    0.64 
   8  -2  -7   12.13    1.11 
  -8  -2   7   11.51    1.15 
  -8   2   7   12.14    1.09 
  -8   2   7   12.83    1.10 
  -7  -2   7    1.87    0.38 
   7  -2  -7    1.54    0.31 
  -7   2   7    1.56    0.28 
  -7   2   7    1.72    0.29 
   6  -2  -7   22.08    1.90 
  -6   2   7   22.05    1.89 
  -6   2   7   20.93    1.87 
  -6   2   7   23.77    1.92 
   5  -2  -7    1.67    0.29 
  -5  -2   7    1.22    0.35 
  -5   2   7    1.58    0.29 
  -5   2   7    1.95    0.30 
  -5   2   7    1.87    0.29 
   4  -2  -7  133.36   10.65 
  -4   2   7  125.76   10.63 
  -4   2   7  128.30   10.64 
  -4   2   7  133.68   10.67 
   3  -2  -7   25.13    1.93 
  -3   2   7   21.84    1.93 
  -3   2   7   20.72    1.89 
   2  -2  -7   10.76    0.99 
  -2   2   7   10.75    1.00 
  -2   2   7   11.08    0.96 
   1  -2  -7    1.82    0.31 
  -1   2   7    1.47    0.27 
   0  -2  -7    4.47    0.47 
   0  -2   7    3.54    0.43 
   0   2   7    4.54    0.46 
   0   2   7    4.87    0.46 
  -1  -2  -7    1.17    0.23 
   1  -2   7    1.95    0.29 
   1   2   7    1.35    0.26 
  -2  -2  -7  113.93    8.98 
   2  -2   7  104.87    8.97 
   2   2   7  110.68    8.98 
  -3  -2  -7   48.65    3.74 
   3  -2   7   45.09    3.73 
  -3   2  -7   38.85    3.71 
   3   2   7   48.04    3.73 
  -4  -2  -7   25.59    2.01 
   4  -2   7   21.76    1.99 
   4   2   7   25.48    1.99 
  -4   2  -7   21.79    2.00 
  -5  -2  -7    2.11    0.37 
   5  -2   7    1.95    0.32 
  -5   2  -7    1.68    0.30 
   5   2   7    1.90    0.30 
  -6  -2  -7    9.64    0.84 
   6  -2   7    8.01    0.81 
   6  -2   7    8.61    0.80 
   6   2   7    9.24    0.80 
  -6   2  -7    7.17    0.83 
   7  -2   7    4.26    0.52 
   7  -2   7    4.98    0.52 
  -7  -2  -7    4.74    0.58 
  -7   2  -7    4.31    0.59 
   7   2   7    4.50    0.51 
   8  -2   7    9.37    0.89 
   8  -2   7    9.02    0.90 
  -8  -2  -7   10.54    0.96 
  -8   2  -7    8.08    0.95 
   8   2   7   10.33    0.90 
   9  -2   7    4.42    0.51 
  -9  -2  -7    4.46    0.61 
   9  -2   7    4.21    0.53 
  -9   2  -7    3.48    0.55 
   9   2   7    4.30    0.52 
  10  -2   7    5.67    0.68 
  10  -2   7    5.08    0.74 
 -10   2  -7    4.35    0.70 
  10   2   7    5.31    0.61 
  11  -2   7    9.15    0.87 
 -11  -2  -7    7.25    0.97 
  11  -2   7    9.09    0.88 
  11   2   7    8.87    0.84 
 -11   2  -7    6.60    0.94 
 -12  -2  -7   48.27    3.86 
 -12   2  -7   39.11    3.84 
  12   2   7   48.30    3.78 
 -13  -2  -7    0.36    0.43 
 -13   2  -7    0.51    0.39 
  13   2   7    0.03    0.42 
 -14  -2  -7    1.89    0.52 
  14   2   7    1.07    0.50 
 -14   2  -7    1.43    0.49 
 -15  -2  -7   -0.49    0.48 
 -15   2  -7   -0.37    0.40 
  15   2   7    0.09    0.85 
  16  -2   7    0.75    0.72 
 -16  -2  -7    0.36    0.58 
  16  -2   7   -0.59    0.56 
  16   2   7   -0.74    0.62 
  16   2   7    0.34    0.63 
 -16   2  -7    0.53    0.52 
 -17  -2  -7    5.34    0.88 
  17  -2   7    3.12    0.78 
  17  -2   7    3.79    0.80 
 -17   2  -7    5.48    0.81 
  17   2   7    3.35    0.82 
  17   2   7    2.44    0.87 
  18  -2   7    2.91    0.84 
 -18  -2  -7    1.95    0.82 
  18  -2   7    1.04    0.84 
  18   2   7   -0.07    0.97 
 -18   2  -7    1.68    0.67 
  18   2   7    1.22    0.80 
 -17  -3   7    0.45    0.94 
  17  -3  -7    0.56    0.75 
 -17   3   7    0.18    0.63 
 -17   3   7   -0.24    0.68 
  16  -3  -7    0.31    0.59 
 -16   3   7    0.38    0.57 
 -16   3   7    0.66    0.60 
  15  -3  -7    0.17    0.52 
 -15   3   7    0.68    0.56 
 -15   3   7   -0.38    0.50 
  14  -3  -7    0.37    0.46 
 -14   3   7    0.01    0.46 
 -14   3   7    1.22    0.52 
  13  -3  -7    0.30    0.44 
 -13   3   7   -0.14    0.43 
 -13   3   7    0.14    0.46 
  12  -3  -7   12.44    1.17 
 -12  -3   7   11.50    1.09 
 -12   3   7   10.04    1.12 
 -12   3   7    9.78    1.11 
  11  -3  -7   11.23    1.09 
 -11   3   7    9.92    1.02 
 -11   3   7    9.90    1.07 
  10  -3  -7    6.12    0.78 
 -10   3   7    5.39    0.72 
 -10   3   7    5.30    0.67 
   9  -3  -7    1.64    0.45 
  -9   3   7    1.95    0.37 
  -9   3   7    1.89    0.42 
  -9   3   7    1.55    0.48 
   8  -3  -7   16.57    1.54 
  -8   3   7   17.99    1.54 
  -8   3   7   17.32    1.53 
   7  -3  -7    6.71    0.73 
  -7   3   7    6.75    0.80 
  -7   3   7    6.59    0.72 
  -7   3   7    6.33    0.74 
   6  -3  -7    2.53    0.39 
  -6   3   7    2.75    0.43 
  -6   3   7    2.23    0.38 
  -6   3   7    2.39    0.38 
   5  -3  -7   11.59    1.06 
  -5   3   7   11.30    1.03 
  -5   3   7   11.42    1.07 
  -5   3   7   10.80    1.04 
   4  -3  -7   32.38    2.60 
  -4   3   7   30.65    2.60 
  -4   3   7   29.83    2.57 
  -4   3   7   30.45    2.62 
  -3   3   7    4.48    0.54 
  -3   3   7    4.38    0.55 
  -2   3   7   -0.25    0.23 
  -2   3   7    0.08    0.18 
   1  -3  -7    1.26    0.26 
  -1   3   7    1.14    0.30 
  -1   3   7    1.42    0.27 
   0  -3   7    7.39    0.80 
   0  -3  -7    9.73    0.84 
   0   3   7    9.16    0.82 
  -1  -3  -7    0.14    0.16 
   1  -3   7   -0.29    0.18 
   1   3   7    0.04    0.16 
  -2  -3  -7    1.31    0.25 
   2   3   7    1.20    0.23 
  -3  -3  -7    0.62    0.21 
   3  -3   7    0.01    0.21 
   3   3   7    0.31    0.18 
  -4  -3  -7    0.89    0.24 
   4  -3   7    0.34    0.23 
   4  -3   7    0.37    0.26 
  -4   3  -7    0.71    0.24 
   4   3   7    0.26    0.18 
   5  -3   7    3.49    0.52 
  -5  -3  -7    4.50    0.57 
   5  -3   7    4.60    0.54 
   5   3   7    4.91    0.50 
  -5   3  -7    3.96    0.54 
   6  -3   7   12.36    1.15 
  -6  -3  -7   12.78    1.19 
   6  -3   7   11.71    1.14 
  -6   3  -7   11.33    1.16 
   6   3   7   14.09    1.14 
   7  -3   7    5.44    0.72 
  -7  -3  -7    7.86    0.81 
   7  -3   7    6.41    0.73 
   7   3   7    7.15    0.69 
  -7   3  -7    5.77    0.77 
   8  -3   7    2.20    0.42 
   8  -3   7    2.08    0.45 
  -8   3  -7    2.12    0.43 
   8   3   7    2.51    0.38 
  -9  -3  -7   10.73    1.11 
   9  -3   7    8.75    1.01 
   9  -3   7    8.53    0.98 
   9   3   7   10.82    0.95 
  10  -3   7   40.50    3.36 
  10  -3   7   37.83    3.35 
 -10  -3  -7   39.05    3.42 
  10   3   7   40.51    3.30 
 -11  -3  -7    1.50    0.55 
  11  -3   7    1.49    0.46 
  11  -3   7    1.95    0.47 
  11   3   7    1.85    0.36 
 -11   3  -7    0.89    0.42 
  12  -3   7    0.15    0.45 
  12  -3   7    0.82    0.44 
 -12  -3  -7    0.68    0.57 
 -12   3  -7    0.51    0.43 
  12   3   7    0.98    0.44 
  13  -3   7    0.59    0.60 
 -13  -3  -7    2.46    0.65 
  13  -3   7    2.30    0.56 
 -13   3  -7    1.99    0.50 
  13   3   7    2.53    0.55 
  14  -3   7   -1.26    0.63 
  14  -3   7    0.23    0.54 
 -14  -3  -7    0.94    0.65 
 -14   3  -7    0.09    0.46 
  14   3   7   -0.09    0.54 
  15  -3   7   -0.70    0.58 
  15  -3   7   -0.05    0.59 
 -15  -3  -7    0.15    0.70 
 -15   3  -7   -0.99    0.47 
  15   3   7    0.08    0.58 
 -16  -3  -7    2.96    0.89 
  16  -3   7    1.73    0.79 
  16  -3   7    3.79    0.75 
 -16   3  -7    3.39    0.75 
 -17  -3  -7    2.02    0.93 
  17  -3   7    0.74    0.86 
  17  -3   7    3.55    0.83 
 -17   3  -7    2.74    0.72 
  15  -4  -7    0.58    0.71 
 -15   4   7    0.63    0.76 
 -15   4   7    1.02    0.71 
  14  -4  -7    0.47    0.62 
 -14   4   7    0.08    0.61 
 -14   4   7    0.37    0.63 
  13  -4  -7   -0.34    0.51 
 -13   4   7   -0.36    0.57 
 -13   4   7    1.62    0.67 
 -13   4   7    0.24    0.46 
  12  -4  -7   -0.37    0.51 
 -12   4   7    0.54    0.44 
 -12   4   7    0.39    0.52 
  11  -4  -7    1.13    0.54 
 -11   4   7    1.34    0.47 
 -11   4   7    2.17    0.55 
  10  -4  -7   24.21    2.22 
 -10   4   7   23.29    2.20 
 -10   4   7   26.94    2.22 
   9  -4  -7    5.40    0.90 
  -9   4   7    6.57    0.86 
  -9   4   7    6.87    0.83 
   8  -4  -7   -0.48    0.34 
  -8   4   7    0.13    0.34 
  -8   4   7    0.42    0.37 
   7  -4  -7   20.64    1.82 
  -7   4   7   21.54    1.81 
  -7   4   7   19.73    1.83 
  -7   4   7   19.26    1.83 
   6  -4  -7   26.02    2.23 
  -6   4   7   23.25    2.24 
  -6   4   7   25.77    2.25 
  -6   4   7   27.50    2.22 
  -5   4   7   53.99    4.66 
  -5   4   7   57.38    4.65 
  -3   4   7    2.37    0.46 
  -3   4   7    3.01    0.47 
  -2   4   7    3.28    0.59 
  -2   4   7    2.85    0.53 
  -1  -4   7   -0.17    0.22 
   1  -4  -7    0.07    0.24 
  -1   4   7   -0.07    0.27 
  -1   4   7   -0.36    0.32 
   0  -4  -7   11.30    1.07 
   0   4   7    9.68    1.04 
   0   4   7   12.33    1.09 
  -1  -4  -7    1.29    0.34 
   1  -4   7    0.78    0.29 
   1   4   7    1.44    0.37 
   1   4   7    1.38    0.31 
   2  -4   7   -0.29    0.26 
   2  -4   7   -0.10    0.37 
  -2  -4  -7    0.01    0.24 
   2   4   7    0.14    0.32 
   2   4   7   -0.11    0.23 
   3  -4   7   10.79    1.18 
   3  -4   7   10.54    1.15 
  -3  -4  -7   12.89    1.20 
   3   4   7   12.74    1.14 
   3   4   7   14.37    1.19 
  -4  -4  -7    8.27    0.91 
   4  -4   7    6.66    0.90 
   4  -4   7    7.66    0.88 
   4   4   7    8.53    0.83 
   4   4   7    9.75    0.91 
   5  -4   7    3.64    0.57 
  -5  -4  -7    3.82    0.63 
   5  -4   7    2.88    0.52 
  -5   4  -7    2.69    0.52 
   5   4   7    3.82    0.62 
  -5   4  -7    3.16    0.53 
   5   4   7    2.88    0.54 
  -6  -4  -7    4.06    0.74 
   6  -4   7    3.52    0.65 
   6  -4   7    2.75    0.56 
  -6   4  -7    2.47    0.46 
   6   4   7    4.16    0.58 
   6   4   7    4.19    0.64 
  -7  -4  -7    0.04    0.49 
   7  -4   7    0.05    0.39 
   7  -4   7   -0.70    0.39 
   7   4   7    0.02    0.32 
  -7   4  -7   -0.04    0.31 
   7   4   7   -0.22    0.35 
   8  -4   7    0.68    0.49 
   8  -4   7    0.05    0.41 
  -8  -4  -7    1.13    0.54 
   8   4   7    0.71    0.34 
  -8   4  -7    0.47    0.34 
   8   4   7    0.40    0.37 
  -9  -4  -7    8.40    1.17 
   9  -4   7    6.91    1.06 
   9  -4   7    7.72    0.98 
   9   4   7    8.31    0.91 
  -9   4  -7    6.74    0.96 
   9   4   7    9.34    0.86 
  10  -4   7    2.25    0.63 
  10  -4   7    3.20    0.64 
 -10  -4  -7    3.25    0.76 
 -10   4  -7    1.81    0.49 
  11  -4   7    4.19    0.76 
  11  -4   7    2.69    0.72 
 -11  -4  -7    4.91    0.91 
 -11   4  -7    4.69    0.67 
 -12  -4  -7   17.05    1.73 
  12  -4   7   13.43    1.49 
  12  -4   7   13.37    1.51 
 -12   4  -7   11.54    1.42 
 -13  -4  -7    4.76    1.01 
  13  -4   7    3.22    0.91 
  13  -4   7    6.37    1.04 
 -13   4  -7    4.28    0.75 
  14  -4   7   -0.77    0.81 
  14  -4   7    2.47    0.76 
 -14  -4  -7    0.49    0.94 
 -14   4  -7    0.64    0.54 
  15  -4   7    6.56    1.09 
 -15  -4  -7    4.63    1.22 
 -15   4  -7    4.75    0.84 
  12  -5  -7   -0.71    0.60 
 -12   5   7    0.50    0.80 
 -12   5   7    0.51    0.65 
 -12   5   7    0.87    0.68 
  11  -5  -7    0.33    0.58 
 -11   5   7    0.23    0.73 
 -11   5   7    0.33    0.62 
 -11   5   7    1.53    0.65 
 -10   5   7    2.64    0.66 
 -10   5   7    2.44    0.69 
 -10   5   7    2.38    0.63 
   9  -5  -7   -0.80    0.49 
  -9   5   7    0.24    0.58 
  -9   5   7    0.49    0.54 
  -9   5   7    2.12    0.62 
   8  -5  -7    2.81    0.63 
  -8   5   7    3.96    0.73 
  -8   5   7    4.63    0.72 
  -8   5   7    4.03    0.64 
  -7   5   7   -0.33    0.59 
  -7   5   7   -0.22    0.50 
  -6   5   7    7.87    1.05 
  -5   5   7    6.33    0.79 
  -5   5   7    5.33    0.87 
  -4   5   7   12.21    1.19 
  -4   5   7    9.54    1.18 
  -3   5   7   -0.12    0.40 
  -3   5   7    0.83    0.45 
  -2  -5   7    0.38    0.36 
  -2   5   7    0.01    0.44 
  -2   5   7   -0.12    0.37 
  -1  -5   7   -0.08    0.36 
  -1   5   7    0.60    0.46 
  -1   5   7    0.47    0.42 
   0  -5   7    0.97    0.42 
   0  -5  -7    1.77    0.51 
   0   5   7    2.34    0.46 
   0   5   7    2.32    0.72 
   1  -5   7   -0.45    0.38 
  -1  -5  -7    0.35    0.37 
   1   5   7   -0.12    0.37 
   1   5   7    0.00    0.37 
  -2  -5  -7    1.46    0.45 
   2  -5   7    0.49    0.43 
   2   5   7    1.18    0.41 
   2   5   7    1.59    0.42 
   3  -5   7    2.16    0.55 
  -3  -5  -7    2.74    0.56 
   3   5   7    3.88    0.65 
   3   5   7    2.77    0.50 
  -4  -5  -7    1.81    0.54 
   4   5   7    2.73    0.46 
   4   5   7    2.29    0.46 
   5  -5   7    2.45    0.61 
   5  -5   7    1.49    0.62 
  -5  -5  -7    2.39    0.60 
   5   5   7    3.30    0.53 
   5   5   7    2.90    0.47 
   6  -5   7    8.68    1.34 
  -6  -5  -7   11.05    1.41 
   6   5   7   11.88    1.15 
   6   5   7   13.82    1.20 
   7  -5   7    1.20    0.65 
   7  -5   7    0.50    0.62 
  -7  -5  -7    0.50    0.54 
  -7   5  -7    0.08    0.32 
  -7   5  -7    1.70    0.67 
   8  -5   7    0.55    0.68 
  -8  -5  -7    2.60    0.71 
  -8   5  -7    3.48    0.86 
  -8   5  -7    1.80    0.44 
  -9  -5  -7    2.29    0.80 
   9  -5   7    0.49    0.71 
   9  -5   7    2.42    0.73 
  -9   5  -7    1.32    0.46 
 -10   5  -7   10.59    1.21 
  11  -5   7    1.78    1.01 
 -11  -5  -7    2.14    1.00 
  11  -5   7    2.21    0.93 
 -11   5  -7    1.38    0.55 
 -12  -5  -7    1.67    1.09 
  12  -5   7    0.06    0.94 
  12  -5   7   -0.36    0.90 
 -12   5  -7    0.95    0.55 
  -7   6   7    0.57    0.69 
  -7   6   7   -0.22    0.73 
  -6   6   7    0.48    0.68 
  -6   6   7   -0.25    0.68 
  -5   6   7    2.26    0.70 
  -5   6   7    2.14    0.71 
  -4   6   7    1.02    0.62 
  -2  -6   7    1.78    0.56 
  -2   6   7    2.77    0.63 
  -1  -6   7    1.71    0.57 
  -1   6   7    2.16    0.62 
   0  -6   7    0.52    0.63 
   0   6   7    0.15    0.56 
   0   6   7    1.44    0.63 
   1  -6   7   -0.29    0.60 
   1   6   7    0.84    0.74 
   1   6   7    0.41    0.48 
   2  -6   7    3.32    0.75 
  -2  -6  -7    4.26    0.90 
   2   6   7    6.14    0.89 
  -3  -6  -7    1.42    0.71 
   3  -6   7    0.52    0.65 
   3   6   7    1.00    0.58 
   4  -6   7    0.74    0.67 
  -4  -6  -7    0.86    0.72 
   5  -6   7    0.80    0.71 
   5  -6   7    0.08    0.82 
  -5  -6  -7   -0.04    0.78 
   6  -6   7    1.31    0.94 
  -6  -6  -7    1.23    0.85 
   6  -6   7    1.66    0.80 
   7  -6   7   -0.85    0.99 
   7  -6   7    0.11    0.83 
  -7  -6  -7    1.44    0.91 
 -19   0   8    0.33    0.92 
  19   0  -8   -0.05    0.69 
 -19   0   8   -0.63    0.89 
 -18   0   8    3.56    0.89 
 -18   0   8    3.54    0.78 
  17   0  -8   11.43    1.42 
 -17   0   8   10.38    1.29 
 -17   0   8   13.38    1.39 
 -16   0   8    2.49    0.52 
 -16   0   8    2.52    0.68 
 -15   0   8    1.09    0.39 
 -15   0   8    0.11    0.56 
  15   0  -8    0.42    0.41 
  14   0  -8   72.43    6.11 
 -14   0   8   73.77    6.06 
 -13   0   8    3.51    0.68 
 -13   0   8    4.42    0.57 
 -12   0   8   -0.34    0.39 
 -12   0   8   -0.04    0.25 
  12   0  -8   -0.34    0.33 
 -11   0   8    6.93    0.74 
  11   0  -8    6.81    0.75 
 -10   0   8   22.68    1.72 
  10   0  -8   18.51    1.71 
 -10   0   8   17.59    1.69 
  -9   0   8    2.30    0.37 
   9   0  -8    2.31    0.41 
  -9   0   8    2.24    0.42 
   8   0  -8   27.01    2.31 
  -8   0   8   27.18    2.30 
  -7   0   8   20.59    1.69 
   7   0  -8   18.38    1.68 
  -6   0   8   38.61    3.00 
   6   0  -8   32.92    2.99 
  -5   0   8    0.94    0.26 
  -4   0   8   61.08    5.88 
  -4   0   8   82.70    5.91 
  -3   0   8   14.26    1.33 
  -3   0   8   16.27    1.33 
  -2   0   8    6.52    0.68 
  -2   0   8    7.63    0.68 
   1   0  -8    1.66    0.25 
   0   0  -8    0.40    0.14 
   0   0   8    0.45    0.15 
  -1   0  -8    4.48    0.46 
   1   0   8    4.92    0.47 
  -2   0  -8   48.41    4.13 
   2   0   8   52.10    4.13 
   3   0   8    0.07    0.12 
  -3   0  -8    0.03    0.16 
   4   0   8   52.14    4.51 
  -4   0  -8   57.68    4.53 
   5   0   8    3.44    0.41 
  -5   0  -8    3.95    0.47 
   6   0   8    5.77    0.54 
  -6   0  -8    4.40    0.57 
  -7   0  -8   -0.05    0.18 
   7   0   8    0.02    0.16 
   8   0   8    8.17    0.74 
  -8   0  -8    7.88    0.79 
   8   0   8    6.87    0.73 
  -9   0  -8    8.77    0.84 
   9   0   8    7.71    0.77 
   9   0   8    7.60    0.78 
  10   0   8   42.89    3.74 
 -10   0  -8   46.92    3.78 
  11   0   8    3.80    0.49 
 -11   0  -8    4.07    0.60 
  11   0   8    3.67    0.57 
  12   0   8    2.17    0.46 
  12   0   8    1.78    0.32 
 -12   0  -8    1.52    0.43 
  13   0   8    2.29    0.38 
 -13   0  -8    1.18    0.43 
  13   0   8    1.63    0.48 
  14   0   8    1.98    0.55 
 -14   0  -8    2.03    0.49 
  14   0   8    1.82    0.48 
  15   0   8   14.51    1.45 
 -15   0  -8   13.36    1.45 
  15   0   8   13.97    1.45 
 -16   0  -8   13.53    1.48 
  17   0   8    8.14    1.39 
  17   0   8   12.08    1.27 
 -17   0  -8   12.86    1.41 
  18   0   8    8.24    1.33 
  19   0   8    3.71    1.11 
  19   0   8    2.20    0.91 
 -19  -1   8    3.95    1.02 
 -19  -1   8    1.95    1.02 
  19  -1  -8    3.13    0.76 
 -19   1   8    1.73    0.85 
 -19   1   8    3.09    1.02 
  19   1  -8    3.36    0.80 
 -18  -1   8    0.37    0.79 
  18  -1  -8   -0.83    0.53 
 -18  -1   8    2.03    0.91 
 -18   1   8    0.39    0.82 
 -18   1   8    0.30    0.51 
  18   1  -8   -0.01    0.60 
 -17  -1   8    0.10    0.73 
 -17  -1   8   -0.20    0.66 
 -17   1   8    0.47    0.43 
  17   1  -8   -0.28    0.57 
 -17   1   8   -0.05    0.72 
 -16  -1   8    3.74    0.72 
 -16  -1   8    5.09    0.90 
 -16   1   8    3.81    0.66 
 -16   1   8    3.89    0.78 
 -15  -1   8   -0.20    0.57 
 -15  -1   8    1.00    0.46 
 -15   1   8   -0.89    0.54 
  15   1  -8   -0.08    0.41 
 -15   1   8    0.13    0.33 
 -14  -1   8    0.30    0.42 
 -14  -1   8    0.34    0.47 
  14   1  -8   -0.23    0.37 
 -14   1   8    0.05    0.30 
 -14   1   8    0.09    0.50 
 -13  -1   8   24.47    1.98 
 -13  -1   8   19.67    1.96 
 -13   1   8   22.87    1.96 
  13   1  -8   22.26    2.05 
 -13   1   8   22.47    1.99 
  12  -1  -8    0.25    0.28 
 -12  -1   8   -0.08    0.38 
 -12   1   8    0.00    0.29 
  12   1  -8    0.18    0.29 
 -11  -1   8    2.29    0.40 
 -11  -1   8    2.86    0.47 
  11  -1  -8    2.89    0.47 
 -11   1   8    2.73    0.49 
 -11   1   8    2.25    0.41 
  11   1  -8    1.63    0.39 
  10  -1  -8    7.53    0.72 
 -10  -1   8    7.50    0.77 
  10   1  -8    4.90    0.71 
 -10   1   8    6.87    0.69 
 -10   1   8    5.82    0.68 
   9  -1  -8    0.78    0.25 
  -9  -1   8    0.89    0.32 
  -9   1   8    0.90    0.26 
  -9   1   8    0.42    0.25 
   9   1  -8    0.70    0.26 
   8  -1  -8    1.80    0.33 
  -8  -1   8    2.38    0.39 
  -8   1   8    1.92    0.33 
  -8   1   8    2.04    0.33 
   8   1  -8    1.71    0.33 
   7  -1  -8    2.52    0.38 
  -7  -1   8    2.37    0.44 
  -7   1   8    2.77    0.43 
   6  -1  -8    9.71    0.91 
  -6   1   8    9.89    0.91 
   5  -1  -8   21.40    1.75 
  -5   1   8   18.95    1.74 
  -5   1   8   20.41    1.73 
   4  -1  -8   14.73    1.26 
  -4   1   8   13.80    1.26 
  -4   1   8   14.04    1.24 
  -3  -1   8   12.59    1.23 
  -3   1   8   15.39    1.28 
  -3   1   8   15.43    1.26 
  -2  -1   8    2.18    0.30 
   2  -1  -8    2.67    0.34 
  -2   1   8    2.40    0.33 
  -2   1   8    2.09    0.36 
   1  -1  -8   79.12    7.24 
  -1   1   8   97.88    7.25 
   0  -1  -8   42.60    3.32 
   0  -1   8   37.61    3.30 
   1  -1   8    1.65    0.26 
  -1  -1  -8    2.30    0.28 
   1   1   8    2.01    0.27 
  -1   1  -8    1.30    0.24 
   2  -1   8    0.88    0.18 
  -2   1  -8    0.78    0.18 
   2   1   8    1.46    0.23 
   3  -1   8   40.15    3.16 
   3   1   8   39.16    3.15 
  -3   1  -8   34.97    3.15 
   4  -1   8  170.57   13.79 
   4   1   8  175.46   13.78 
  -4   1  -8  160.98   13.78 
   5  -1   8   49.57    4.23 
   5   1   8   56.63    4.23 
  -5   1  -8   47.16    4.23 
   6  -1   8   50.78    4.57 
  -6  -1  -8   63.88    4.61 
   6   1   8   60.01    4.58 
  -6   1  -8   47.43    4.59 
  -7  -1  -8    3.08    0.44 
   7  -1   8    2.00    0.38 
  -7   1  -8    2.50    0.40 
   7   1   8    2.84    0.36 
   8  -1   8    1.08    0.24 
   8  -1   8    0.89    0.24 
  -8  -1  -8    0.74    0.27 
   8   1   8    0.65    0.20 
  -8   1  -8    0.51    0.24 
   8   1   8    0.38    0.25 
   9  -1   8   -0.34    0.21 
  -9  -1  -8   -0.33    0.22 
   9  -1   8   -0.18    0.19 
   9   1   8    0.11    0.19 
  -9   1  -8   -0.34    0.22 
   9   1   8   -0.10    0.25 
  10  -1   8    2.11    0.33 
  10  -1   8    1.78    0.36 
  10   1   8    2.03    0.33 
 -10   1  -8    1.54    0.36 
  10   1   8    1.81    0.41 
 -11  -1  -8    7.50    0.76 
  11  -1   8    5.92    0.71 
  11   1   8    5.97    0.68 
  11   1   8    6.08    0.76 
 -11   1  -8    6.14    0.78 
 -12  -1  -8   -0.15    0.29 
  12  -1   8    0.19    0.24 
  12  -1   8   -0.11    0.32 
  12   1   8    0.20    0.28 
 -12   1  -8   -0.01    0.33 
  12   1   8    0.31    0.43 
 -13  -1  -8    2.59    0.53 
  13  -1   8    3.23    0.52 
  13  -1   8    3.38    0.50 
  13   1   8    3.63    0.61 
  13   1   8    3.40    0.56 
 -13   1  -8    3.04    0.55 
  14  -1   8   -0.63    0.50 
  14  -1   8   -0.11    0.58 
 -14  -1  -8   -0.21    0.42 
  14   1   8   -0.19    0.43 
 -14   1  -8   -0.06    0.39 
  14   1   8   -0.35    0.56 
 -15  -1  -8    6.35    0.89 
 -15   1  -8    4.72    0.90 
  15   1   8    5.87    0.95 
  15   1   8    5.35    0.79 
  16  -1   8    6.54    1.05 
  16  -1   8    7.43    0.93 
 -16  -1  -8    7.79    1.04 
 -16   1  -8    7.48    1.08 
  16   1   8    5.39    0.93 
 -17  -1  -8    0.66    0.55 
  17  -1   8    0.24    0.76 
  17  -1   8   -0.45    0.62 
 -17   1  -8   -0.48    0.50 
  18  -1   8    0.89    0.81 
 -18  -1  -8    3.04    0.76 
  18  -1   8   -0.09    0.77 
  18   1   8    1.55    0.90 
  18   1   8    0.99    0.94 
 -18  -2   8    1.09    0.99 
 -18  -2   8    1.06    0.75 
  18  -2  -8   -0.31    0.60 
 -18   2   8    0.09    0.80 
  18   2  -8    0.21    0.61 
 -18   2   8    0.15    0.61 
  17  -2  -8    1.58    0.64 
 -17  -2   8    2.34    0.93 
 -17  -2   8    2.64    0.75 
 -17   2   8    2.45    0.63 
 -17   2   8    4.30    0.80 
 -16  -2   8    6.33    0.99 
 -16  -2   8    6.29    1.19 
 -16   2   8    7.66    0.97 
  16   2  -8    7.29    1.10 
 -16   2   8    8.76    1.03 
 -15  -2   8    2.27    0.55 
 -15  -2   8    0.60    0.68 
  15   2  -8    0.97    0.51 
 -15   2   8    1.31    0.42 
 -15   2   8    0.06    0.54 
  14  -2  -8   -0.56    0.33 
 -14  -2   8   -0.44    0.45 
 -14  -2   8   -0.29    0.46 
 -14   2   8   -0.16    0.47 
 -14   2   8   -0.18    0.33 
  14   2  -8    0.23    0.41 
  13  -2  -8   -0.36    0.33 
 -13  -2   8    0.68    0.44 
 -13   2   8    0.21    0.31 
 -13   2   8    0.83    0.44 
  13   2  -8    0.52    0.41 
  12  -2  -8    1.38    0.37 
 -12  -2   8    2.47    0.47 
  12   2  -8    1.93    0.48 
 -12   2   8    1.79    0.38 
 -12   2   8    2.24    0.39 
 -11  -2   8    6.51    0.78 
  11  -2  -8    4.79    0.66 
 -11   2   8    4.95    0.63 
 -11   2   8    4.42    0.63 
  10  -2  -8   21.75    1.86 
 -10  -2   8   21.88    1.90 
 -10   2   8   20.13    1.83 
 -10   2   8   20.80    1.83 
   9  -2  -8    5.09    0.66 
  -9  -2   8    6.90    0.77 
  -9   2   8    4.92    0.60 
  -9   2   8    5.48    0.60 
  -8  -2   8   32.25    3.00 
   8  -2  -8   37.15    2.97 
  -8   2   8   36.77    2.95 
  -8   2   8   34.42    2.94 
   7  -2  -8   12.92    1.15 
  -7  -2   8   10.97    1.21 
  -7   2   8   11.83    1.12 
  -7   2   8   13.33    1.17 
  -7   2   8   13.54    1.14 
   6  -2  -8   11.33    1.06 
  -6  -2   8   11.13    1.11 
  -6   2   8   11.29    1.06 
  -6   2   8   12.12    1.06 
  -6   2   8   11.29    1.04 
   5  -2  -8   24.34    2.11 
  -5   2   8   26.13    2.13 
  -5   2   8   24.85    2.11 
  -5   2   8   23.86    2.09 
   4  -2  -8   26.56    2.13 
  -4   2   8   23.27    2.09 
  -4   2   8   24.81    2.12 
   3  -2  -8    2.33    0.41 
  -3   2   8    2.12    0.40 
  -3   2   8    2.37    0.37 
   2  -2  -8   21.09    1.77 
  -2   2   8   20.86    1.75 
  -2   2   8   19.73    1.77 
   1  -2  -8    3.27    0.39 
  -1   2   8    3.11    0.39 
  -1   2   8    2.81    0.41 
   0  -2  -8    6.35    0.65 
   0   2   8    6.81    0.66 
   0   2   8    7.17    0.64 
   1  -2   8   15.99    1.50 
  -1  -2  -8   17.92    1.52 
   1   2   8   17.66    1.51 
   1   2   8   18.85    1.49 
  -2  -2  -8  102.62    8.17 
   2  -2   8   93.08    8.15 
   2   2   8  103.35    8.16 
   3  -2   8    2.14    0.37 
  -3  -2  -8    2.61    0.37 
   3   2   8    2.11    0.30 
  -3   2  -8    2.04    0.35 
   4  -2   8   10.45    0.94 
  -4  -2  -8   10.94    0.95 
   4   2   8   10.52    0.91 
  -4   2  -8    8.73    0.93 
   5  -2   8    0.01    0.21 
  -5  -2  -8    0.12    0.19 
   5   2   8   -0.06    0.13 
  -5   2  -8   -0.05    0.18 
   6  -2   8   18.12    1.64 
  -6  -2  -8   20.98    1.67 
   6   2   8   20.49    1.63 
  -6   2  -8   16.09    1.65 
   7  -2   8    0.80    0.25 
  -7  -2  -8    0.57    0.26 
   7  -2   8    0.46    0.24 
  -7   2  -8    0.54    0.27 
   7   2   8    0.65    0.20 
  -8  -2  -8   49.64    3.74 
   8  -2   8   43.74    3.70 
   8  -2   8   41.81    3.70 
   8   2   8   49.85    3.70 
  -8   2  -8   36.91    3.72 
   9  -2   8    0.28    0.26 
   9  -2   8   -0.07    0.22 
  -9   2  -8   -0.08    0.26 
   9   2   8   -0.42    0.21 
  10  -2   8    2.45    0.48 
 -10  -2  -8    3.94    0.60 
  10  -2   8    3.17    0.50 
  10   2   8    2.90    0.48 
 -10   2  -8    2.87    0.59 
  11  -2   8   30.83    2.57 
 -11  -2  -8   31.14    2.62 
  11  -2   8   31.59    2.62 
 -11   2  -8   25.85    2.62 
  11   2   8   30.21    2.54 
 -12  -2  -8    0.52    0.42 
 -12   2  -8    1.17    0.43 
  12   2   8    1.28    0.32 
 -13  -2  -8    3.91    0.69 
 -13   2  -8    4.34    0.66 
 -14  -2  -8    0.03    0.49 
 -14   2  -8   -0.12    0.48 
  14   2   8    0.14    0.48 
 -15  -2  -8    2.50    0.66 
 -15   2  -8    2.53    0.60 
  15   2   8    1.87    0.60 
  16  -2   8    0.60    0.57 
 -16  -2  -8   -0.06    0.57 
  16  -2   8   -0.06    0.55 
  16   2   8   -0.09    0.69 
  16   2   8    0.83    0.62 
  17  -2   8   -0.74    0.71 
  17  -2   8   -1.18    0.69 
 -17  -2  -8    0.77    0.65 
  17   2   8   -0.17    0.70 
 -17   2  -8   -1.16    0.62 
  17   2   8   -0.58    0.81 
  18  -2   8    3.70    0.95 
 -18  -2  -8    4.46    0.90 
 -18   2  -8    4.08    0.84 
 -17  -3   8    0.55    1.00 
  17  -3  -8    0.21    0.78 
 -17   3   8    1.10    0.70 
 -17   3   8    0.59    0.71 
 -16  -3   8    0.12    0.78 
  16  -3  -8   -0.10    0.64 
 -16   3   8    1.68    0.67 
 -16   3   8    0.17    0.60 
 -15  -3   8   12.13    1.52 
  15  -3  -8   14.47    1.57 
 -15   3   8   12.60    1.44 
 -15   3   8   14.89    1.42 
  14  -3  -8   -0.79    0.48 
 -14   3   8   -0.89    0.46 
 -14   3   8   -0.36    0.53 
  13  -3  -8   27.57    2.25 
 -13   3   8   23.95    2.19 
 -13   3   8   21.55    2.16 
  12  -3  -8    1.36    0.50 
 -12  -3   8    1.86    0.50 
 -12   3   8    2.46    0.49 
 -12   3   8    2.28    0.54 
 -11  -3   8    0.45    0.41 
  11  -3  -8   -0.52    0.36 
 -11   3   8    0.00    0.34 
 -11   3   8   -0.55    0.35 
  10  -3  -8   15.29    1.39 
 -10   3   8   13.88    1.35 
 -10   3   8   14.67    1.41 
 -10   3   8   14.17    1.36 
   9  -3  -8   97.33    7.70 
  -9  -3   8   87.49    7.69 
  -9   3   8   91.57    7.65 
  -9   3   8   99.12    7.70 
  -9   3   8   89.27    7.64 
  -8  -3   8   30.71    2.47 
   8  -3  -8   27.41    2.38 
  -8   3   8   27.17    2.35 
  -8   3   8   25.80    2.39 
  -8   3   8   26.86    2.36 
  -7  -3   8   31.50    2.67 
   7  -3  -8   30.44    2.56 
  -7   3   8   28.15    2.54 
  -7   3   8   30.04    2.54 
   6  -3  -8    0.22    0.26 
  -6   3   8    0.26    0.30 
  -6   3   8    0.27    0.24 
  -6   3   8    0.12    0.27 
   5  -3  -8   54.09    4.28 
  -5   3   8   51.71    4.27 
  -5   3   8   50.24    4.29 
  -5   3   8   49.51    4.24 
   4  -3  -8   10.04    0.95 
  -4   3   8   10.29    0.96 
  -4   3   8    9.26    0.91 
  -4   3   8    9.54    0.94 
   3  -3  -8    3.36    0.48 
  -3   3   8    2.91    0.47 
  -3   3   8    2.62    0.43 
  -3   3   8    2.19    0.43 
   2  -3  -8    4.28    0.53 
  -2   3   8    3.99    0.51 
  -2   3   8    3.82    0.51 
  -2   3   8    4.10    0.54 
   1  -3  -8    5.05    0.55 
  -1   3   8    4.57    0.55 
   0  -3  -8    3.76    0.46 
   0  -3   8    2.89    0.46 
   0   3   8    3.68    0.45 
  -1  -3  -8    0.98    0.24 
   1   3   8    0.90    0.22 
   2  -3   8    1.30    0.29 
  -2  -3  -8    1.04    0.24 
   2   3   8    1.02    0.23 
  -3  -3  -8    3.88    0.47 
   3  -3   8    2.47    0.49 
   3   3   8    3.84    0.45 
  -4  -3  -8    2.98    0.43 
   4  -3   8    2.44    0.39 
   4   3   8    2.21    0.39 
  -4   3  -8    1.98    0.33 
   5  -3   8    0.00    0.29 
  -5  -3  -8    0.03    0.23 
   5  -3   8   -0.10    0.24 
  -5   3  -8    0.29    0.24 
   5   3   8   -0.12    0.18 
  -6  -3  -8    0.30    0.31 
   6  -3   8    0.38    0.32 
   6  -3   8    0.18    0.27 
   6   3   8    0.25    0.23 
  -7  -3  -8   46.80    3.48 
   7  -3   8   37.11    3.42 
   7  -3   8   42.01    3.43 
  -7   3  -8   37.18    3.43 
   8  -3   8    9.64    1.04 
  -8  -3  -8    9.77    1.10 
   8   3   8   10.66    0.98 
   9  -3   8   28.47    2.46 
   9  -3   8   27.37    2.45 
  -9  -3  -8   31.81    2.53 
  -9   3  -8   23.23    2.46 
   9   3   8   30.78    2.42 
  10  -3   8   34.52    3.10 
 -10  -3  -8   37.63    3.16 
  10  -3   8   38.55    3.11 
  10   3   8   37.39    3.04 
 -10   3  -8   32.41    3.17 
 -11  -3  -8   11.69    1.33 
  11  -3   8   12.03    1.15 
  11  -3   8   10.89    1.17 
  11   3   8   11.06    1.07 
 -11   3  -8    9.69    1.22 
  12  -3   8    0.04    0.42 
  12  -3   8    0.16    0.44 
 -12  -3  -8   -0.02    0.52 
  12   3   8   -0.52    0.42 
 -12   3  -8   -0.22    0.40 
  13  -3   8   14.54    1.38 
 -13  -3  -8   15.29    1.63 
  13   3   8   13.42    1.34 
 -13   3  -8   11.86    1.47 
  14  -3   8   26.73    2.51 
 -14  -3  -8   28.49    2.61 
  14   3   8   26.94    2.43 
 -14   3  -8   27.89    2.54 
  15  -3   8    1.11    0.60 
 -15  -3  -8    1.61    0.76 
  15   3   8    1.46    0.75 
 -15   3  -8    0.72    0.59 
 -16  -3  -8    0.68    0.80 
  16  -3   8   -1.11    0.70 
  16  -3   8   -0.60    0.79 
  16   3   8    0.43    0.92 
 -16   3  -8   -0.42    0.60 
  15  -4  -8   -0.40    0.75 
 -15   4   8    0.51    0.71 
 -15   4   8    0.53    0.74 
 -15   4   8    2.04    0.87 
  14  -4  -8    0.03    0.65 
 -14   4   8    1.93    0.77 
 -14   4   8    1.46    0.69 
 -14   4   8    1.84    0.73 
  13  -4  -8    0.09    0.56 
 -13   4   8   -0.85    0.60 
 -13   4   8    0.42    0.67 
 -13   4   8    0.59    0.48 
  12  -4  -8   -0.83    0.50 
 -12   4   8   -0.18    0.54 
 -12   4   8   -0.02    0.46 
 -12   4   8    0.01    0.86 
  11  -4  -8    1.45    0.54 
 -11   4   8    2.05    0.58 
 -11   4   8    1.84    0.49 
  10  -4  -8    0.79    0.44 
 -10   4   8    1.44    0.51 
 -10   4   8    1.64    0.43 
   9  -4  -8    0.54    0.43 
  -9   4   8    0.98    0.41 
  -9   4   8    0.36    0.43 
  -8   4   8   31.33    2.81 
  -8   4   8   33.98    2.81 
   7  -4  -8   -0.09    0.34 
  -7   4   8    0.54    0.41 
  -7   4   8   -0.06    0.32 
  -7   4   8    0.21    0.36 
   6  -4  -8    5.96    0.84 
  -6   4   8    7.56    0.87 
  -6   4   8    7.96    0.84 
  -6   4   8    6.89    0.83 
   5  -4  -8    2.86    0.51 
  -5   4   8    3.54    0.54 
  -5   4   8    3.37    0.50 
  -4   4   8    0.08    0.30 
  -4   4   8    0.21    0.37 
  -3   4   8    6.72    0.88 
  -3   4   8    6.15    0.84 
  -2   4   8    2.60    0.51 
  -2   4   8    2.99    0.49 
   1  -4  -8    3.16    0.49 
  -1   4   8    3.62    0.51 
  -1   4   8    3.31    0.51 
   0  -4  -8    2.31    0.42 
   0   4   8    2.20    0.43 
   0   4   8    1.67    0.39 
  -1  -4  -8   -0.15    0.23 
   1  -4   8   -0.03    0.27 
   1   4   8    0.15    0.25 
   1   4   8    0.13    0.35 
  -2  -4  -8    7.87    0.83 
   2  -4   8    5.97    0.78 
   2   4   8    7.61    0.81 
   2   4   8    8.94    0.88 
   3  -4   8    3.35    0.51 
  -3  -4  -8    4.53    0.63 
   3  -4   8    3.58    0.65 
   3   4   8    4.59    0.68 
   3   4   8    3.89    0.57 
   4  -4   8    1.28    0.39 
  -4  -4  -8    1.26    0.40 
   4  -4   8    0.60    0.46 
   4   4   8    1.82    0.43 
   4   4   8    1.10    0.32 
   5  -4   8    0.41    0.34 
   5  -4   8   -0.39    0.44 
  -5  -4  -8    0.73    0.35 
   5   4   8    0.92    0.29 
   5   4   8    0.94    0.38 
  -6  -4  -8    3.11    0.55 
   6  -4   8    1.73    0.61 
   6  -4   8    2.46    0.65 
   6   4   8    3.00    0.46 
  -6   4  -8    3.12    0.57 
   7  -4   8    1.83    0.55 
   7  -4   8    2.33    0.52 
  -7  -4  -8    2.59    0.59 
  -7   4  -8    2.00    0.42 
   7   4   8    3.13    0.56 
  -8  -4  -8   33.46    2.85 
   8  -4   8   30.75    2.76 
   8  -4   8   31.06    2.78 
  -9  -4  -8    0.33    0.58 
   9  -4   8   -0.35    0.46 
   9  -4   8    0.73    0.50 
   9   4   8    0.36    0.34 
  -9   4  -8    0.53    0.36 
  10  -4   8    2.30    0.63 
  10  -4   8    2.34    0.65 
 -10  -4  -8    2.56    0.73 
 -10   4  -8    1.95    0.52 
  10   4   8    2.71    0.45 
  11  -4   8    5.09    0.92 
  11  -4   8    3.04    0.84 
 -11  -4  -8    6.68    1.00 
  11   4   8    5.21    0.76 
 -11   4  -8    4.18    0.69 
  12  -4   8    2.55    0.75 
  12  -4   8    1.26    0.76 
 -12  -4  -8    4.23    0.97 
 -12   4  -8    3.41    0.65 
  13  -4   8    0.92    0.76 
 -13  -4  -8    2.10    0.94 
  13  -4   8    1.03    0.80 
 -13   4  -8    2.03    0.60 
 -14  -4  -8    1.22    0.94 
  14  -4   8    1.14    0.84 
  14  -4   8    0.01    0.86 
 -14   4  -8    0.51    0.57 
  12  -5  -8   -0.15    0.67 
 -12   5   8    0.63    0.83 
 -12   5   8   -0.61    0.69 
 -12   5   8    0.60    0.74 
  11  -5  -8    0.01    0.62 
 -11   5   8    0.72    0.73 
 -11   5   8    1.05    0.71 
 -11   5   8    1.24    0.67 
  10  -5  -8   -0.08    0.57 
 -10   5   8    1.21    0.64 
 -10   5   8   -0.14    0.61 
 -10   5   8   -0.33    0.59 
   9  -5  -8   -0.29    0.50 
  -9   5   8   -0.24    0.54 
  -9   5   8   -0.20    0.59 
  -9   5   8    0.65    0.57 
  -8   5   8    0.00    0.48 
  -8   5   8    0.45    0.52 
  -8   5   8   -0.32    0.56 
  -7   5   8    1.05    0.54 
  -7   5   8    0.89    0.56 
  -7   5   8    1.16    0.47 
  -6   5   8    2.23    0.59 
  -5   5   8    4.57    0.71 
  -4   5   8    5.11    0.86 
  -4   5   8    6.44    0.93 
  -3   5   8   17.73    1.82 
  -3   5   8   22.08    1.87 
  -2  -5   8   -0.01    0.34 
  -2   5   8   -0.17    0.39 
  -2   5   8    0.13    0.46 
  -1   5   8    7.04    0.93 
  -1   5   8    8.26    0.98 
   0  -5  -8   -0.08    0.40 
   0  -5   8    0.40    0.39 
   0   5   8    0.38    0.38 
   0   5   8    0.27    0.63 
   1  -5   8    0.23    0.38 
  -1  -5  -8    0.56    0.38 
   1   5   8    0.09    0.38 
   1   5   8   -0.17    0.42 
   2  -5   8    1.67    0.48 
   2  -5   8    0.44    0.58 
  -2  -5  -8    2.29    0.51 
  -3  -5  -8   23.39    2.37 
   3   5   8   28.74    2.34 
   3   5   8   26.60    2.32 
   4  -5   8   -0.86    0.59 
   4  -5   8   -0.01    0.49 
  -4  -5  -8   -0.23    0.43 
   4   5   8   -0.47    0.37 
   4   5   8    0.39    0.41 
   5  -5   8    2.95    0.66 
  -5  -5  -8    3.33    0.74 
   5   5   8    3.37    0.53 
   5   5   8    3.35    0.57 
   6  -5   8    1.87    0.74 
  -6  -5  -8    2.92    0.71 
   6   5   8    3.20    0.51 
   6   5   8    3.48    0.56 
   7  -5   8    3.22    0.75 
   7  -5   8    2.89    0.86 
  -7  -5  -8    4.06    0.75 
   7   5   8    4.89    0.71 
   8  -5   8    0.27    0.73 
   8  -5   8    0.12    0.66 
  -8  -5  -8    1.05    0.68 
  -8   5  -8    0.88    0.43 
  -8   5  -8    0.84    0.81 
  -9  -5  -8    3.19    0.85 
   9  -5   8    0.84    0.83 
   9  -5   8    2.78    0.80 
  -9   5  -8    1.25    0.45 
  10  -5   8    8.21    1.25 
  10  -5   8    8.45    1.48 
 -10   5  -8    7.64    1.07 
  11  -5   8   15.16    1.93 
 -11  -5  -8   16.09    2.10 
 -11   5  -8   10.57    1.40 
  -6   6   8    0.81    0.75 
  -6   6   8    2.73    0.76 
  -5   6   8    2.11    0.73 
  -5   6   8    0.24    0.68 
  -4   6   8    1.05    0.67 
  -4   6   8   -0.81    0.61 
  -3   6   8   26.43    2.86 
  -3   6   8   32.44    2.71 
  -2  -6   8    1.73    0.56 
  -2   6   8    2.72    0.66 
  -1  -6   8    0.60    0.54 
  -1   6   8   -0.66    0.54 
  -1   6   8   -0.53    0.60 
   0  -6   8   -0.34    0.65 
   0   6   8    0.01    0.51 
   0   6   8    0.05    0.60 
   1  -6   8   -0.08    0.63 
   1   6   8    0.00    0.59 
  -2  -6  -8    4.37    0.91 
   2   6   8    5.90    0.82 
   2   6   8    4.69    0.71 
   3  -6   8   -1.38    0.64 
  -3  -6  -8   -0.03    0.66 
   3   6   8   -0.42    0.47 
  -4  -6  -8    0.19    0.73 
   4  -6   8   -0.99    0.68 
   4   6   8   -0.65    0.66 
   5  -6   8    0.43    0.73 
   5  -6   8    0.68    0.88 
  -5  -6  -8    1.13    0.83 
   6  -6   8   -0.99    0.78 
   6  -6   8   -1.10    0.95 
  -6  -6  -8   -0.10    0.80 
  19   0  -9   -0.57    0.78 
 -19   0   9    0.42    0.96 
 -19   0   9    1.16    0.94 
 -18   0   9   -0.42    0.89 
 -18   0   9   -0.05    0.79 
  18   0  -9    0.61    0.65 
 -17   0   9    0.27    0.55 
 -17   0   9   -0.55    0.75 
  17   0  -9   -0.26    0.56 
 -16   0   9   -0.96    0.63 
 -16   0   9    0.73    0.51 
  16   0  -9   -0.08    0.48 
 -15   0   9   -0.64    0.58 
 -15   0   9    0.17    0.42 
 -14   0   9    0.19    0.35 
 -14   0   9   -0.57    0.57 
  14   0  -9   -0.14    0.34 
 -13   0   9    0.21    0.29 
  13   0  -9   -0.09    0.30 
 -13   0   9   -0.03    0.49 
  12   0  -9   -0.08    0.28 
 -12   0   9   -0.26    0.26 
 -12   0   9    0.43    0.42 
  11   0  -9    0.18    0.26 
 -11   0   9   -0.21    0.25 
 -11   0   9   -0.03    0.29 
  10   0  -9   -0.35    0.21 
 -10   0   9   -0.41    0.27 
 -10   0   9   -0.29    0.25 
  -9   0   9   -0.17    0.26 
   9   0  -9   -0.09    0.18 
  -8   0   9   -0.15    0.23 
   8   0  -9   -0.18    0.19 
  -7   0   9   -0.21    0.20 
   7   0  -9   -0.14    0.18 
  -6   0   9    0.01    0.19 
  -5   0   9    0.06    0.19 
  -5   0   9   -0.16    0.17 
  -4   0   9    0.02    0.16 
  -4   0   9    0.19    0.18 
  -3   0   9   -0.03    0.15 
  -3   0   9   -0.14    0.16 
  -2   0   9   -0.02    0.16 
  -2   0   9    0.14    0.15 
   1   0  -9   -0.01    0.11 
  -1   0   9    0.01    0.15 
   0   0   9    0.05    0.12 
   0   0  -9    0.17    0.12 
  -1   0  -9    0.14    0.12 
   1   0   9    0.17    0.12 
   2   0   9    0.06    0.11 
  -2   0  -9    0.02    0.13 
   3   0   9   -0.06    0.11 
  -3   0  -9    0.11    0.16 
  -4   0  -9    0.23    0.18 
   4   0   9    0.17    0.12 
   5   0   9   -0.17    0.13 
  -5   0  -9   -0.12    0.18 
  -6   0  -9    0.16    0.20 
   6   0   9    0.02    0.13 
  -7   0  -9    0.11    0.20 
   7   0   9   -0.05    0.15 
   8   0   9   -0.20    0.15 
  -8   0  -9   -0.09    0.20 
  -9   0  -9   -0.18    0.22 
   9   0   9   -0.02    0.18 
   9   0   9    0.05    0.24 
 -10   0  -9   -0.03    0.29 
  10   0   9    0.08    0.19 
  10   0   9   -0.34    0.29 
  11   0   9   -0.40    0.35 
 -11   0  -9   -0.20    0.28 
  11   0   9   -0.41    0.21 
  12   0   9   -0.83    0.41 
  12   0   9   -0.23    0.23 
 -12   0  -9    0.05    0.37 
  13   0   9    0.07    0.26 
  13   0   9    0.60    0.43 
 -13   0  -9   -0.36    0.35 
  14   0   9    0.39    0.54 
 -14   0  -9   -0.44    0.36 
  14   0   9   -0.38    0.42 
  16   0   9   -0.40    0.55 
  16   0   9    0.65    0.93 
  17   0   9    1.42    0.89 
  17   0   9    0.12    0.62 
 -17   0  -9   -0.78    0.54 
  18   0   9   -1.08    0.93 
  18   0   9    0.44    0.70 
 -18   0  -9   -0.73    0.63 
  19  -1  -9    1.84    0.74 
 -19  -1   9   -0.73    0.98 
 -19  -1   9    1.14    1.23 
 -19   1   9    1.34    0.84 
 -19   1   9   -0.19    1.06 
  19   1  -9   -0.15    0.72 
 -18  -1   9    0.35    0.94 
  18  -1  -9    0.65    0.60 
 -18  -1   9   -0.08    0.84 
 -18   1   9    2.00    0.97 
 -18   1   9    0.56    0.52 
  18   1  -9    0.45    0.63 
 -17  -1   9    2.50    0.78 
 -17  -1   9    1.46    0.83 
  17  -1  -9    2.09    0.59 
 -17   1   9    1.04    0.50 
  17   1  -9    0.63    0.61 
 -17   1   9    1.54    0.83 
 -16  -1   9    1.62    0.74 
 -16  -1   9   -0.26    0.65 
 -16   1   9   -0.10    0.41 
 -16   1   9   -0.85    0.65 
 -15  -1   9    0.62    0.81 
 -15  -1   9    0.90    0.48 
  15   1  -9    0.99    0.47 
 -15   1   9    1.11    0.41 
 -15   1   9    0.90    0.62 
 -14  -1   9    1.08    0.47 
 -14  -1   9    0.90    0.53 
  14   1  -9    0.33    0.40 
 -14   1   9    0.90    0.37 
 -14   1   9    0.34    0.55 
 -13  -1   9   15.48    1.58 
 -13   1   9   16.87    1.58 
 -13   1   9   20.46    1.64 
  13   1  -9   16.30    1.60 
 -12  -1   9    6.20    0.82 
  12  -1  -9    7.28    0.79 
 -12  -1   9    4.75    0.79 
 -12   1   9    6.35    0.82 
 -12   1   9    7.17    0.73 
  11  -1  -9    5.96    0.69 
 -11  -1   9    5.36    0.82 
 -11   1   9    6.06    0.68 
 -11   1   9    5.21    0.64 
  11   1  -9    4.25    0.70 
  10  -1  -9    0.05    0.24 
 -10  -1   9    0.48    0.36 
  10   1  -9    0.15    0.26 
 -10   1   9    0.23    0.27 
   9  -1  -9   25.09    2.17 
  -9  -1   9   26.51    2.19 
  -9   1   9   23.88    2.15 
  -8  -1   9    1.37    0.35 
   8  -1  -9    1.54    0.31 
  -8   1   9    1.51    0.31 
  -8   1   9    1.26    0.31 
   7  -1  -9   47.08    3.90 
  -7   1   9   46.34    3.88 
   6  -1  -9    3.36    0.44 
  -6  -1   9    2.88    0.49 
  -6   1   9    3.30    0.48 
  -6   1   9    3.71    0.46 
   5  -1  -9    2.10    0.37 
  -5  -1   9    1.81    0.33 
  -5   1   9    1.84    0.32 
  -5   1   9    2.24    0.38 
  -4  -1   9   10.08    1.03 
  -4   1   9   12.12    1.07 
  -4   1   9   12.83    1.05 
  -3  -1   9    9.25    0.88 
  -3   1   9    9.06    0.91 
  -3   1   9   10.71    0.89 
   2  -1  -9    9.64    0.87 
  -2   1   9    9.00    0.89 
  -2   1   9    9.80    0.86 
   1  -1  -9    6.64    0.62 
  -1  -1   9    5.82    0.60 
  -1   1   9    6.96    0.64 
   0  -1   9    3.17    0.37 
   0   1  -9    3.04    0.34 
   1  -1   9    0.97    0.20 
  -1  -1  -9    0.96    0.19 
   1   1   9    0.79    0.18 
  -1   1  -9    0.81    0.17 
   2  -1   9    1.94    0.32 
  -2   1  -9    2.32    0.30 
   2   1   9    3.04    0.33 
   3  -1   9    7.36    0.67 
  -3   1  -9    6.73    0.68 
   3   1   9    6.95    0.66 
   4  -1   9    9.89    0.83 
  -4   1  -9    8.93    0.84 
   4   1   9    7.76    0.79 
   5  -1   9    3.16    0.44 
  -5  -1  -9    4.70    0.50 
   5   1   9    3.98    0.42 
  -5   1  -9    3.04    0.49 
  -6  -1  -9    2.32    0.43 
   6  -1   9    2.33    0.35 
  -6   1  -9    2.29    0.39 
   6   1   9    2.02    0.33 
   7  -1   9   14.90    1.44 
  -7   1  -9   15.31    1.50 
   7   1   9   19.55    1.45 
   8  -1   9    0.61    0.23 
  -8  -1  -9    0.08    0.26 
   8  -1   9   -0.02    0.21 
   8   1   9    0.04    0.17 
  -8   1  -9    0.10    0.23 
   9  -1   9    1.10    0.24 
  -9  -1  -9    1.27    0.36 
   9  -1   9    1.28    0.28 
   9   1   9    0.83    0.31 
   9   1   9    0.59    0.23 
  -9   1  -9    1.06    0.34 
  10  -1   9    0.19    0.30 
 -10  -1  -9   -0.55    0.26 
  10   1   9   -0.48    0.34 
  10   1   9    0.01    0.20 
  11  -1   9    0.38    0.22 
 -11  -1  -9   -0.06    0.31 
  11  -1   9    0.25    0.32 
  11   1   9   -0.14    0.40 
  11   1   9    0.54    0.33 
 -11   1  -9    0.13    0.31 
  12  -1   9   -0.10    0.35 
 -12  -1  -9    0.37    0.32 
 -12   1  -9    0.61    0.39 
  12   1   9    0.31    0.25 
  12   1   9    0.17    0.43 
 -13  -1  -9    4.51    0.74 
  13  -1   9    4.50    0.67 
  13   1   9    4.79    0.62 
 -13   1  -9    4.04    0.65 
 -14  -1  -9    1.09    0.40 
  14   1   9    1.24    0.44 
  14   1   9    0.40    0.58 
 -14   1  -9    0.60    0.42 
  15  -1   9    3.03    0.56 
 -15  -1  -9    2.24    0.52 
  15  -1   9    2.41    0.63 
 -15   1  -9    1.89    0.52 
  15   1   9    2.90    0.66 
  15   1   9    1.82    0.71 
  16  -1   9    7.80    1.01 
  16  -1   9    7.55    1.10 
 -16  -1  -9    9.46    1.12 
 -16   1  -9    7.56    1.15 
  16   1   9    5.24    1.24 
  17  -1   9    2.72    0.87 
 -17  -1  -9    4.35    0.73 
  17  -1   9    3.15    0.73 
  17   1   9    2.38    0.75 
  17   1   9    3.05    1.18 
 -18  -1  -9    0.31    0.61 
  18  -1   9   -0.97    0.73 
  18  -1   9   -0.86    0.92 
  18   1   9   -0.03    0.72 
  18   1   9    0.17    0.93 
 -18   1  -9   -0.32    0.63 
  18  -2  -9   -0.38    0.68 
 -18  -2   9    0.08    0.86 
 -18  -2   9    0.60    1.16 
  18   2  -9    0.40    0.66 
 -18   2   9    0.62    0.86 
 -18   2   9   -0.61    0.63 
 -17  -2   9    0.56    0.95 
  17  -2  -9   -0.15    0.55 
 -17  -2   9   -0.40    0.77 
 -17   2   9   -0.39    0.51 
  17   2  -9    0.31    0.61 
 -16  -2   9    2.91    0.89 
  16  -2  -9    3.05    0.64 
 -16  -2   9    3.33    0.78 
 -16   2   9    1.73    0.74 
 -16   2   9    2.98    0.55 
 -15  -2   9    2.83    0.70 
 -15  -2   9    5.40    0.98 
  15   2  -9    3.96    0.71 
 -15   2   9    3.98    0.76 
 -15   2   9    4.46    0.61 
 -14  -2   9    2.59    0.61 
  14   2  -9    2.63    0.59 
 -14   2   9    2.58    0.61 
 -14   2   9    2.38    0.47 
 -13  -2   9    2.44    0.55 
  13  -2  -9    2.50    0.50 
 -13   2   9    3.05    0.59 
 -13   2   9    2.20    0.44 
  12  -2  -9    3.10    0.51 
 -12  -2   9    3.24    0.60 
 -12   2   9    2.66    0.55 
 -12   2   9    2.38    0.46 
 -11  -2   9   13.02    1.27 
  11  -2  -9   12.81    1.16 
 -11   2   9   12.37    1.13 
 -11   2   9    9.74    1.12 
  10  -2  -9   36.77    3.17 
 -10  -2   9   34.08    3.14 
 -10   2   9   39.04    3.10 
 -10   2   9   36.73    3.08 
  -9  -2   9    2.83    0.49 
   9  -2  -9    1.57    0.39 
  -9   2   9    1.71    0.34 
  -8  -2   9    0.37    0.36 
   8  -2  -9    0.11    0.24 
  -8   2   9   -0.11    0.22 
  -8   2   9    0.25    0.22 
  -8   2   9    0.28    0.26 
   7  -2  -9    3.23    0.49 
  -7  -2   9    3.55    0.58 
  -7   2   9    2.87    0.50 
  -7   2   9    3.46    0.50 
  -7   2   9    3.68    0.47 
   6  -2  -9   -0.17    0.19 
  -6  -2   9   -0.08    0.24 
  -6   2   9   -0.09    0.23 
  -6   2   9   -0.06    0.24 
  -6   2   9    0.01    0.19 
  -5  -2   9    1.18    0.28 
   5  -2  -9    1.08    0.29 
  -5   2   9    0.76    0.28 
  -5   2   9    1.16    0.25 
   4  -2  -9    5.25    0.58 
  -4   2   9    4.29    0.54 
  -4   2   9    4.35    0.54 
  -3   2   9    0.80    0.23 
  -3   2   9    0.79    0.24 
   2  -2  -9    1.00    0.23 
  -2   2   9    1.49    0.27 
  -2   2   9    1.45    0.25 
   1  -2  -9    0.43    0.16 
  -1  -2   9    0.16    0.14 
  -1   2   9    0.19    0.18 
  -1   2   9    0.51    0.19 
   0  -2  -9    4.22    0.49 
   0   2   9    4.76    0.49 
   0   2   9    4.49    0.49 
   1  -2   9    1.81    0.28 
  -1  -2  -9    1.23    0.25 
   1   2   9    1.74    0.28 
   1   2   9    1.36    0.25 
   2  -2   9    4.47    0.52 
  -2  -2  -9    4.79    0.51 
   2   2   9    4.72    0.50 
   3  -2   9   10.58    0.98 
  -3  -2  -9   12.59    1.00 
   3   2   9   11.30    0.97 
  -3   2  -9    8.88    0.97 
   4  -2   9   28.70    2.47 
  -4  -2  -9   32.30    2.48 
   4   2   9   30.86    2.46 
  -4   2  -9   25.16    2.45 
   5  -2   9    2.29    0.36 
  -5  -2  -9    3.08    0.44 
   5   2   9    2.26    0.33 
  -5   2  -9    2.08    0.37 
  -6  -2  -9    1.87    0.37 
   6  -2   9    2.18    0.37 
   6   2   9    2.62    0.37 
  -6   2  -9    1.80    0.36 
   7  -2   9    2.12    0.40 
   7  -2   9    2.44    0.38 
  -7  -2  -9    2.48    0.41 
  -7   2  -9    2.28    0.41 
   7   2   9    2.57    0.40 
   8  -2   9    9.96    0.94 
   8  -2   9    9.66    0.95 
   8   2   9   10.76    0.94 
  -8   2  -9    8.64    1.01 
   9  -2   9   -0.09    0.29 
  -9   2  -9    0.65    0.31 
   9   2   9    0.23    0.24 
 -10  -2  -9    2.05    0.42 
  10  -2   9    2.11    0.41 
  10  -2   9    1.80    0.38 
 -10   2  -9    2.12    0.51 
  10   2   9    2.66    0.46 
 -11  -2  -9    2.77    0.53 
  11  -2   9    2.86    0.44 
  11   2   9    2.89    0.47 
 -11   2  -9    2.32    0.52 
 -12  -2  -9    2.42    0.55 
 -12   2  -9    2.35    0.52 
  12   2   9    2.60    0.45 
 -13  -2  -9   14.98    1.53 
  13   2   9   16.12    1.39 
 -13   2  -9   13.77    1.53 
 -14  -2  -9    1.33    0.56 
  14   2   9    1.40    0.51 
 -14   2  -9    1.96    0.56 
  15  -2   9    0.02    0.68 
 -15  -2  -9   -0.36    0.54 
  15   2   9    0.25    0.70 
 -15   2  -9    0.47    0.56 
  15   2   9    0.22    0.56 
  16  -2   9    0.95    0.59 
  16  -2   9    1.08    0.67 
 -16  -2  -9    0.23    0.65 
  16   2   9   -0.93    0.62 
  16   2   9   -0.86    0.74 
 -16   2  -9   -0.63    0.57 
  17  -2   9   -0.39    0.68 
 -17  -2  -9   -1.48    0.70 
  17  -2   9    0.16    0.67 
 -17   2  -9   -0.98    0.64 
  17   2   9   -0.85    0.88 
  17  -3  -9   -0.04    0.71 
 -17  -3   9   -0.23    1.04 
 -17   3   9   -0.74    0.69 
 -17   3   9    0.57    1.05 
 -16  -3   9    1.80    0.95 
  16  -3  -9    1.63    0.70 
 -16   3   9    0.47    0.66 
 -16   3   9    2.53    0.71 
 -15  -3   9    3.02    0.92 
  15  -3  -9    3.33    0.73 
 -15   3   9    2.61    0.72 
 -15   3   9    3.83    0.71 
 -14  -3   9    2.57    0.79 
  14  -3  -9    2.49    0.64 
 -14   3   9    2.11    0.63 
 -14   3   9    2.33    0.60 
 -13  -3   9   -0.22    0.45 
  13  -3  -9    0.27    0.51 
 -13   3   9   -0.26    0.45 
 -13   3   9    0.15    0.53 
 -12  -3   9    6.84    1.18 
  12  -3  -9    6.89    0.92 
 -12   3   9    5.02    0.82 
 -12   3   9    5.15    0.82 
 -11  -3   9    5.78    0.94 
  11  -3  -9    4.61    0.78 
 -11   3   9    4.26    0.80 
 -11   3   9    4.01    0.71 
 -11   3   9    4.18    0.66 
  10  -3  -9   14.44    1.27 
 -10  -3   9   12.63    1.34 
 -10   3   9   11.29    1.20 
 -10   3   9   11.32    1.19 
   9  -3  -9    1.80    0.45 
  -9   3   9    2.18    0.45 
  -9   3   9    3.13    0.53 
  -9   3   9    1.73    0.39 
   8  -3  -9   28.34    2.36 
  -8  -3   9   28.10    2.43 
  -8   3   9   26.55    2.35 
  -8   3   9   24.77    2.31 
   7  -3  -9   10.66    1.03 
  -7   3   9   10.93    0.98 
  -7   3   9    9.48    0.97 
  -7   3   9    9.22    1.02 
  -6  -3   9   30.27    2.71 
   6  -3  -9   32.62    2.65 
  -6   3   9   31.10    2.63 
  -6   3   9   29.71    2.61 
   5  -3  -9   11.42    1.04 
  -5   3   9   10.06    1.00 
  -5   3   9   10.43    1.03 
   4  -3  -9    0.47    0.29 
  -4   3   9    0.68    0.27 
  -4   3   9    0.51    0.26 
  -4   3   9    0.81    0.28 
  -3   3   9    5.89    0.68 
  -3   3   9    6.62    0.68 
  -3   3   9    6.16    0.70 
   2  -3  -9    2.22    0.40 
  -2   3   9    1.84    0.34 
  -1  -3   9    1.33    0.25 
   1  -3  -9    1.42    0.28 
  -1   3   9    0.99    0.26 
   0  -3   9    2.45    0.43 
   0  -3  -9    2.90    0.44 
   0   3   9    2.95    0.42 
  -1  -3  -9    0.15    0.17 
   1  -3   9   -0.10    0.22 
   1   3   9   -0.09    0.17 
   2  -3   9    0.18    0.24 
  -2  -3  -9   -0.03    0.19 
   2   3   9    0.23    0.18 
   3  -3   9    4.87    0.60 
  -3  -3  -9    5.17    0.58 
   3   3   9    4.83    0.56 
  -4  -3  -9   18.98    1.85 
   4  -3   9   17.26    1.66 
   4   3   9   21.34    1.65 
  -4   3  -9   17.71    1.63 
   5  -3   9    8.58    1.01 
  -5  -3  -9   13.11    1.10 
   5   3   9   11.18    0.99 
  -5   3  -9   10.09    1.03 
   6  -3   9    5.64    0.77 
   6  -3   9    7.23    0.77 
  -6  -3  -9    7.28    0.81 
   6   3   9    8.14    0.74 
  -6   3  -9    5.99    0.79 
  -7  -3  -9    6.43    0.73 
   7  -3   9    4.26    0.73 
   7  -3   9    3.75    0.67 
   7   3   9    5.42    0.62 
  -7   3  -9    4.92    0.71 
  -8  -3  -9    0.62    0.38 
   8  -3   9   -0.42    0.38 
   8  -3   9    0.17    0.29 
  -8   3  -9    0.62    0.35 
   8   3   9    0.12    0.28 
   9  -3   9    1.85    0.46 
  -9  -3  -9    2.20    0.56 
   9  -3   9    1.84    0.49 
  -9   3  -9    1.27    0.42 
   9   3   9    2.29    0.37 
  10  -3   9   10.36    1.19 
  10  -3   9   11.12    1.19 
 -10  -3  -9   13.80    1.32 
  10   3   9   13.30    1.13 
 -10   3  -9    9.18    1.22 
  11  -3   9    0.16    0.41 
 -11  -3  -9    0.24    0.52 
  11  -3   9    0.29    0.40 
 -11   3  -9    0.13    0.39 
  11   3   9    0.50    0.36 
  12  -3   9   20.29    2.02 
 -12  -3  -9   24.99    2.15 
  12  -3   9   22.02    2.00 
 -12   3  -9   19.65    2.03 
  13  -3   9    1.73    0.57 
 -13  -3  -9    0.44    0.66 
  13  -3   9    1.83    0.56 
  13   3   9    0.88    0.56 
 -13   3  -9    1.53    0.57 
  14  -3   9    0.76    0.63 
 -14  -3  -9   -0.23    0.65 
  14  -3   9    1.44    0.59 
  14   3   9    1.33    0.58 
 -14   3  -9    0.84    0.55 
 -15  -3  -9    5.73    1.06 
  15  -3   9    6.57    1.02 
 -15   3  -9    6.95    1.18 
  15   3   9    5.76    0.95 
  16  -3   9    1.03    0.85 
 -16  -3  -9    0.13    0.82 
 -16   3  -9    0.35    0.63 
  16   3   9    0.38    0.75 
  15  -4  -9    2.92    0.93 
 -15   4   9    3.14    0.86 
 -15   4   9    3.87    1.03 
  14  -4  -9    0.88    0.76 
 -14   4   9   -0.63    0.65 
 -14   4   9   -0.76    0.75 
 -14   4   9    0.54    0.69 
 -13  -4   9    0.86    0.57 
  13  -4  -9    1.15    0.68 
 -13   4   9    0.56    0.67 
 -13   4   9   -0.24    0.65 
 -13   4   9   -0.38    0.65 
  12  -4  -9    0.14    0.54 
 -12   4   9   -0.15    0.57 
 -12   4   9   -0.72    0.43 
  11  -4  -9    2.83    0.68 
 -11   4   9    2.66    0.67 
 -11   4   9    3.49    0.57 
  10  -4  -9    2.74    0.60 
 -10   4   9    3.06    0.59 
 -10   4   9    2.62    0.53 
   9  -4  -9   14.99    1.53 
  -9   4   9   14.96    1.49 
  -9   4   9   16.38    1.50 
   8  -4  -9   14.60    1.50 
  -8   4   9   16.26    1.48 
  -8   4   9   15.66    1.49 
   7  -4  -9    0.81    0.41 
  -7   4   9    1.79    0.43 
  -7   4   9    1.66    0.51 
   6  -4  -9   13.79    1.27 
  -6   4   9   12.29    1.27 
  -6   4   9   11.79    1.25 
  -6   4   9   13.05    1.23 
   5  -4  -9    0.04    0.34 
  -5   4   9    0.27    0.32 
  -5   4   9    0.40    0.37 
  -4   4   9   14.43    1.37 
  -4   4   9   14.69    1.39 
  -3   4   9    6.07    0.81 
  -3   4   9    8.01    0.85 
  -2   4   9    3.59    0.54 
  -2   4   9    3.15    0.52 
  -1  -4   9    2.03    0.39 
   1  -4  -9    2.72    0.51 
  -1   4   9    3.31    0.49 
   0  -4   9   -0.27    0.24 
   0  -4  -9    0.08    0.23 
   0   4   9    0.05    0.48 
  -1  -4  -9    2.80    0.45 
   1   4   9    2.75    0.50 
   1   4   9    3.04    0.50 
  -2  -4  -9    4.12    0.60 
   2  -4   9    3.15    0.60 
   2   4   9    5.22    0.62 
   2   4   9    4.68    0.71 
   3  -4   9    3.68    0.54 
  -3  -4  -9    4.71    0.65 
   3   4   9    4.28    0.70 
   3   4   9    3.91    0.60 
   4  -4   9    0.20    0.46 
   4  -4   9    0.76    0.34 
  -4  -4  -9    0.55    0.34 
   4   4   9    0.33    0.30 
   5  -4   9   64.52    6.20 
   5  -4   9   70.38    6.24 
  -5  -4  -9   80.98    6.24 
   5   4   9   83.19    6.19 
  -6  -4  -9    2.24    0.51 
   6  -4   9    1.48    0.54 
   6  -4   9    3.08    0.57 
   6   4   9    2.76    0.45 
  -6   4  -9    1.75    0.42 
   7  -4   9   -0.22    0.54 
  -7  -4  -9    0.96    0.48 
   7  -4   9    0.07    0.41 
  -7   4  -9    0.34    0.35 
   7   4   9    0.13    0.34 
   8  -4   9   -0.42    0.46 
  -8  -4  -9    0.47    0.55 
   8  -4   9   -0.55    0.53 
  -8   4  -9    0.35    0.33 
   8   4   9    0.18    0.35 
  -9  -4  -9    0.58    0.60 
   9  -4   9   -0.33    0.50 
   9   4   9   -0.12    0.36 
  -9   4  -9    0.01    0.36 
 -10  -4  -9    0.10    0.95 
  10  -4   9   -0.49    0.54 
  10  -4   9    1.04    0.63 
 -10   4  -9   -0.61    0.41 
  10   4   9    0.14    0.38 
 -11  -4  -9    3.70    0.86 
  11  -4   9    2.03    0.78 
  11  -4   9    2.68    0.74 
  11   4   9    4.27    0.72 
 -11   4  -9    2.73    0.61 
 -12  -4  -9    0.69    0.82 
  12  -4   9    0.60    0.72 
  12  -4   9    0.29    0.78 
 -12   4  -9   -0.09    0.49 
  12   4   9   -0.19    0.57 
 -13  -4  -9    6.05    1.15 
  13  -4   9    3.29    0.95 
  13   4   9    4.86    0.92 
 -13   4  -9    6.56    1.05 
 -14  -4  -9    1.33    1.03 
  14  -4   9    0.71    0.89 
  14  -4   9    1.40    1.00 
 -14   4  -9    1.51    0.62 
  11  -5  -9   -0.22    0.68 
 -11   5   9    1.51    0.70 
 -11   5   9    1.10    0.71 
 -11   5   9    2.24    0.77 
  10  -5  -9    5.38    0.92 
 -10   5   9    8.01    1.20 
 -10   5   9    7.37    1.20 
   9  -5  -9    5.06    0.96 
  -9   5   9    7.13    1.07 
  -9   5   9    5.25    0.86 
   8  -5  -9    1.58    0.55 
  -8   5   9    3.23    0.69 
  -8   5   9    2.77    0.64 
  -8   5   9    2.79    0.60 
  -7   5   9    4.52    0.87 
  -7   5   9    5.15    0.77 
  -7   5   9    5.33    0.98 
  -6   5   9    0.20    0.52 
  -6   5   9   -0.11    0.78 
  -6   5   9    0.13    0.48 
  -5   5   9   -0.05    0.51 
  -4   5   9    6.58    1.00 
  -3   5   9    4.17    0.71 
  -2  -5   9    4.26    0.73 
  -2   5   9    5.48    0.81 
  -2   5   9    6.45    0.93 
  -1  -5   9    0.88    0.39 
  -1   5   9    1.46    0.47 
  -1   5   9    1.82    0.53 
   0  -5   9    0.35    0.37 
   0  -5  -9    0.30    0.37 
   0   5   9    0.67    0.39 
   0   5   9    1.13    0.48 
   1  -5   9   -0.68    0.62 
  -1  -5  -9    0.50    0.39 
   1  -5   9    0.15    0.38 
   1   5   9    0.00    0.43 
   1   5   9   -0.10    0.39 
  -2  -5  -9    3.72    0.61 
   2  -5   9    2.31    0.54 
   2   5   9    3.97    0.60 
   2   5   9    3.41    0.64 
   3  -5   9   -0.38    0.62 
   3  -5   9    0.30    0.46 
  -3  -5  -9    0.21    0.44 
   3   5   9    0.54    0.42 
   3   5   9    0.18    0.73 
  -4  -5  -9    3.63    0.67 
   4  -5   9    3.16    0.69 
   4   5   9    4.23    0.62 
   4   5   9    4.24    0.60 
   5  -5   9    0.09    0.53 
  -5  -5  -9    0.29    0.54 
   5  -5   9   -0.36    0.65 
   5   5   9    0.53    0.42 
   5   5   9    1.01    0.90 
  -6  -5  -9    3.47    0.77 
   6  -5   9    3.13    0.78 
   6   5   9    6.05    1.06 
   6   5   9    4.41    0.77 
   7  -5   9   -0.21    0.69 
   7  -5   9    0.27    0.70 
  -7  -5  -9    0.10    0.60 
   7   5   9    0.10    0.42 
   7   5   9    0.15    0.51 
   8  -5   9    0.77    0.80 
   8  -5   9   -0.24    0.69 
  -8  -5  -9    1.24    0.69 
   8   5   9    1.89    0.50 
  -8   5  -9    0.50    0.45 
   8   5   9    0.81    0.43 
   9  -5   9   -0.30    0.87 
   9  -5   9   -0.48    0.74 
  -9  -5  -9    0.49    0.81 
   9   5   9    0.25    0.47 
   9   5   9   -0.14    0.42 
  -9   5  -9    0.70    0.48 
  10  -5   9    2.40    1.03 
 -10  -5  -9    5.48    1.05 
  10  -5   9    3.12    1.01 
 -10   5  -9    2.92    0.62 
  11  -5   9   -0.04    0.96 
  11  -5   9    0.69    1.03 
 -11  -5  -9    1.40    1.08 
 -11   5  -9    0.88    0.54 
  -5   6   9   -0.86    0.67 
  -5   6   9   -0.66    0.67 
  -4   6   9    4.29    0.87 
  -4   6   9    4.55    0.88 
  -3  -6   9    0.62    0.53 
  -3   6   9    0.88    0.66 
  -3   6   9    0.01    0.64 
  -2  -6   9   -0.36    0.58 
  -2   6   9    0.26    0.58 
  -2   6   9   -0.46    0.62 
  -1  -6   9    4.30    0.79 
   0   6   9    5.35    0.82 
   1  -6   9    1.28    0.65 
   1   6   9    1.43    0.60 
   1   6   9    0.33    0.65 
  -2  -6  -9   -0.44    0.66 
   2  -6   9    1.47    0.67 
   2   6   9    0.08    0.64 
   2   6   9    0.96    0.57 
  -3  -6  -9    4.64    0.89 
   3  -6   9    3.47    0.84 
   3   6   9    6.21    1.11 
   4  -6   9    0.97    1.03 
   4  -6   9    1.24    0.79 
  -4  -6  -9    0.93    0.76 
   4   6   9    0.12    0.68 
   4   6   9    0.10    0.51 
 -19   0  10    1.15    0.94 
 -19   0  10    2.18    1.18 
  19   0 -10   -0.59    0.75 
  18   0 -10    0.43    0.66 
 -18   0  10    1.74    0.96 
 -18   0  10    0.56    0.84 
  17   0 -10    0.60    0.63 
 -17   0  10    1.63    0.75 
 -17   0  10    0.35    0.87 
 -16   0  10    1.17    0.74 
  16   0 -10   -0.07    0.50 
 -16   0  10    0.20    0.52 
 -15   0  10    1.55    0.70 
 -15   0  10    0.82    0.48 
 -14   0  10   12.91    1.22 
 -14   0  10   11.07    1.30 
 -13   0  10    5.54    0.98 
 -13   0  10    5.35    0.71 
  13   0 -10    4.98    0.73 
 -12   0  10    8.50    0.87 
  12   0 -10    7.61    0.88 
  11   0 -10   33.73    2.96 
 -11   0  10   35.59    2.95 
  10   0 -10   20.32    1.80 
   9   0 -10   10.17    1.02 
  -9   0  10   11.21    1.04 
   8   0 -10   75.81    6.99 
  -8   0  10   93.74    6.99 
  -7   0  10    1.84    0.37 
  -6   0  10    3.61    0.48 
  -6   0  10    4.00    0.51 
  -5   0  10   74.67    7.05 
  -5   0  10   97.16    7.07 
  -4   0  10   10.60    0.88 
  -4   0  10    7.83    0.88 
  -3   0  10    2.01    0.35 
  -3   0  10    2.14    0.36 
  -2   0  10   16.46    1.33 
  -2   0  10   13.77    1.33 
  -1   0  10    9.93    0.92 
   1   0 -10   10.24    0.90 
   0   0  10    1.21    0.23 
   0   0 -10    0.94    0.20 
   1   0  10   10.86    0.94 
  -1   0 -10   10.14    0.93 
  -2   0 -10    2.27    0.33 
   2   0  10    2.36    0.32 
  -3   0 -10    0.09    0.16 
   3   0  10   -0.04    0.12 
  -4   0 -10   27.19    2.38 
   4   0  10   29.15    2.37 
   5   0  10    1.20    0.22 
  -5   0 -10    1.06    0.28 
   6   0  10    0.66    0.18 
  -6   0 -10    0.31    0.23 
  -7   0 -10   17.47    1.66 
   7   0  10   20.00    1.63 
  -8   0 -10   38.42    2.88 
   8   0  10   29.34    2.82 
  -9   0 -10    1.82    0.58 
   9   0  10    2.34    0.38 
   9   0  10    1.82    0.35 
 -10   0 -10    1.48    0.36 
  10   0  10    1.10    0.35 
  10   0  10    1.31    0.29 
 -11   0 -10    0.02    0.31 
  11   0  10   -0.28    0.19 
  12   0  10   10.28    1.06 
  12   0  10    9.35    0.98 
 -12   0 -10   12.22    1.13 
  13   0  10   31.07    2.86 
 -13   0 -10   36.25    2.95 
  13   0  10   34.18    2.91 
  14   0  10    6.44    0.89 
 -14   0 -10    5.53    0.91 
  15   0  10    4.04    0.75 
 -15   0 -10    5.81    0.79 
 -16   0 -10    1.95    0.60 
  16   0  10    1.33    0.74 
  16   0  10    1.78    0.62 
  17   0  10    0.56    0.90 
  17   0  10    0.62    0.67 
 -18   0 -10    2.52    0.79 
  18   0  10    1.99    0.79 
  18   0  10    1.24    0.98 
 -18  -1  10    3.37    1.00 
  18  -1 -10    1.08    0.72 
 -18  -1  10    0.68    1.00 
 -18   1  10    2.07    1.03 
  18   1 -10    1.38    0.69 
 -18   1  10    1.37    0.74 
  17  -1 -10   -0.58    0.57 
 -17  -1  10    1.30    0.89 
 -17  -1  10   -1.12    0.81 
 -17   1  10   -0.15    0.50 
  17   1 -10   -0.12    0.55 
 -17   1  10   -1.41    0.81 
  16  -1 -10    0.00    0.52 
 -16  -1  10   -0.47    0.71 
 -16  -1  10    0.62    0.72 
 -16   1  10    0.25    0.75 
 -16   1  10    0.31    0.44 
  16   1 -10    0.00    0.49 
 -15  -1  10    0.24    1.05 
 -15  -1  10    0.43    0.57 
 -15   1  10    1.04    0.43 
 -15   1  10   -0.47    0.63 
 -14  -1  10    3.61    0.69 
 -14  -1  10    3.19    0.60 
  14   1 -10    2.56    0.60 
 -14   1  10    3.74    0.72 
 -14   1  10    3.03    0.52 
 -13  -1  10    0.56    0.56 
 -13  -1  10    1.76    0.50 
  13   1 -10    0.92    0.41 
 -13   1  10    0.64    0.33 
 -12  -1  10   10.34    1.21 
  12   1 -10   12.73    1.26 
 -12   1  10   13.88    1.18 
 -12   1  10   11.57    1.23 
 -11  -1  10   33.42    2.77 
  11  -1 -10   32.75    2.75 
 -11   1  10   32.49    2.70 
 -11   1  10   28.15    2.81 
 -10  -1  10    4.04    0.65 
 -10   1  10    3.35    0.56 
 -10   1  10    3.56    0.52 
  -9  -1  10    9.24    0.89 
   9  -1 -10    7.87    0.79 
  -9   1  10    7.54    0.81 
  -9   1  10    5.46    0.94 
   8  -1 -10    0.60    0.24 
  -8  -1  10    0.36    0.32 
  -8   1  10    0.40    0.27 
   7  -1 -10   33.32    2.66 
  -7  -1  10   27.28    2.65 
  -7   1  10   32.12    2.63 
  -7   1  10   31.80    2.66 
   6  -1 -10    4.20    0.50 
  -6  -1  10    3.70    0.52 
  -6   1  10    3.60    0.48 
  -6   1  10    3.15    0.53 
  -5  -1  10   12.07    1.24 
  -5   1  10   15.57    1.30 
  -5   1  10   15.35    1.26 
  -4  -1  10    0.14    0.18 
  -4  -1  10   -0.01    0.18 
  -4   1  10   -0.09    0.17 
  -4   1  10    0.05    0.20 
  -3  -1  10    4.66    0.57 
  -3   1  10    6.10    0.61 
  -3   1  10    5.72    0.57 
  -2  -1  10    5.94    0.66 
   2  -1 -10    7.15    0.67 
  -2   1  10    8.07    0.66 
  -2   1  10    6.16    0.68 
  -1  -1  10    5.22    0.59 
   1  -1 -10    6.31    0.62 
  -1   1  10    6.36    0.64 
  -1   1  10    7.27    0.62 
   0  -1  10    1.58    0.25 
   0  -1 -10    1.56    0.26 
   0   1 -10    1.27    0.21 
   0   1  10    1.35    0.25 
   1  -1  10   12.56    1.23 
   1   1  10   16.00    1.25 
   2  -1  10   39.23    2.98 
  -2   1 -10   33.71    2.95 
   2   1  10   34.19    2.97 
   3  -1  10    5.45    0.57 
  -3   1 -10    4.94    0.57 
   3   1  10    6.07    0.56 
  -4  -1 -10   37.28    2.72 
   4  -1  10   30.87    2.71 
   4   1  10   33.73    2.70 
  -4   1 -10   27.23    2.70 
   5  -1  10    0.37    0.20 
  -5  -1 -10    0.41    0.22 
  -5   1 -10    0.18    0.22 
   5   1  10    0.25    0.14 
  -6  -1 -10   -0.12    0.22 
   6  -1  10   -0.11    0.17 
  -6   1 -10    0.26    0.25 
   6   1  10    0.09    0.16 
   7  -1  10    1.97    0.33 
  -7  -1 -10    2.84    0.49 
  -7   1 -10    2.66    0.43 
   7   1  10    1.71    0.33 
   8  -1  10    0.19    0.20 
  -8  -1 -10   -0.08    0.28 
  -8   1 -10   -0.18    0.26 
   8   1  10   -0.09    0.16 
  -9  -1 -10    0.30    0.30 
   9  -1  10   -0.21    0.25 
   9  -1  10   -0.07    0.24 
   9   1  10   -0.03    0.18 
  -9   1 -10    0.26    0.29 
   9   1  10   -0.42    0.29 
 -10  -1 -10    1.01    0.36 
  10  -1  10    0.95    0.27 
  10  -1  10    0.46    0.30 
  10   1  10    0.26    0.35 
 -10   1 -10    0.83    0.34 
  10   1  10    0.82    0.34 
 -11  -1 -10    0.20    0.33 
  11  -1  10    0.46    0.33 
 -11   1 -10    0.49    0.33 
  11   1  10    0.04    0.25 
  11   1  10    0.36    0.42 
  12  -1  10    0.93    0.39 
 -12  -1 -10    1.04    0.43 
  12   1  10    0.75    0.52 
  12   1  10    1.37    0.31 
 -12   1 -10    1.45    0.47 
 -13  -1 -10   12.45    1.40 
 -13   1 -10   13.57    1.40 
  13   1  10   14.12    1.27 
  13   1  10   13.89    1.36 
 -14  -1 -10   -0.31    0.44 
  14   1  10    0.27    0.60 
 -14   1 -10    0.27    0.43 
 -15  -1 -10   -0.18    0.46 
  15  -1  10   -0.90    0.47 
  15  -1  10   -0.37    0.52 
  15   1  10   -0.61    0.65 
 -15   1 -10   -0.68    0.43 
  16  -1  10   -0.58    0.56 
  16  -1  10    0.67    0.66 
 -16  -1 -10    0.65    0.52 
 -16   1 -10   -0.30    0.57 
  16   1  10    0.21    0.60 
 -17  -1 -10    1.86    0.60 
  17  -1  10    1.96    0.71 
  17  -1  10    1.96    0.84 
 -17   1 -10    0.34    0.65 
  17   1  10    0.74    0.95 
  17   1  10    1.24    0.69 
  18  -2 -10    1.65    0.76 
 -18  -2  10    0.48    1.20 
 -18  -2  10    1.13    0.94 
 -18   2  10    3.23    1.00 
  18   2 -10    2.21    0.80 
 -17  -2  10    2.72    0.89 
 -17  -2  10    1.52    1.06 
  17  -2 -10    0.72    0.64 
 -17   2  10    0.44    0.54 
 -17   2  10   -0.58    0.85 
  17   2 -10    1.24    0.69 
 -16  -2  10    4.81    1.10 
  16  -2 -10    6.77    1.00 
 -16  -2  10    4.94    0.99 
 -16   2  10    4.73    0.92 
  16   2 -10    4.38    0.97 
 -16   2  10    4.66    0.81 
 -15  -2  10    6.57    1.00 
  15  -2 -10    7.00    1.02 
 -15  -2  10    8.28    1.20 
 -15   2  10    7.04    1.07 
 -15   2  10    6.76    0.89 
  14  -2 -10   17.75    1.76 
 -14  -2  10   17.70    1.86 
 -14   2  10   16.60    1.65 
 -14   2  10   19.96    1.75 
 -13  -2  10    8.60    1.07 
  13  -2 -10    5.35    0.90 
 -13   2  10    7.41    0.82 
 -13   2  10    6.75    0.91 
 -12  -2  10   50.20    4.56 
  12  -2 -10   51.60    4.57 
 -12   2  10   52.44    4.50 
 -12   2  10   61.16    4.53 
 -11  -2  10   11.76    1.25 
  11  -2 -10   11.54    1.16 
 -11   2  10   11.11    1.08 
 -11   2  10   10.66    1.10 
 -10  -2  10    6.54    0.90 
  10  -2 -10    5.20    0.72 
 -10   2  10    5.37    0.65 
 -10   2  10    4.90    0.65 
 -10   2  10    5.55    0.79 
  -9  -2  10    1.70    0.45 
  -9   2  10    0.02    0.26 
  -9   2  10    0.47    0.41 
  -9   2  10    0.06    0.27 
   8  -2 -10   28.73    2.37 
  -8  -2  10   25.62    2.41 
  -8   2  10   28.55    2.38 
  -8   2  10   27.45    2.36 
  -8   2  10   26.32    2.35 
  -7  -2  10    0.81    0.37 
   7  -2 -10    0.47    0.24 
  -7   2  10    0.66    0.27 
  -7   2  10    0.57    0.28 
  -7   2  10    0.47    0.27 
  -6  -2  10    0.33    0.32 
   6  -2 -10   -0.23    0.21 
  -6   2  10    0.08    0.26 
  -6   2  10    0.18    0.24 
  -5  -2  10    0.09    0.22 
   5  -2 -10    0.23    0.22 
  -5   2  10    0.11    0.20 
  -5   2  10   -0.41    0.23 
  -4   2  10   10.62    0.99 
  -4   2  10    9.71    0.94 
  -3   2  10   -0.06    0.18 
  -3   2  10   -0.18    0.19 
   2  -2 -10   38.05    3.27 
  -2   2  10   38.01    3.25 
  -2   2  10   41.51    3.30 
   1  -2 -10   18.37    1.62 
  -1   2  10   18.52    1.60 
  -1   2  10   19.23    1.63 
   0  -2 -10   12.83    1.16 
   0   2  10   13.42    1.17 
   0   2  10   12.90    1.15 
   1  -2  10    5.29    0.58 
  -1  -2 -10    5.57    0.58 
   1   2  10    5.13    0.57 
   1   2  10    5.52    0.56 
   2  -2  10   41.96    3.82 
  -2  -2 -10   47.59    3.83 
   2   2  10   48.62    3.83 
  -3  -2 -10    8.05    0.74 
   3  -2  10    7.80    0.75 
   3   2  10    8.03    0.72 
  -3   2 -10    6.04    0.72 
   4  -2  10    6.95    0.76 
  -4  -2 -10    8.33    0.78 
  -4   2 -10    6.07    0.75 
   4   2  10    8.19    0.72 
  -5  -2 -10    0.56    0.27 
   5  -2  10   -0.06    0.24 
  -5   2 -10    0.31    0.25 
   5   2  10   -0.07    0.15 
   6  -2  10    0.27    0.26 
  -6  -2 -10   -0.13    0.27 
   6   2  10   -0.05    0.18 
   7  -2  10   26.72    2.39 
  -7  -2 -10   30.92    2.46 
  -7   2 -10   26.76    2.44 
   8  -2  10    5.37    0.62 
   8  -2  10    4.88    0.67 
  -8  -2 -10    6.81    0.74 
   8   2  10    5.14    0.61 
  -8   2 -10    4.18    0.74 
   9  -2  10    2.84    0.49 
   9  -2  10    2.78    0.45 
  -9  -2 -10    3.08    0.51 
  -9   2 -10    3.89    0.65 
   9   2  10    2.88    0.45 
 -10  -2 -10   45.86    3.48 
  10  -2  10   37.22    3.41 
 -10   2 -10   37.21    3.47 
  10   2  10   42.00    3.42 
 -11  -2 -10    5.08    0.82 
  11  -2  10    5.06    0.69 
  11   2  10    6.07    0.67 
 -11   2 -10    5.28    0.84 
 -12  -2 -10    1.57    0.48 
  12   2  10    1.45    0.54 
  12   2  10    1.73    0.39 
 -12   2 -10    1.16    0.48 
 -13  -2 -10    0.56    0.48 
  13   2  10    0.46    0.60 
 -13   2 -10    0.22    0.49 
  13   2  10    0.70    0.31 
 -14  -2 -10    5.53    0.90 
  14   2  10    3.47    0.64 
 -14   2 -10    3.96    0.74 
  15  -2  10    1.99    0.61 
 -15  -2 -10    1.63    0.63 
  15  -2  10    2.11    0.63 
  15   2  10    1.88    0.79 
 -15   2 -10    2.54    0.71 
  16  -2  10    0.18    0.69 
  16  -2  10    0.00    0.61 
 -16  -2 -10   -0.67    0.62 
  16   2  10   -0.68    0.86 
 -16   2 -10   -0.12    0.64 
 -17  -2 -10    0.21    0.72 
  17  -2  10    0.50    0.71 
  17  -2  10    2.21    0.85 
  17   2  10   -0.59    0.76 
 -17   2 -10   -0.19    0.70 
  16  -3 -10    3.14    0.79 
 -16  -3  10    1.07    1.10 
 -16   3  10    1.15    0.73 
 -16   3  10    1.04    0.64 
 -15  -3  10    2.78    0.90 
  15  -3 -10    3.13    0.74 
 -15   3  10    2.80    0.66 
  14  -3 -10   14.04    1.56 
 -14  -3  10   14.27    1.62 
 -14   3  10   12.67    1.40 
 -14   3  10   12.88    1.39 
  13  -3 -10   59.89    4.89 
 -13  -3  10   59.26    4.90 
 -13   3  10   54.29    4.79 
 -13   3  10   53.52    4.80 
 -13   3  10   58.47    4.90 
 -12  -3  10   16.87    1.70 
  12  -3 -10   15.39    1.60 
 -12   3  10   18.26    1.65 
 -12   3  10   13.54    1.50 
 -12   3  10   14.89    1.49 
  11  -3 -10    5.87    0.93 
 -11  -3  10    7.28    1.06 
 -11   3  10    5.58    0.80 
 -11   3  10    6.79    0.91 
 -11   3  10    6.06    0.78 
  10  -3 -10    1.69    0.48 
 -10  -3  10    3.09    0.68 
 -10   3  10    1.16    0.42 
 -10   3  10    2.65    0.43 
 -10   3  10    1.61    0.45 
   9  -3 -10    4.86    0.72 
  -9  -3  10    6.51    1.01 
  -9   3  10    3.79    0.67 
  -9   3  10    4.28    0.70 
  -9   3  10    4.53    0.67 
  -8  -3  10    3.20    0.67 
  -8   3  10    2.88    0.46 
  -8   3  10    2.61    0.45 
  -8   3  10    2.93    0.45 
   7  -3 -10   -0.33    0.30 
  -7  -3  10    0.80    0.49 
  -7   3  10   -0.08    0.26 
  -7   3  10    0.07    0.29 
  -7   3  10    0.01    0.30 
  -6  -3  10    5.70    0.81 
   6  -3 -10    6.09    0.71 
  -6   3  10    5.52    0.66 
  -6   3  10    4.32    0.68 
  -6   3  10    5.08    0.64 
  -5   3  10   11.46    1.18 
  -5   3  10   12.59    1.13 
  -5   3  10   11.60    1.13 
  -4   3  10   -0.07    0.27 
  -4   3  10   -0.10    0.27 
  -3   3  10    0.37    0.21 
  -3   3  10    0.27    0.27 
  -2   3  10    0.55    0.23 
  -1  -3  10    7.38    0.78 
  -1   3  10    8.20    0.79 
   0  -3  10    1.61    0.31 
   0   3  10    1.35    0.28 
   1  -3  10    3.65    0.54 
   1   3  10    3.82    0.48 
  -2  -3 -10   -0.02    0.24 
   2   3  10    0.29    0.20 
  -3  -3 -10   34.42    2.82 
   3  -3  10   30.04    2.80 
   3   3  10   34.79    2.80 
  -4  -3 -10    1.07    0.28 
   4  -3  10    1.53    0.34 
  -4   3 -10    1.67    0.33 
   4   3  10    0.81    0.26 
  -5  -3 -10    8.66    0.85 
   5  -3  10    6.48    0.85 
   5   3  10    7.87    0.79 
  -5   3 -10    8.02    0.85 
   6  -3  10    5.03    0.77 
   6  -3  10    6.86    0.82 
  -6  -3 -10    8.51    0.83 
   6   3  10    7.49    0.75 
  -6   3 -10    6.06    0.80 
   7  -3  10   -0.33    0.36 
  -7  -3 -10    1.16    0.36 
   7   3  10    0.26    0.27 
  -7   3 -10    0.43    0.37 
  -8  -3 -10    1.58    0.44 
   8  -3  10    0.87    0.44 
   8  -3  10    1.55    0.39 
   8   3  10    0.95    0.43 
  -8   3 -10    2.01    0.42 
   9  -3  10   54.70    5.07 
  -9  -3 -10   69.79    5.14 
   9  -3  10   60.10    5.09 
   9   3  10   62.69    5.12 
  -9   3 -10   56.93    5.10 
  10  -3  10    4.54    0.72 
 -10  -3 -10    4.73    0.76 
  10  -3  10    4.22    0.67 
  10   3  10    4.59    0.65 
 -10   3 -10    3.93    0.67 
  11  -3  10    3.66    0.64 
 -11  -3 -10    6.30    0.97 
  11  -3  10    4.22    0.67 
  11   3  10    4.18    0.66 
 -11   3 -10    4.56    0.85 
  12  -3  10    0.81    0.46 
  12  -3  10    0.62    0.45 
 -12  -3 -10    0.50    0.58 
  12   3  10    0.76    0.35 
 -12   3 -10    0.03    0.46 
 -13  -3 -10   -0.55    0.63 
  13  -3  10   -0.08    0.49 
  13  -3  10    0.18    0.61 
 -13   3 -10   -0.27    0.52 
  13   3  10    0.54    0.51 
  14  -3  10    2.21    0.66 
 -14  -3 -10    1.51    0.75 
  14  -3  10    2.04    0.58 
 -14   3 -10    2.75    0.70 
  14   3  10    2.19    0.67 
  15  -3  10    0.38    0.68 
  15  -3  10   -0.53    0.77 
  15   3  10   -0.85    0.67 
 -15   3 -10   -0.74    0.61 
  14  -4 -10    1.01    0.77 
 -14   4  10   -0.78    0.75 
 -14   4  10    0.61    0.73 
 -14   4  10   -0.05    0.79 
  13  -4 -10   -1.07    0.63 
 -13   4  10   -1.00    0.62 
  12  -4 -10    0.95    0.68 
 -12   4  10    2.23    0.65 
 -12   4  10    2.38    0.63 
 -12   4  10    2.62    0.68 
  11  -4 -10    3.14    0.74 
 -11   4  10    4.97    0.72 
 -11   4  10    4.87    0.79 
 -11   4  10    3.45    0.67 
  10  -4 -10    5.79    0.97 
 -10   4  10    6.74    0.89 
 -10   4  10    6.39    0.94 
   9  -4 -10   -0.29    0.43 
  -9   4  10   -0.11    0.46 
  -9   4  10   -0.08    0.42 
   8  -4 -10    9.19    1.07 
  -8   4  10    8.93    1.01 
  -8   4  10    8.21    1.02 
  -7   4  10    7.30    0.92 
  -7   4  10    8.28    0.92 
   6  -4 -10    8.21    0.96 
  -6   4  10    6.94    0.93 
  -6   4  10    7.98    0.91 
  -5  -4  10    9.03    1.11 
   5  -4 -10   10.66    1.05 
  -5   4  10    7.58    0.97 
  -5   4  10    8.84    0.99 
  -5   4  10    9.42    0.96 
  -4   4  10    5.63    0.74 
  -4   4  10    5.09    0.72 
  -3   4  10   11.77    1.22 
  -3   4  10   13.20    1.25 
  -2   4  10    1.30    0.39 
  -2   4  10    0.57    0.32 
   1  -4 -10    0.21    0.29 
  -1   4  10    0.32    0.41 
  -1   4  10    0.28    0.29 
   0  -4 -10    0.49    0.27 
   0  -4  10   -0.04    0.33 
   0   4  10   -0.23    0.28 
   0   4  10    0.41    0.39 
  -1  -4 -10    3.06    0.48 
   1  -4  10    2.14    0.41 
   1   4  10    2.84    0.47 
   1   4  10    3.69    0.53 
  -2  -4 -10    4.22    0.62 
   2  -4  10    3.07    0.60 
   2   4  10    4.40    0.70 
   2   4  10    4.86    0.64 
  -3  -4 -10    2.75    0.46 
   3  -4  10    2.29    0.45 
   3   4  10    2.70    0.45 
  -4  -4 -10    8.10    0.87 
   4  -4  10    5.31    0.90 
   4  -4  10    5.21    0.80 
   4   4  10    7.51    0.80 
   5  -4  10    1.22    0.40 
   5  -4  10    0.70    0.49 
  -5  -4 -10    1.88    0.43 
   5   4  10    1.16    0.36 
   6  -4  10    7.41    1.05 
   6  -4  10    7.89    1.04 
  -6  -4 -10   10.15    1.08 
   6   4  10   10.34    1.00 
   7  -4  10    1.31    0.61 
  -7  -4 -10    2.54    0.57 
   7  -4  10    2.19    0.53 
   7   4  10    2.87    0.48 
  -7   4 -10    2.53    0.49 
   8  -4  10   -0.58    0.67 
  -8  -4 -10    0.70    0.57 
   8  -4  10   -0.27    0.46 
  -8   4 -10   -0.08    0.43 
   8   4  10   -0.35    0.36 
  -9  -4 -10    2.62    0.70 
   9  -4  10    1.03    0.67 
   9  -4  10    2.09    0.60 
   9   4  10    1.75    0.46 
  -9   4 -10    2.42    0.52 
 -10  -4 -10    1.04    0.74 
  10  -4  10    0.68    0.62 
  10  -4  10    0.51    0.60 
 -10   4 -10    0.77    0.47 
  10   4  10    1.14    0.42 
  11  -4  10    2.80    0.83 
  11  -4  10    2.64    0.87 
 -11  -4 -10    3.99    0.91 
  11   4  10    4.11    0.70 
 -11   4 -10    2.94    0.63 
  12  -4  10   -0.45    0.81 
  12  -4  10   -0.66    0.76 
 -12  -4 -10    0.89    0.86 
 -12   4 -10    0.68    0.52 
  12   4  10   -0.60    0.60 
  13  -4  10   -0.09    0.86 
  13  -4  10   -0.48    0.86 
 -13  -4 -10   -0.21    0.95 
 -13   4 -10   -0.92    0.53 
  13   4  10    0.73    0.69 
  11  -5 -10    1.33    0.70 
 -11   5  10   -0.19    0.72 
 -11   5  10    1.80    0.74 
 -11   5  10    1.09    0.75 
  10  -5 -10    0.39    0.59 
 -10   5  10   -0.15    0.69 
 -10   5  10    2.34    0.71 
 -10   5  10    1.02    0.68 
   9  -5 -10    0.55    0.61 
  -9   5  10    1.25    0.66 
  -9   5  10    1.55    0.62 
  -9   5  10    1.19    0.63 
   8  -5 -10   -0.32    0.49 
  -8   5  10   -0.85    0.52 
  -8   5  10    0.04    0.53 
  -8   5  10   -0.05    0.58 
   7  -5 -10    1.30    0.57 
  -7   5  10    1.44    0.55 
  -7   5  10    1.36    0.54 
  -7   5  10    1.48    0.64 
  -6   5  10    4.13    0.73 
  -6   5  10    3.36    0.65 
  -5   5  10   -0.26    0.47 
  -5   5  10    0.61    0.58 
  -4   5  10    3.17    0.66 
  -4   5  10    2.28    0.56 
  -3   5  10   10.63    1.26 
  -2  -5  10    0.19    0.37 
  -2   5  10    2.16    0.57 
  -1  -5  10    0.07    0.34 
  -1   5  10   -0.38    0.48 
   0  -5  10   -0.22    0.35 
   0  -5 -10    0.26    0.37 
   0   5  10   -0.35    0.46 
   0   5  10    0.17    0.41 
  -1  -5 -10    0.51    0.37 
   1  -5  10    0.29    0.77 
   1  -5  10    0.15    0.39 
   1   5  10    0.75    0.48 
   1   5  10    0.09    0.44 
   2  -5  10    0.93    0.46 
  -2  -5 -10    1.46    0.47 
   2  -5  10    0.34    0.65 
   2   5  10    1.60    0.49 
   2   5  10    1.57    0.49 
  -3  -5 -10    2.82    0.60 
   3   5  10    2.78    0.56 
   3   5  10    3.26    0.58 
   4  -5  10    1.06    0.54 
   4  -5  10   -0.71    0.72 
  -4  -5 -10    0.77    0.53 
   4   5  10    0.89    0.47 
   4   5  10    1.20    0.47 
   5  -5  10    0.36    0.51 
   5  -5  10   -0.38    0.73 
  -5  -5 -10   -0.06    0.55 
   5   5  10   -0.20    0.46 
   5   5  10    0.31    0.48 
   6  -5  10    7.41    1.30 
   6  -5  10    9.30    1.28 
   7  -5  10    1.48    0.72 
  -7  -5 -10    1.79    0.76 
   7  -5  10    0.08    0.74 
   7   5  10    2.18    0.57 
   7   5  10    1.56    0.55 
   8  -5  10    1.45    0.80 
   8  -5  10    0.13    0.89 
  -8  -5 -10    2.41    0.77 
   8   5  10    1.93    0.53 
   8   5  10    2.25    0.58 
   9  -5  10    0.03    0.97 
   9  -5  10   -0.56    0.84 
  -9  -5 -10    1.00    0.84 
   9   5  10    0.13    0.50 
   9   5  10    0.26    0.69 
  -9   5 -10   -0.09    0.49 
 -10  -5 -10    0.10    0.89 
  10  -5  10   -1.35    1.00 
  10  -5  10   -0.56    0.94 
  10   5  10    0.11    0.57 
  10   5  10    0.81    0.51 
  -3   6  10   36.31    3.41 
  -3   6  10   40.55    3.42 
  -2  -6  10    2.63    0.65 
  -2   6  10    0.67    0.68 
  -2   6  10    0.83    0.62 
  -1  -6  10    1.45    0.67 
  -1   6  10   -0.10    0.64 
  -1   6  10    1.01    0.65 
   0   6  10   -0.29    0.66 
   0   6  10   -0.11    0.63 
   1  -6  10    3.12    0.82 
   1   6  10    2.88    0.68 
   2  -6  10    0.62    0.76 
  -2  -6 -10   -0.81    0.65 
   2   6  10    0.55    0.60 
 -18   0  11   -0.38    0.97 
  18   0 -11    0.05    0.66 
 -18   0  11   -1.29    1.07 
 -17   0  11    0.53    0.91 
  17   0 -11    0.57    0.55 
 -17   0  11    0.19    0.67 
  16   0 -11   -0.11    0.46 
 -16   0  11   -0.20    0.53 
 -16   0  11   -0.23    0.84 
 -15   0  11   -0.39    0.46 
  15   0 -11   -0.81    0.42 
 -15   0  11   -1.48    0.72 
 -14   0  11    0.38    0.63 
 -14   0  11    0.46    0.41 
 -13   0  11   -0.39    0.34 
 -13   0  11   -0.08    0.58 
  13   0 -11   -0.21    0.32 
  12   0 -11   -0.52    0.28 
 -12   0  11   -0.17    0.33 
 -12   0  11   -0.05    0.54 
 -11   0  11    0.31    0.35 
  11   0 -11    0.19    0.27 
 -11   0  11    0.07    0.33 
  10   0 -11    0.02    0.24 
 -10   0  11    0.00    0.29 
   9   0 -11    0.00    0.24 
  -9   0  11    0.02    0.29 
  -8   0  11    0.00    0.24 
  -7   0  11    0.26    0.26 
  -7   0  11    0.26    0.24 
  -6   0  11    0.49    0.26 
  -6   0  11    0.17    0.23 
  -5   0  11    0.45    0.22 
  -5   0  11   -0.19    0.21 
  -4   0  11   -0.06    0.19 
  -4   0  11    0.20    0.20 
  -3   0  11   -0.12    0.16 
  -3   0  11   -0.22    0.18 
  -2   0  11    0.01    0.15 
  -2   0  11   -0.24    0.18 
  -1   0  11   -0.13    0.16 
   1   0 -11    0.18    0.14 
   0   0 -11    0.22    0.15 
   0   0  11    0.04    0.16 
   1   0  11   -0.19    0.15 
  -1   0 -11   -0.03    0.15 
  -2   0 -11   -0.07    0.16 
   2   0  11    0.03    0.15 
  -3   0 -11   -0.04    0.18 
   3   0  11    0.12    0.13 
  -4   0 -11    0.23    0.20 
   4   0  11    0.14    0.14 
  -5   0 -11    1.14    0.32 
   5   0  11    1.99    0.31 
  -6   0 -11   -0.16    0.25 
   6   0  11   -0.17    0.15 
   7   0  11   -0.03    0.17 
  -7   0 -11   -0.25    0.26 
   8   0  11    0.04    0.19 
  -8   0 -11    0.14    0.28 
   9   0  11   -0.22    0.18 
  -9   0 -11    0.10    0.28 
  10   0  11    0.01    0.20 
  10   0  11   -0.33    0.46 
 -10   0 -11   -0.37    0.32 
 -11   0 -11    0.03    0.35 
  11   0  11   -0.45    0.35 
  11   0  11    0.23    0.26 
  12   0  11    0.12    0.42 
 -12   0 -11   -0.19    0.36 
  12   0  11    0.08    0.26 
 -13   0 -11   -0.63    0.40 
  13   0  11   -0.08    0.46 
  14   0  11   -0.18    0.27 
 -14   0 -11   -0.09    0.42 
  15   0  11    0.30    0.65 
 -15   0 -11   -0.17    0.47 
  15   0  11   -0.53    0.47 
  16   0  11   -0.25    0.61 
  16   0  11   -0.21    0.70 
 -16   0 -11    0.12    0.54 
  17   0  11   -0.52    0.67 
 -17   0 -11    0.69    0.62 
  17   0  11   -0.36    0.79 
  18  -1 -11    1.08    0.68 
 -18  -1  11   -0.07    1.05 
 -18  -1  11   -0.09    1.06 
  18   1 -11    0.98    0.71 
 -18   1  11   -0.20    1.09 
 -18   1  11    0.68    0.64 
 -17  -1  11    0.04    0.93 
 -17  -1  11   -0.97    0.82 
 -17   1  11    0.13    0.52 
 -17   1  11    0.10    0.95 
  17   1 -11   -0.02    0.61 
 -16  -1  11   -0.48    0.82 
  16  -1 -11   -0.23    0.48 
 -16  -1  11    0.19    0.69 
 -16   1  11   -0.69    0.79 
 -16   1  11    0.13    0.46 
  16   1 -11    0.06    0.54 
 -15  -1  11    3.96    0.85 
 -15  -1  11    2.79    0.85 
 -15   1  11    3.10    0.55 
 -15   1  11    4.15    0.83 
  15   1 -11    1.99    0.72 
 -14  -1  11   -0.35    0.47 
 -14  -1  11   -0.54    0.65 
 -14   1  11    0.35    0.65 
 -14   1  11   -0.44    0.36 
 -13  -1  11    0.73    0.53 
 -13  -1  11    0.21    0.58 
 -13   1  11   -0.11    0.33 
 -13   1  11   -0.12    0.55 
  13   1 -11    0.02    0.38 
 -12  -1  11   -0.11    0.54 
 -12  -1  11    1.32    0.52 
 -12   1  11    0.37    0.38 
 -12   1  11    1.06    0.51 
  12   1 -11    0.56    0.39 
 -11  -1  11    0.68    0.46 
  11  -1 -11    0.85    0.40 
 -11   1  11    0.93    0.37 
 -11   1  11    0.79    0.33 
 -10  -1  11    5.09    0.75 
  10  -1 -11    4.79    0.64 
 -10   1  11    5.02    0.67 
  -9   1  11    1.21    0.34 
   8  -1 -11    4.34    0.53 
  -8  -1  11    2.82    0.51 
  -8   1  11    2.95    0.63 
  -8   1  11    4.34    0.63 
   7  -1 -11    1.69    0.34 
  -7  -1  11    1.43    0.37 
  -7   1  11    2.00    0.33 
  -7   1  11    1.48    0.37 
  -6  -1  11    0.70    0.28 
  -6  -1  11    0.63    0.25 
  -6   1  11    0.76    0.27 
  -6   1  11    0.76    0.27 
  -5  -1  11   -0.01    0.20 
  -5  -1  11    0.02    0.18 
  -5   1  11   -0.24    0.22 
  -5   1  11    0.11    0.19 
  -4  -1  11    1.18    0.29 
  -4  -1  11    2.31    0.34 
  -4   1  11    1.96    0.34 
  -4   1  11    1.51    0.28 
  -3  -1  11   14.82    1.45 
  -3   1  11   18.20    1.45 
  -3   1  11   16.91    1.48 
   2  -1 -11    5.77    0.63 
  -2  -1  11    6.40    0.63 
  -2   1  11    6.48    0.68 
  -1  -1  11    5.36    0.57 
   1  -1 -11    5.51    0.58 
  -1   1  11    5.86    0.60 
   0  -1  11    1.73    0.33 
   0  -1 -11    1.97    0.33 
   0   1 -11    1.79    0.30 
   0   1  11    2.37    0.34 
  -1  -1 -11   22.70    1.96 
   1  -1  11   21.63    1.95 
   1   1  11   26.84    1.97 
  -1   1 -11   21.12    1.93 
   2  -1  11   16.72    1.46 
  -2  -1 -11   16.94    1.46 
   2   1  11   19.88    1.48 
  -2   1 -11   14.33    1.44 
   3  -1  11    8.12    0.76 
  -3   1 -11    7.23    0.76 
   3   1  11    8.43    0.76 
   4  -1  11    9.31    0.91 
   4   1  11   11.51    0.90 
  -4   1 -11    8.17    0.92 
   5  -1  11    9.05    0.88 
  -5   1 -11    8.93    0.93 
   5   1  11    9.74    0.86 
  -6  -1 -11   18.08    1.49 
   6  -1  11   14.52    1.43 
   6   1  11   18.88    1.44 
  -6   1 -11   13.84    1.48 
   7  -1  11    3.15    0.48 
  -7  -1 -11    4.39    0.62 
   7   1  11    3.24    0.44 
  -7   1 -11    3.59    0.53 
   8  -1  11    1.23    0.28 
  -8  -1 -11    1.10    0.34 
  -8   1 -11    1.47    0.37 
   8   1  11    0.93    0.26 
  -9  -1 -11    2.00    0.43 
   9  -1  11    1.93    0.34 
   9  -1  11    1.47    0.32 
   9   1  11    1.98    0.32 
 -10  -1 -11    0.59    0.37 
  10  -1  11    0.98    0.29 
  10  -1  11    1.08    0.31 
  10   1  11    1.23    0.38 
 -10   1 -11    0.54    0.39 
  10   1  11    0.68    0.26 
 -11  -1 -11    1.59    0.48 
  11  -1  11    1.66    0.40 
 -11   1 -11    1.55    0.46 
  11   1  11    1.41    0.46 
  11   1  11    1.94    0.35 
 -12  -1 -11    0.42    0.41 
  12  -1  11   -0.05    0.45 
 -12   1 -11    0.48    0.43 
  12   1  11   -0.39    0.47 
  12   1  11    0.00    0.27 
 -13  -1 -11    1.41    0.49 
  13   1  11    1.24    0.57 
 -13   1 -11    2.25    0.52 
 -14  -1 -11   -0.48    0.45 
  14  -1  11    1.01    0.50 
 -14   1 -11    0.50    0.50 
  14   1  11   -0.15    0.58 
  15  -1  11    2.60    0.62 
 -15  -1 -11    2.86    0.68 
  15  -1  11    3.31    0.68 
 -15   1 -11    3.79    0.71 
  15   1  11    2.34    0.61 
 -16  -1 -11    1.64    0.67 
  16  -1  11    0.71    0.62 
  16  -1  11    1.63    0.73 
 -16   1 -11    2.67    0.70 
  16   1  11    1.13    0.64 
  16   1  11    3.12    0.96 
  17  -1  11    0.75    0.73 
  17  -1  11    1.16    0.84 
 -17  -1 -11   -0.97    0.63 
 -17   1 -11    0.52    0.69 
  17   1  11    0.34    0.94 
  17   1  11   -0.28    0.67 
  17  -2 -11    1.05    0.70 
 -17  -2  11    1.17    0.98 
 -17  -2  11    0.57    1.23 
 -17   2  11   -1.30    0.89 
 -17   2  11    0.87    0.58 
 -16  -2  11    0.47    1.13 
  16  -2 -11    4.44    0.80 
 -16  -2  11    3.89    1.01 
 -16   2  11    6.28    1.07 
 -16   2  11    3.03    0.66 
  15  -2 -11    0.21    0.52 
 -15  -2  11   -0.01    0.74 
 -15  -2  11   -0.13    0.71 
 -15   2  11   -0.46    0.41 
 -15   2  11   -0.23    0.71 
 -14  -2  11   -0.29    0.60 
  14  -2 -11    0.45    0.43 
 -14   2  11   -0.44    0.64 
 -14   2  11    0.37    0.43 
 -13  -2  11   15.69    1.59 
  13  -2 -11   12.00    1.39 
 -13   2  11   12.66    1.30 
 -13   2  11   13.82    1.39 
  12  -2 -11    2.08    0.50 
 -12  -2  11    3.12    0.67 
 -12   2  11    3.13    0.58 
 -12   2  11    2.23    0.45 
  11  -2 -11   12.04    1.36 
 -11  -2  11   13.70    1.49 
 -11   2  11   16.02    1.47 
 -11   2  11   13.42    1.29 
 -11   2  11   14.85    1.36 
  10  -2 -11   -0.34    0.30 
 -10   2  11    0.17    0.41 
 -10   2  11   -0.20    0.30 
 -10   2  11   -0.06    0.31 
   9  -2 -11   25.82    2.30 
  -9   2  11   26.39    2.27 
  -9   2  11   26.00    2.27 
  -9   2  11   27.41    2.34 
  -8  -2  11    2.85    0.56 
   8  -2 -11    2.34    0.54 
  -8   2  11    2.68    0.42 
  -8   2  11    2.04    0.39 
  -7  -2  11    4.24    0.77 
   7  -2 -11    5.67    0.64 
  -7   2  11    4.15    0.63 
  -7   2  11    4.64    0.58 
  -7   2  11    4.59    0.67 
  -6  -2  11    1.66    0.40 
   6  -2 -11    1.83    0.38 
  -6   2  11    1.70    0.36 
  -6   2  11    2.01    0.38 
  -5  -2  11    1.28    0.32 
  -5   2  11    1.34    0.32 
  -5   2  11    1.39    0.31 
  -4  -2  11    3.14    0.50 
  -4   2  11    2.77    0.46 
  -4   2  11    2.32    0.38 
  -3   2  11    6.05    0.68 
  -3   2  11    6.45    0.66 
  -2  -2  11    4.20    0.51 
   2  -2 -11    4.70    0.53 
  -2   2  11    4.59    0.55 
  -2   2  11    4.96    0.57 
   1  -2 -11    8.61    0.80 
  -1   2  11    7.89    0.80 
  -1   2  11    8.26    0.81 
   0  -2 -11   11.42    1.06 
   0   2  11   11.43    1.07 
   0   2  11   12.08    1.05 
   1  -2  11    0.21    0.21 
  -1  -2 -11    0.28    0.16 
   1   2  11    0.21    0.18 
   1   2  11   -0.07    0.15 
  -2  -2 -11   -0.04    0.18 
   2  -2  11    0.34    0.22 
   2   2  11    0.17    0.17 
   3  -2  11   29.31    2.68 
  -3  -2 -11   33.11    2.69 
   3   2  11   32.73    2.67 
   4  -2  11   31.79    2.62 
  -4  -2 -11   30.81    2.62 
   4   2  11   29.73    2.59 
   5  -2  11   87.72    7.24 
  -5   2 -11   79.22    7.22 
   5   2  11   96.51    7.23 
  -6  -2 -11   36.49    2.75 
   6  -2  11   27.96    2.71 
  -6   2 -11   27.86    2.73 
   6   2  11   35.65    2.70 
   7  -2  11    1.70    0.38 
  -7  -2 -11    2.09    0.42 
   7   2  11    2.29    0.46 
  -7   2 -11    2.00    0.41 
   8  -2  11   11.01    1.08 
  -8  -2 -11   12.96    1.19 
   8  -2  11    9.89    1.09 
  -8   2 -11   10.29    1.19 
   8   2  11   12.54    1.07 
   9  -2  11    0.97    0.31 
  -9  -2 -11    1.11    0.39 
   9   2  11    0.30    0.27 
  10  -2  11    3.96    0.55 
 -10  -2 -11    4.33    0.77 
  10   2  11    4.24    0.58 
 -10   2 -11    3.66    0.63 
  10   2  11    4.17    0.66 
  11  -2  11    8.67    1.02 
 -11  -2 -11    9.08    1.14 
  11   2  11   12.41    1.10 
 -11   2 -11    9.12    1.19 
  11   2  11   10.62    1.01 
 -12  -2 -11    4.91    0.88 
 -12   2 -11    6.14    0.99 
  12   2  11    6.13    0.71 
 -13  -2 -11    0.51    0.48 
 -13   2 -11    1.60    0.54 
  13   2  11    1.33    0.48 
  14  -2  11    4.65    0.71 
 -14  -2 -11    3.48    0.70 
 -14   2 -11    3.47    0.77 
  14   2  11    3.81    0.79 
  15  -2  11    4.29    0.83 
  15  -2  11    5.28    0.88 
 -15  -2 -11    6.89    1.06 
 -15   2 -11    7.16    1.19 
  16  -2  11    0.05    0.71 
 -16  -2 -11    0.67    0.66 
  16  -2  11    0.21    0.66 
 -16   2 -11    0.31    0.64 
  16   2  11    0.05    1.21 
  16   2  11   -0.82    0.64 
 -16  -3  11    0.65    1.18 
  16  -3 -11    0.59    0.81 
 -16   3  11   -1.27    1.03 
 -16   3  11    1.30    0.67 
 -15  -3  11    2.94    0.92 
  15  -3 -11    2.29    0.85 
 -15   3  11    3.17    0.77 
 -15   3  11    3.51    0.90 
 -15   3  11    2.01    0.66 
 -14  -3  11    0.11    0.68 
  14  -3 -11   -0.24    0.65 
 -14   3  11   -0.29    0.55 
 -14   3  11    1.77    0.73 
 -14   3  11    1.07    0.64 
  13  -3 -11   -0.08    0.53 
 -13  -3  11    0.69    0.65 
 -13   3  11   -0.56    0.49 
 -13   3  11   -0.04    0.61 
 -13   3  11    0.13    0.62 
  12  -3 -11   -0.09    0.48 
 -12  -3  11    0.54    0.61 
 -12   3  11    0.18    0.38 
 -12   3  11   -0.77    0.49 
 -12   3  11   -0.10    0.42 
 -11  -3  11    0.37    0.55 
  11  -3 -11   -0.38    0.44 
 -11   3  11    0.07    0.43 
 -11   3  11    0.20    0.36 
 -11   3  11   -0.39    0.43 
  10  -3 -11   -0.18    0.45 
 -10  -3  11    1.91    0.57 
 -10   3  11    0.59    0.39 
 -10   3  11   -0.22    0.36 
   9  -3 -11    5.70    0.75 
  -9  -3  11    7.47    1.30 
  -9   3  11    4.37    0.66 
  -9   3  11    4.26    0.72 
  -9   3  11    3.59    0.67 
  -8  -3  11   -0.39    0.59 
   8  -3 -11    0.20    0.38 
  -8   3  11   -0.39    0.30 
  -8   3  11    0.37    0.31 
  -8   3  11    0.13    0.34 
   7  -3 -11    0.54    0.38 
  -7  -3  11    0.14    0.52 
  -7   3  11    0.04    0.34 
  -7   3  11    0.44    0.31 
  -7   3  11    0.94    0.33 
  -6  -3  11    0.01    0.40 
   6  -3 -11   -0.08    0.35 
  -6   3  11   -0.37    0.25 
  -6   3  11   -0.04    0.29 
  -6   3  11   -0.30    0.28 
  -5  -3  11    4.73    0.79 
  -5   3  11    5.66    0.71 
  -5   3  11    6.29    0.72 
  -5   3  11    5.99    0.71 
  -4   3  11    4.96    0.63 
  -4   3  11    4.64    0.63 
  -4   3  11    4.90    0.64 
  -3   3  11   13.16    1.20 
  -3   3  11   12.74    1.22 
   2  -3 -11   20.04    1.69 
  -2   3  11   18.75    1.66 
  -2   3  11   18.30    1.76 
   1  -3 -11   16.29    1.44 
  -1  -3  11   14.75    1.42 
  -1   3  11   17.02    1.42 
   0  -3  11    0.30    0.25 
   0  -3 -11   -0.04    0.22 
  -1  -3 -11    1.98    0.37 
   2  -3  11   24.25    2.14 
  -2  -3 -11   24.91    2.14 
  -3  -3 -11    0.03    0.26 
   3  -3  11    0.60    0.31 
  -4  -3 -11    1.70    0.36 
   5  -3  11   13.32    1.40 
  -5  -3 -11   16.52    1.40 
   5   3  11   14.41    1.34 
  -5   3 -11   14.45    1.40 
  -6  -3 -11    8.10    0.84 
   6  -3  11    5.39    0.85 
   6   3  11    6.77    0.76 
  -6   3 -11    7.55    0.86 
   7  -3  11    8.88    1.07 
  -7  -3 -11   12.43    1.14 
   7  -3  11    9.03    1.08 
  -7   3 -11   10.32    1.11 
   7   3  11   11.72    1.04 
   8  -3  11    2.08    0.45 
  -8  -3 -11    1.91    0.42 
   8  -3  11    1.59    0.47 
   8   3  11    1.41    0.36 
  -8   3 -11    1.48    0.46 
   9  -3  11    3.74    0.60 
   9  -3  11    2.70    0.55 
  -9  -3 -11    5.32    0.80 
   9   3  11    3.40    0.61 
  -9   3 -11    3.58    0.64 
  10  -3  11    2.71    0.63 
 -10  -3 -11    2.63    0.63 
  10  -3  11    3.54    0.61 
  10   3  11    3.89    0.60 
 -10   3 -11    3.43    0.62 
 -11  -3 -11    2.87    0.68 
  11  -3  11    2.48    0.63 
  11  -3  11    3.24    0.62 
 -11   3 -11    3.84    0.64 
  11   3  11    4.32    0.63 
  12  -3  11    3.46    0.64 
  12  -3  11    3.66    0.71 
 -12  -3 -11    4.58    0.81 
  12   3  11    4.86    0.71 
 -12   3 -11    5.74    0.95 
  13  -3  11    0.81    0.60 
 -13  -3 -11    1.31    0.68 
  13  -3  11    1.38    0.67 
  13   3  11    0.95    0.46 
 -13   3 -11    1.48    0.59 
  14  -3  11    0.53    0.70 
 -14  -3 -11    0.24    0.70 
  14  -3  11    0.19    0.70 
 -14   3 -11    1.08    0.62 
 -15  -3 -11   -0.33    0.81 
  15  -3  11   -0.41    0.74 
  15  -3  11   -0.67    0.76 
 -15   3 -11    1.32    0.66 
  13  -4 -11    1.16    0.72 
 -13   4  11    0.94    0.77 
 -13   4  11    1.88    0.71 
 -13   4  11    1.57    0.70 
  12  -4 -11    0.44    0.62 
 -12   4  11    0.74    0.58 
 -12   4  11    1.17    0.64 
 -12   4  11    2.18    0.68 
 -11  -4  11   -0.25    0.59 
  11  -4 -11   -0.91    0.57 
 -11   4  11    0.38    0.50 
 -11   4  11   -0.45    0.54 
 -11   4  11    0.14    0.46 
  10  -4 -11    2.07    0.61 
 -10   4  11    2.06    0.52 
 -10   4  11    3.38    0.57 
 -10   4  11    2.51    0.61 
  -9  -4  11    2.27    0.80 
   9  -4 -11    0.03    0.50 
  -9   4  11    1.55    0.48 
  -9   4  11    0.95    0.49 
   8  -4 -11    3.84    0.65 
  -8   4  11    4.17    0.64 
  -8   4  11    4.58    0.73 
   7  -4 -11    1.98    0.51 
  -7   4  11    1.17    0.46 
  -7   4  11    1.50    0.47 
   6  -4 -11    0.28    0.49 
  -6  -4  11    0.25    0.50 
  -6   4  11   -0.05    0.37 
  -6   4  11   -0.29    0.37 
  -5  -4  11    1.77    0.63 
  -5   4  11    2.17    0.43 
  -5   4  11    2.33    0.46 
  -4  -4  11    1.22    0.47 
  -4   4  11   -0.63    0.34 
  -4   4  11   -0.11    0.30 
  -4   4  11   -0.04    0.39 
  -3   4  11    6.91    0.87 
  -3   4  11    8.95    0.93 
  -2   4  11    0.87    0.36 
  -2   4  11    1.17    0.42 
   1  -4 -11    0.50    0.30 
  -1  -4  11    1.30    0.40 
  -1   4  11    0.90    0.35 
  -1   4  11    0.60    0.40 
   0  -4  11    5.17    0.70 
   0  -4 -11    5.26    0.67 
   0   4  11    4.80    0.71 
   0   4  11    5.92    0.80 
  -1  -4 -11    5.52    0.75 
   1  -4  11    5.78    0.80 
   1   4  11    6.26    0.76 
   1   4  11    5.39    0.79 
   2  -4  11    3.33    0.54 
  -2  -4 -11    3.84    0.61 
   2   4  11    3.44    0.53 
   3  -4  11    0.16    0.31 
  -3  -4 -11    0.05    0.29 
   3   4  11    0.29    0.32 
   4  -4  11    7.13    1.00 
  -4  -4 -11   10.67    1.04 
   4   4  11    9.95    1.01 
   5  -4  11    4.85    0.88 
  -5  -4 -11    6.23    0.85 
   5   4  11    6.30    0.79 
   6  -4  11   17.96    1.90 
  -6  -4 -11   23.50    1.94 
   7  -4  11   -0.53    0.56 
  -7  -4 -11    0.23    0.45 
   7  -4  11   -0.15    0.43 
  -7   4 -11    0.75    0.39 
   7   4  11    0.08    0.38 
   8  -4  11    0.52    0.67 
  -8  -4 -11    3.01    0.67 
   8  -4  11    2.12    0.59 
   8   4  11    2.44    0.48 
  -8   4 -11    1.50    0.49 
   9  -4  11    1.05    0.58 
   9  -4  11    0.72    0.71 
  -9  -4 -11    2.19    0.76 
   9   4  11    1.84    0.50 
  -9   4 -11    0.83    0.49 
 -10  -4 -11    0.89    0.71 
  10  -4  11   -1.03    0.70 
  10  -4  11    0.92    0.63 
 -10   4 -11    0.34    0.51 
  10   4  11    0.97    0.43 
  11  -4  11    0.62    0.77 
 -11  -4 -11    1.14    0.80 
  11  -4  11   -0.11    0.74 
 -11   4 -11    0.79    0.54 
  11   4  11    1.18    0.46 
  12  -4  11    1.75    0.98 
 -12  -4 -11    1.95    0.97 
  12  -4  11    2.48    0.80 
 -12   4 -11    3.19    0.71 
  12   4  11    3.44    0.58 
  10  -5 -11    0.61    0.67 
 -10   5  11    1.24    0.69 
 -10   5  11    1.88    0.68 
 -10   5  11    0.51    0.71 
   9  -5 -11    2.05    0.72 
  -9   5  11    1.93    0.68 
  -9   5  11    3.24    0.71 
  -9   5  11    2.58    0.77 
   8  -5 -11    3.04    0.70 
  -8   5  11    2.90    0.67 
  -8   5  11    2.12    0.68 
  -8   5  11    1.43    0.63 
   7  -5 -11    0.34    0.62 
  -7   5  11    0.36    0.52 
  -7   5  11   -0.06    0.61 
  -7   5  11    0.46    0.53 
  -6   5  11    1.99    0.58 
  -6   5  11    1.75    0.67 
  -5  -5  11    0.76    0.68 
  -5   5  11   -0.04    0.47 
  -5   5  11    0.26    0.62 
  -4  -5  11    1.49    0.74 
  -4   5  11    1.23    0.58 
  -4   5  11    0.40    0.48 
  -3   5  11    0.11    0.46 
  -3   5  11    0.00    0.53 
  -2   5  11    3.61    0.67 
  -2   5  11    3.93    0.71 
  -1  -5  11    0.36    0.41 
  -1   5  11    2.32    0.57 
   0  -5 -11   -0.40    0.39 
   0  -5  11    0.06    0.38 
   0   5  11    0.42    0.50 
   1  -5  11    0.92    0.45 
  -1  -5 -11    1.18    0.42 
   1   5  11    1.58    0.52 
   2  -5  11    2.81    0.90 
   2  -5  11    3.18    0.62 
   2   5  11    4.87    0.68 
   3  -5  11    0.66    0.81 
   3  -5  11    0.48    0.49 
  -3  -5 -11   -0.52    0.46 
   3   5  11    0.79    0.50 
   3   5  11    0.23    0.49 
  -4  -5 -11    5.67    0.97 
   4  -5  11    4.21    0.78 
   4  -5  11    3.17    1.00 
   4   5  11    5.26    0.75 
   4   5  11    6.93    0.91 
   5  -5  11    8.21    1.33 
  -5  -5 -11   11.42    1.35 
   5   5  11   10.13    1.24 
   5   5  11   12.14    1.26 
   6  -5  11   -1.15    0.94 
  -6  -5 -11   -0.47    0.65 
   6  -5  11   -0.01    0.61 
   6   5  11    0.43    0.53 
   6   5  11   -0.22    0.54 
  -7  -5 -11    0.99    0.73 
   7  -5  11   -1.40    0.97 
   7  -5  11    0.87    0.69 
   7   5  11    1.14    0.58 
   7   5  11    1.76    0.57 
   8  -5  11    0.72    0.79 
  -8  -5 -11    1.39    0.77 
   8  -5  11    0.31    0.99 
   8   5  11    1.67    0.62 
   8   5  11    2.12    0.63 
   9  -5  11    1.74    0.97 
  -9  -5 -11    1.41    0.86 
   9  -5  11   -0.30    0.91 
   9   5  11    0.44    0.70 
   9   5  11    0.70    0.60 
  18   0 -12    1.01    0.70 
 -18   0  12    1.55    0.85 
 -18   0  12    0.18    1.21 
 -17   0  12    3.02    0.81 
 -17   0  12    3.36    1.09 
  17   0 -12    2.68    0.74 
 -16   0  12    5.15    1.07 
 -16   0  12    2.83    0.75 
  16   0 -12    3.52    0.70 
 -15   0  12   -0.56    0.46 
 -15   0  12    1.18    0.78 
  15   0 -12    0.41    0.47 
 -14   0  12    7.47    1.11 
  14   0 -12    7.81    1.00 
 -14   0  12    8.56    0.99 
 -13   0  12    0.51    0.40 
 -13   0  12    0.94    0.61 
 -12   0  12   84.55    6.77 
  12   0 -12   78.41    6.86 
 -11   0  12    0.70    0.34 
  11   0 -12    1.05    0.32 
 -10   0  12   36.29    2.95 
  10   0 -12   32.68    2.96 
  -9   0  12    6.44    0.75 
  -8   0  12    7.81    0.81 
  -8   0  12    5.94    0.82 
  -7   0  12    0.44    0.32 
  -7   0  12    0.00    0.27 
  -6   0  12    3.67    0.52 
  -6   0  12    2.95    0.54 
  -5   0  12    1.32    0.31 
  -5   0  12    1.24    0.28 
  -4   0  12   25.10    1.94 
  -4   0  12   19.61    1.94 
  -3   0  12    8.04    0.75 
  -3   0  12    6.74    0.77 
  -2   0  12   36.46    2.75 
  -2   0  12   28.67    2.75 
  -1   0  12   11.47    1.10 
   1   0 -12   12.62    1.08 
   0   0 -12    2.50    0.37 
   0   0  12    2.34    0.39 
  -1   0 -12    0.49    0.20 
   1   0  12    0.40    0.18 
   2   0  12    1.77    0.30 
  -2   0 -12    1.51    0.28 
  -3   0 -12    1.55    0.30 
   3   0  12    1.43    0.26 
   4   0  12    0.81    0.23 
  -4   0 -12    1.01    0.28 
  -5   0 -12    0.06    0.25 
   5   0  12    0.24    0.19 
   6   0  12   16.94    1.65 
  -6   0 -12   21.87    1.75 
   7   0  12    1.07    0.25 
  -7   0 -12    1.11    0.38 
  -8   0 -12   11.40    1.26 
   8   0  12   13.57    1.17 
  -9   0 -12    3.95    0.68 
   9   0  12    2.84    0.46 
 -10   0 -12    3.14    0.57 
  10   0  12    2.59    0.45 
 -11   0 -12    0.67    0.38 
  11   0  12   -0.14    0.35 
 -12   0 -12   17.67    1.64 
  12   0  12   15.50    1.53 
  13   0  12    0.05    0.26 
 -13   0 -12   -0.23    0.44 
  14   0  12    0.29    0.32 
 -14   0 -12   -0.79    0.51 
  15   0  12    3.70    0.70 
 -15   0 -12    4.73    0.80 
  15   0  12    5.82    0.91 
 -16   0 -12    2.09    0.73 
  16   0  12    1.46    0.77 
  16   0  12    1.22    0.64 
  17   0  12    0.84    0.73 
 -17   0 -12    3.19    0.82 
 -17  -1  12    1.34    0.97 
 -17  -1  12    1.57    1.05 
  17  -1 -12    0.93    0.64 
  17   1 -12    1.63    0.72 
 -17   1  12    3.35    1.05 
 -17   1  12    1.40    0.61 
  16  -1 -12   -0.32    0.52 
 -16  -1  12    0.81    0.78 
 -16  -1  12    0.44    0.92 
  16   1 -12    0.48    0.62 
 -16   1  12    0.14    0.94 
 -16   1  12    0.17    0.57 
 -15  -1  12    2.88    0.86 
 -15  -1  12    2.21    0.71 
 -15   1  12    1.73    0.55 
 -15   1  12    2.66    0.83 
  15   1 -12    0.85    0.56 
 -14  -1  12    0.91    1.14 
 -14  -1  12    0.95    0.61 
 -14   1  12    1.53    0.67 
 -14   1  12    1.02    0.43 
 -13  -1  12    3.98    0.80 
 -13  -1  12    4.91    0.91 
 -13   1  12    4.53    0.77 
 -13   1  12    3.80    0.68 
 -12   1  12    2.41    0.50 
 -12   1  12    1.55    0.45 
 -11  -1  12   63.35    4.92 
 -11   1  12   59.01    4.85 
 -11   1  12   52.13    4.83 
  10  -1 -12   12.44    1.22 
 -10  -1  12   15.48    1.33 
 -10   1  12   11.70    1.21 
 -10   1  12    9.99    1.22 
 -10   1  12   15.16    1.35 
   9  -1 -12   33.72    2.74 
  -9  -1  12   27.80    2.74 
  -9   1  12   35.52    2.77 
  -9   1  12   30.07    2.70 
  -8  -1  12    0.36    0.31 
  -8   1  12    0.38    0.34 
  -8   1  12    0.68    0.28 
  -7  -1  12   -0.05    0.28 
  -7  -1  12   -0.14    0.24 
  -7   1  12    0.27    0.29 
  -6  -1  12   13.52    1.29 
  -6  -1  12   12.20    1.27 
  -6   1  12   14.96    1.31 
  -6   1  12   15.35    1.27 
  -5  -1  12   14.07    1.32 
  -5  -1  12   14.85    1.32 
  -5   1  12   12.57    1.33 
  -5   1  12   16.57    1.31 
  -4  -1  12    2.89    0.42 
  -4  -1  12    2.24    0.40 
  -4   1  12    3.54    0.43 
  -4   1  12    3.08    0.51 
  -3  -1  12    0.34    0.19 
  -3  -1  12   -0.12    0.23 
  -3   1  12    0.00    0.20 
  -3   1  12    0.18    0.18 
  -2  -1  12    5.04    0.63 
   2  -1 -12    5.52    0.61 
  -2   1  12    5.26    0.64 
  -2   1  12    6.94    0.60 
   1  -1 -12    2.20    0.37 
  -1  -1  12    2.21    0.35 
  -1   1  12    2.21    0.38 
  -1   1  12    2.61    0.39 
   0  -1  12    4.20    0.51 
   0  -1 -12    4.62    0.52 
   0   1  12    4.17    0.52 
   0   1 -12    4.62    0.49 
   1  -1  12   23.86    2.19 
  -1  -1 -12   28.21    2.21 
  -1   1 -12   23.18    2.17 
   1   1  12   28.57    2.21 
   2  -1  12    6.10    0.62 
  -2   1 -12    5.89    0.59 
   2   1  12    5.53    0.61 
   3  -1  12    0.47    0.22 
  -3  -1 -12    0.27    0.21 
  -3   1 -12    0.49    0.23 
   3   1  12    0.71    0.19 
  -4  -1 -12    1.40    0.31 
   4  -1  12    1.79    0.32 
   4   1  12    1.23    0.25 
  -4   1 -12    1.12    0.30 
  -5  -1 -12    0.75    0.28 
   5  -1  12    0.65    0.23 
  -5   1 -12    0.40    0.29 
   5   1  12    0.69    0.21 
   6  -1  12    2.26    0.37 
  -6  -1 -12    2.82    0.54 
  -6   1 -12    2.67    0.48 
   6   1  12    2.32    0.35 
  -7  -1 -12    1.07    0.36 
  -7   1 -12    1.80    0.40 
   7   1  12    0.99    0.34 
  -8  -1 -12   20.91    1.76 
  -8   1 -12   16.40    1.77 
   8   1  12   20.33    1.68 
   9  -1  12    2.57    0.51 
   9  -1  12    3.83    0.51 
  -9  -1 -12    4.87    0.68 
  -9   1 -12    3.83    0.58 
   9   1  12    3.96    0.52 
 -10  -1 -12    2.96    0.53 
  10  -1  12    2.46    0.42 
 -10   1 -12    2.94    0.56 
  10   1  12    2.30    0.38 
  10   1  12    2.17    0.49 
 -11  -1 -12    1.94    0.49 
  11  -1  12    1.52    0.44 
  11   1  12    1.79    0.33 
 -11   1 -12    1.33    0.50 
  11   1  12    0.58    0.44 
 -12  -1 -12    3.08    0.60 
 -12   1 -12    2.02    0.58 
  12   1  12    1.56    0.55 
  13  -1  12   22.36    1.96 
 -13  -1 -12   20.99    2.03 
  13   1  12   22.64    1.99 
 -13   1 -12   19.57    2.06 
 -14  -1 -12    0.58    0.51 
  14  -1  12    0.09    0.33 
  14  -1  12    0.10    0.50 
  14   1  12    0.21    0.33 
  14   1  12    0.74    0.78 
 -14   1 -12   -0.53    0.54 
 -15  -1 -12    1.11    0.60 
  15  -1  12    1.35    0.61 
  15  -1  12    0.00    0.54 
 -15   1 -12    1.28    0.65 
  15   1  12    0.61    0.56 
  16  -1  12    0.16    0.73 
  16  -1  12   -0.41    0.65 
 -16  -1 -12    1.76    0.70 
  16   1  12   -0.36    0.82 
  16   1  12   -0.83    0.61 
 -16   1 -12    0.31    0.68 
 -17  -2  12    5.35    1.22 
 -17  -2  12    6.93    1.41 
  17  -2 -12    8.71    1.44 
 -17   2  12    7.98    1.44 
 -16  -2  12    9.14    1.60 
  16  -2 -12   10.43    1.44 
 -16  -2  12   15.15    1.84 
 -16   2  12   13.43    1.54 
 -16   2  12   11.40    1.31 
  15  -2 -12    5.00    0.82 
 -15  -2  12    6.43    1.02 
 -15  -2  12    3.78    0.95 
 -15   2  12    6.12    1.10 
 -15   2  12    4.83    0.83 
 -14  -2  12    7.93    1.39 
  14  -2 -12    8.33    1.09 
 -14   2  12    8.62    1.14 
 -14   2  12    6.22    0.93 
 -13  -2  12    2.23    0.71 
  13  -2 -12    1.89    0.52 
 -13   2  12    1.90    0.65 
 -13   2  12    2.91    0.67 
 -13   2  12    0.99    0.43 
  12  -2 -12    2.83    0.58 
 -12  -2  12    3.80    0.79 
 -12   2  12    3.14    0.53 
 -12   2  12    2.83    0.65 
 -12   2  12    3.79    0.69 
 -11  -2  12    1.34    0.57 
  11  -2 -12    0.79    0.40 
 -11   2  12    1.45    0.39 
 -11   2  12    1.42    0.39 
 -11   2  12    1.39    0.50 
  10  -2 -12    0.74    0.39 
 -10  -2  12    1.96    0.55 
 -10   2  12    1.24    0.44 
 -10   2  12    0.82    0.37 
 -10   2  12    1.93    0.41 
   9  -2 -12    2.66    0.49 
  -9   2  12    1.82    0.44 
  -9   2  12    2.82    0.51 
  -9   2  12    2.76    0.44 
   8  -2 -12   27.78    2.25 
  -8  -2  12   23.71    2.31 
  -8   2  12   26.60    2.26 
  -8   2  12   24.50    2.19 
  -8   2  12   24.31    2.18 
   7  -2 -12    9.23    1.24 
  -7   2  12    9.56    0.97 
  -7   2  12    9.77    1.11 
  -6  -2  12    3.44    0.65 
  -6   2  12    3.97    0.72 
  -6   2  12    5.14    0.67 
  -5  -2  12   -0.10    0.26 
  -5   2  12    0.19    0.23 
  -5   2  12    0.16    0.25 
  -4   2  12    1.43    0.35 
  -4   2  12    2.04    0.34 
  -3   2  12    8.27    0.81 
  -3   2  12    8.27    0.85 
   2  -2 -12   -0.25    0.18 
  -2   2  12    0.02    0.21 
  -2   2  12    0.09    0.22 
   1  -2 -12   21.48    1.87 
  -1   2  12   22.86    1.89 
  -1   2  12   20.68    1.86 
   0  -2 -12    3.84    0.48 
   0  -2  12    3.99    0.50 
   0   2  12    3.59    0.48 
   0   2  12    2.98    0.49 
  -1  -2 -12    6.16    0.65 
   1  -2  12    4.94    0.67 
   1   2  12    6.43    0.65 
   1   2  12    6.87    0.66 
   2  -2  12    0.14    0.24 
  -2  -2 -12    0.11    0.19 
   2   2  12    0.25    0.22 
   2   2  12    0.28    0.16 
   3  -2  12    7.50    0.78 
  -3  -2 -12    9.17    0.98 
  -3   2 -12    5.44    0.70 
   3   2  12    7.34    0.72 
   4  -2  12   -0.06    0.27 
  -4  -2 -12    0.08    0.23 
  -4   2 -12    0.21    0.25 
   4   2  12    0.28    0.19 
  -5  -2 -12    1.64    0.37 
  -6  -2 -12  127.72    9.43 
   6  -2  12  103.56    9.40 
   6   2  12  124.47    9.39 
  -6   2 -12  101.93    9.40 
  -7  -2 -12    1.84    0.42 
   7  -2  12    2.17    0.47 
  -7   2 -12    1.46    0.42 
   7   2  12    1.34    0.31 
  -8  -2 -12    2.34    0.51 
   8  -2  12    2.05    0.40 
  -8   2 -12    1.90    0.48 
   8   2  12    2.32    0.42 
   9  -2  12    1.64    0.39 
  -9  -2 -12    1.63    0.52 
   9   2  12    1.58    0.37 
  -9   2 -12    1.94    0.51 
  10  -2  12    0.47    0.30 
 -10  -2 -12    1.28    0.45 
  10   2  12    0.90    0.31 
 -10   2 -12    0.34    0.46 
  11  -2  12    0.09    0.29 
 -11  -2 -12    0.70    0.46 
 -11   2 -12    0.30    0.49 
  11   2  12    0.76    0.31 
  11   2  12    0.40    0.51 
 -12  -2 -12    0.66    0.51 
  12  -2  12    0.89    0.35 
 -12   2 -12    0.79    0.56 
  12   2  12    1.29    1.00 
 -13  -2 -12    8.47    1.20 
  13   2  12   10.37    1.16 
 -13   2 -12    7.96    1.26 
 -14  -2 -12   -0.90    0.54 
  14  -2  12    0.84    0.47 
  14  -2  12    0.44    0.41 
  14   2  12    0.41    0.37 
 -14   2 -12    0.59    0.63 
  14   2  12    0.85    0.79 
 -15  -2 -12    5.98    0.88 
  15  -2  12    4.31    0.85 
  15  -2  12    6.30    1.01 
 -15   2 -12    8.92    1.30 
  15   2  12    6.49    0.93 
  15   2  12    4.80    1.06 
  15  -3 -12   11.00    1.56 
 -15  -3  12   11.36    1.74 
 -15   3  12   10.40    1.38 
 -15   3  12    9.49    1.34 
 -15   3  12   15.15    1.88 
  14  -3 -12   -0.06    0.67 
 -14  -3  12    1.07    0.81 
 -14   3  12   -1.05    0.67 
 -14   3  12   -0.59    0.69 
 -14   3  12   -0.89    0.54 
 -13  -3  12    3.39    0.85 
  13  -3 -12    2.47    0.70 
 -13   3  12    2.37    0.67 
 -13   3  12    1.73    0.69 
 -13   3  12    2.03    0.59 
 -12  -3  12    9.99    1.35 
  12  -3 -12    7.13    1.08 
 -12   3  12    6.46    1.00 
 -12   3  12    6.83    1.01 
 -12   3  12    7.06    0.92 
  11  -3 -12    5.14    0.94 
 -11  -3  12    7.63    1.21 
 -11   3  12    5.01    0.76 
 -11   3  12    6.46    0.96 
 -11   3  12    4.38    0.83 
  10  -3 -12    3.71    0.66 
 -10   3  12    4.00    0.58 
 -10   3  12    3.76    0.59 
 -10   3  12    3.43    0.60 
   9  -3 -12    1.92    0.51 
  -9   3  12    1.36    0.43 
  -9   3  12    2.73    0.43 
  -9   3  12    1.94    0.42 
   8  -3 -12    5.83    0.78 
  -8   3  12    4.82    0.66 
  -8   3  12    4.49    0.67 
  -8   3  12    3.51    0.66 
   7  -3 -12    6.80    0.83 
  -7  -3  12    7.88    1.06 
  -7   3  12    5.17    0.73 
  -7   3  12    4.68    0.72 
  -6   3  12    4.66    0.62 
  -6   3  12    3.62    0.63 
  -5   3  12    1.16    0.36 
  -5   3  12    0.66    0.33 
  -4   3  12    4.98    0.66 
  -3   3  12    4.70    0.61 
  -3   3  12    4.23    0.65 
   2  -3 -12    2.07    0.36 
  -2   3  12    2.78    0.48 
  -2   3  12    2.10    0.39 
  -1  -3  12   17.47    1.46 
   1  -3 -12   15.86    1.45 
  -1   3  12   15.12    1.45 
  -1   3  12   16.14    1.45 
   0  -3  12    8.75    0.89 
   0  -3 -12    8.77    0.87 
   0   3  12    8.18    0.87 
  -1  -3 -12    2.42    0.39 
   1   3  12    2.56    0.46 
  -2  -3 -12   11.96    1.15 
   2  -3  12   11.76    1.19 
   2   3  12   12.36    1.14 
  -3  -3 -12   -0.38    0.28 
   3   3  12   -0.11    0.23 
  -4  -3 -12   13.52    1.31 
   4   3  12   13.96    1.28 
   5  -3  12   87.01    7.56 
  -5  -3 -12  100.37    7.59 
  -5   3 -12   80.55    7.52 
   5   3  12   98.53    7.55 
  -6  -3 -12   20.96    1.92 
   6   3  12   20.95    1.85 
   7  -3  12   58.39    5.02 
  -7  -3 -12   69.34    5.09 
   7  -3  12   52.17    5.02 
   7   3  12   66.69    5.02 
  -7   3 -12   54.44    5.03 
  -8  -3 -12    4.36    0.76 
   8  -3  12    3.74    0.58 
   8  -3  12    3.74    0.66 
   8   3  12    3.01    0.51 
  -8   3 -12    3.64    0.61 
  -9  -3 -12    0.85    0.43 
   9  -3  12    0.68    0.40 
   9  -3  12    0.09    0.41 
   9   3  12    0.13    0.35 
  10  -3  12    0.41    0.39 
  10  -3  12   -0.27    0.49 
 -10  -3 -12    0.41    0.49 
 -10   3 -12   -0.16    0.46 
  10   3  12   -0.23    0.39 
  11  -3  12    5.60    0.91 
  11  -3  12    5.37    0.93 
 -11  -3 -12    8.00    1.09 
 -11   3 -12    6.38    1.11 
 -12  -3 -12    1.90    0.67 
  12  -3  12    2.74    0.60 
  12  -3  12    1.87    0.66 
 -12   3 -12    2.04    0.65 
 -13  -3 -12    2.98    0.79 
  13  -3  12    2.01    0.80 
  13  -3  12    2.22    0.75 
 -13   3 -12    3.19    0.71 
 -14  -3 -12    0.73    0.75 
  14  -3  12    0.32    0.75 
  14  -3  12    0.26    0.74 
 -14   3 -12    1.12    0.70 
  14   3  12    0.39    0.61 
 -13  -4  12    0.28    0.77 
  13  -4 -12   -1.13    0.74 
 -13   4  12   -0.03    0.68 
 -13   4  12   -1.21    0.65 
 -13   4  12   -0.36    1.07 
 -12  -4  12    0.79    0.80 
  12  -4 -12   -0.45    0.67 
 -12   4  12    0.15    0.72 
 -12   4  12   -0.14    0.60 
 -12   4  12   -0.16    0.58 
 -11  -4  12    0.70    0.68 
  11  -4 -12    0.16    0.58 
 -11   4  12   -0.42    0.56 
 -11   4  12    0.33    0.51 
 -11   4  12    1.09    0.48 
  10  -4 -12   -0.16    0.54 
 -10  -4  12    1.19    0.71 
 -10   4  12    0.31    0.50 
 -10   4  12    0.71    0.51 
 -10   4  12    1.00    0.50 
   9  -4 -12    0.73    0.58 
  -9  -4  12    2.23    0.77 
  -9   4  12    0.49    0.43 
  -9   4  12    1.82    0.49 
  -9   4  12    1.36    0.52 
   8  -4 -12    0.90    0.55 
  -8  -4  12    0.23    0.87 
  -8   4  12    0.74    0.47 
  -8   4  12    1.22    0.43 
   7  -4 -12   -0.10    0.49 
  -7  -4  12    0.56    0.76 
  -7   4  12   -0.36    0.40 
  -7   4  12    0.02    0.40 
  -6  -4  12    1.67    0.61 
  -6   4  12    0.18    0.40 
  -6   4  12    0.30    0.36 
  -5  -4  12    6.15    0.89 
  -5   4  12    5.48    0.80 
  -5   4  12    5.44    0.74 
  -4  -4  12    1.04    0.52 
  -4   4  12    0.58    0.42 
  -3   4  12    4.29    0.76 
  -2   4  12    1.47    0.46 
   1  -4 -12    6.46    0.84 
  -1  -4  12    7.08    0.90 
  -1   4  12    7.03    0.92 
  -1   4  12    9.14    0.94 
   0  -4  12    1.49    0.45 
   0  -4 -12    1.19    0.33 
   0   4  12    1.03    0.43 
   0   4  12    0.58    0.33 
   1  -4  12    1.63    0.43 
  -1  -4 -12    2.18    0.44 
   1   4  12    2.67    0.45 
   2  -4  12    0.00    0.37 
  -2  -4 -12    0.37    0.32 
   2   4  12    0.48    0.36 
   3  -4  12    2.12    0.48 
  -3  -4 -12    1.56    0.40 
   3   4  12    1.66    0.41 
  -4  -4 -12    3.06    0.53 
   4   4  12    2.28    0.47 
   5  -4  12    2.00    0.63 
  -5  -4 -12    1.08    0.42 
   5   4  12    0.83    0.41 
   6  -4  12   13.02    1.50 
  -6  -4 -12   17.82    1.55 
   6  -4  12   11.96    1.53 
   6   4  12   18.13    1.49 
  -7  -4 -12    3.77    0.65 
   7  -4  12    3.48    0.66 
  -7   4 -12    3.78    0.63 
   7   4  12    3.91    0.64 
  -8  -4 -12    3.26    0.68 
   8  -4  12    3.23    0.71 
   8  -4  12    1.86    0.76 
   8   4  12    4.89    0.85 
  -8   4 -12    3.02    0.59 
   9  -4  12    2.27    0.63 
   9  -4  12    1.03    0.79 
  -9   4 -12    2.83    0.62 
 -10  -4 -12    1.88    0.78 
  10  -4  12    0.86    0.63 
  10  -4  12   -0.81    0.77 
 -10   4 -12    0.03    0.55 
  11  -4  12   -0.35    0.80 
  11  -4  12    0.76    0.75 
 -11  -4 -12   -0.39    0.82 
 -11   4 -12   -1.05    0.57 
  12  -4  12    0.26    1.06 
  12  -4  12    0.29    0.76 
 -12  -4 -12   -0.30    0.85 
 -12   4 -12   -0.11    0.67 
   9  -5 -12    0.93    0.71 
  -9   5  12    1.12    0.61 
  -9   5  12    0.19    0.68 
  -9   5  12    1.39    0.68 
   8  -5 -12    1.03    0.73 
  -8   5  12    0.99    0.59 
  -8   5  12    0.37    0.60 
  -8   5  12    0.61    0.66 
  -7  -5  12    1.30    1.01 
  -7   5  12    0.61    0.53 
  -7   5  12    0.30    0.67 
  -7   5  12    0.58    0.54 
  -6  -5  12    1.18    0.84 
  -6   5  12    0.06    0.51 
  -6   5  12    0.82    0.64 
  -5  -5  12    0.28    0.69 
  -5   5  12    0.82    0.50 
  -5   5  12    1.08    0.61 
  -4  -5  12   -0.67    0.72 
  -4   5  12    0.51    0.58 
  -4   5  12   -0.09    0.45 
  -3   5  12    0.21    0.55 
  -3   5  12    0.26    0.49 
  -2  -5  12    0.17    0.38 
  -2   5  12    0.81    0.51 
  -2   5  12    1.29    0.57 
  -1  -5  12   -0.18    0.38 
  -1   5  12    0.01    0.49 
  -1   5  12   -0.25    0.45 
   0  -5  12    0.11    0.40 
   0  -5 -12    0.01    0.46 
   0   5  12    0.73    0.55 
   0   5  12    1.01    0.48 
   1  -5  12   -0.40    0.41 
  -1  -5 -12    0.52    0.41 
   1   5  12    0.54    0.52 
   1   5  12    0.20    0.52 
  -2  -5 -12    1.52    0.47 
   2   5  12    0.63    0.64 
   2   5  12    0.76    0.52 
  -3  -5 -12   -0.01    0.49 
   3  -5  12   -0.45    0.48 
   3  -5  12    0.64    0.81 
   3   5  12    0.85    0.53 
   3   5  12    0.84    0.75 
   4  -5  12   -0.87    0.87 
  -4  -5 -12    0.78    0.53 
   4  -5  12    0.00    0.52 
   4   5  12    1.25    0.57 
  -5  -5 -12    5.46    0.96 
   5  -5  12    3.22    0.75 
   5  -5  12    1.24    0.99 
   5   5  12    3.79    0.70 
   6  -5  12    0.77    1.05 
   6  -5  12    2.07    0.77 
  -6  -5 -12    5.03    0.89 
   6   5  12    3.56    0.70 
   7  -5  12   -1.30    0.91 
  -7  -5 -12    0.91    0.80 
   7  -5  12    0.14    0.71 
   7   5  12    0.76    0.62 
   8  -5  12   -0.22    0.79 
  -8  -5 -12   -0.86    0.81 
   8  -5  12   -0.97    1.22 
   8   5  12   -0.77    0.62 
  17   0 -13   -0.02    0.69 
 -17   0  13   -1.16    0.76 
 -17   0  13    0.55    1.17 
  16   0 -13    0.50    0.56 
 -16   0  13    0.99    1.01 
 -16   0  13   -0.30    0.62 
 -15   0  13   -0.18    0.84 
 -15   0  13   -0.27    0.52 
  15   0 -13    0.21    0.49 
 -14   0  13    0.34    0.73 
  14   0 -13    0.04    0.42 
 -13   0  13   -0.07    0.39 
 -13   0  13    0.94    0.65 
  13   0 -13   -0.05    0.37 
 -12   0  13   -0.12    0.38 
 -12   0  13    0.02    0.58 
 -11   0  13    0.34    0.37 
 -10   0  13    0.42    0.37 
 -10   0  13    0.17    0.33 
  -9   0  13    0.14    0.34 
  -9   0  13    0.02    0.29 
  -8   0  13   -0.23    0.31 
  -8   0  13    0.22    0.31 
  -7   0  13    0.39    0.29 
  -7   0  13    0.28    0.25 
  -6   0  13    0.18    0.26 
  -6   0  13   -0.17    0.27 
  -5   0  13    0.13    0.25 
  -5   0  13   -0.01    0.22 
  -4   0  13    0.05    0.25 
  -4   0  13    0.38    0.21 
  -3   0  13   -0.21    0.25 
  -3   0  13    0.10    0.20 
  -2   0  13   -0.10    0.22 
  -2   0  13    0.10    0.20 
  -1   0  13    0.06    0.20 
   1   0 -13    0.00    0.17 
   0   0  13    0.22    0.20 
   0   0 -13    0.12    0.18 
   1   0  13    0.08    0.19 
  -1   0 -13    0.02    0.17 
   2   0  13   -0.12    0.19 
  -2   0 -13   -0.05    0.17 
   3   0  13    0.14    0.17 
  -3   0 -13   -0.10    0.21 
  -4   0 -13    0.14    0.24 
   4   0  13    0.00    0.18 
   5   0  13    0.01    0.21 
  -5   0 -13    0.16    0.26 
   6   0  13    1.87    0.42 
  -6   0 -13    1.09    0.35 
   7   0  13    0.31    0.20 
  -7   0 -13    0.20    0.47 
  -8   0 -13    0.31    0.42 
   8   0  13   -0.22    0.21 
  -9   0 -13    0.32    0.40 
 -10   0 -13   -0.52    0.41 
  10   0  13   -0.51    0.33 
 -11   0 -13    0.26    0.46 
  11   0  13    0.22    0.38 
 -12   0 -13   -0.33    0.47 
  13   0  13    0.47    0.29 
 -13   0 -13    0.31    0.50 
  14   0  13   -0.46    0.61 
  14   0  13    0.17    0.33 
 -14   0 -13    0.66    0.58 
  15   0  13    0.16    0.65 
  15   0  13    0.12    0.35 
 -15   0 -13    0.23    0.61 
  16   0  13    0.20    0.74 
  16   0  13   -0.12    0.61 
 -16   0 -13   -0.10    0.74 
 -17  -1  13   -0.36    0.93 
  17  -1 -13   -0.31    0.61 
 -17  -1  13   -0.08    1.22 
 -17   1  13    0.67    0.65 
 -17   1  13   -0.31    1.14 
  17   1 -13    0.56    0.69 
 -16  -1  13    1.32    0.79 
  16  -1 -13    0.11    0.54 
 -16  -1  13    0.13    1.08 
 -16   1  13   -0.87    0.53 
 -16   1  13    0.31    1.00 
 -15  -1  13    8.86    1.40 
  15  -1 -13    9.05    1.23 
 -15  -1  13    9.54    1.42 
 -15   1  13   11.89    1.38 
 -15   1  13    9.71    1.10 
 -14  -1  13    6.41    1.14 
 -14  -1  13    7.61    1.25 
 -14   1  13    7.36    1.06 
 -14   1  13    6.01    0.90 
 -13  -1  13    2.14    0.83 
 -13  -1  13    1.41    0.64 
 -13   1  13    2.99    0.67 
 -13   1  13    1.04    0.45 
 -12  -1  13    0.88    0.54 
 -12   1  13    1.04    0.58 
 -12   1  13    0.61    0.36 
 -11  -1  13    9.94    1.08 
 -11   1  13    7.59    0.93 
 -11   1  13    6.98    0.98 
 -11   1  13    8.73    1.12 
 -10  -1  13   12.24    1.29 
 -10   1  13   11.95    1.19 
  -9  -1  13    0.27    0.40 
  -9  -1  13    0.55    0.35 
  -9   1  13   -0.44    0.30 
  -9   1  13   -0.42    0.37 
  -8  -1  13    4.11    0.59 
  -8  -1  13    4.33    0.66 
  -8   1  13    5.03    0.69 
  -8   1  13    4.87    0.62 
  -7  -1  13   -0.33    0.28 
  -7  -1  13   -0.18    0.29 
  -7   1  13   -0.06    0.25 
  -7   1  13    0.09    0.28 
  -6  -1  13    2.97    0.46 
  -6  -1  13    3.19    0.52 
  -6   1  13    4.09    0.51 
  -6   1  13    2.36    0.46 
  -5  -1  13    4.14    0.59 
  -5   1  13    3.84    0.61 
  -5   1  13    4.29    0.63 
  -4  -1  13    0.15    0.26 
  -4  -1  13    0.54    0.22 
  -4   1  13    0.52    0.22 
  -4   1  13    0.02    0.25 
  -3  -1  13    8.21    0.84 
  -3   1  13    8.32    0.79 
  -3   1  13    6.64    0.85 
   2  -1 -13   14.75    1.36 
  -2  -1  13   14.53    1.37 
  -2   1  13   14.73    1.39 
  -2   1  13   17.11    1.37 
  -1  -1  13    0.07    0.22 
   1  -1 -13    0.26    0.18 
  -1   1  13   -0.02    0.20 
  -1   1  13   -0.08    0.19 
   0  -1  13    3.01    0.45 
   0  -1 -13    2.49    0.43 
   0   1 -13    3.57    0.42 
   0   1  13    2.75    0.46 
   1  -1  13    6.36    0.66 
  -1  -1 -13    5.70    0.65 
  -1   1 -13    6.40    0.63 
   1   1  13    5.65    0.66 
   2  -1  13    1.32    0.29 
  -2  -1 -13    1.12    0.29 
   2   1  13    1.46    0.29 
  -2   1 -13    0.99    0.25 
  -3  -1 -13   18.16    1.45 
   3  -1  13   15.53    1.43 
  -3   1 -13   14.32    1.41 
   3   1  13   16.20    1.42 
   4  -1  13    8.11    0.86 
  -4  -1 -13   10.05    0.88 
   4   1  13    8.44    0.81 
  -4   1 -13    6.82    0.85 
   5  -1  13    0.45    0.24 
  -5   1 -13    0.67    0.31 
  -6  -1 -13    3.44    0.59 
   6  -1  13    3.39    0.50 
  -6   1 -13    3.18    0.56 
   6   1  13    2.59    0.46 
  -7  -1 -13    0.01    0.31 
   7  -1  13    0.23    0.26 
   7   1  13    0.14    0.20 
  -7   1 -13    0.15    0.38 
   8  -1  13    0.87    0.27 
  -8  -1 -13    0.66    0.41 
  -8   1 -13    0.52    0.49 
  -9  -1 -13    2.70    0.52 
   9  -1  13    3.16    0.50 
   9   1  13    3.74    0.61 
  -9   1 -13    2.76    0.58 
 -10  -1 -13    4.99    0.84 
  10  -1  13    4.14    0.69 
  10   1  13    4.96    0.68 
  10   1  13    5.29    0.79 
 -10   1 -13    5.58    0.78 
 -11  -1 -13    1.81    0.48 
 -11   1 -13    1.34    0.54 
  12  -1  13    0.50    0.45 
 -12  -1 -13    0.23    0.47 
  12   1  13    0.24    0.31 
  12   1  13    0.17    0.52 
 -12   1 -13    0.75    0.57 
  13  -1  13    1.66    0.56 
 -13  -1 -13    2.12    0.60 
 -13   1 -13    1.95    0.64 
  13   1  13    1.42    0.39 
  13   1  13    1.42    0.79 
 -14  -1 -13    1.36    0.62 
  14  -1  13    0.71    0.36 
  14  -1  13    1.03    0.58 
 -14   1 -13    0.75    0.65 
  14   1  13    1.32    0.38 
  15  -1  13    0.44    0.38 
  15  -1  13    1.21    0.67 
 -15  -1 -13    1.36    0.64 
  15   1  13    1.27    0.77 
 -15   1 -13   -0.53    0.74 
  15   1  13    0.66    0.40 
  16  -1  13   -1.09    0.69 
 -16  -1 -13    0.08    0.69 
  16  -1  13    0.53    0.69 
  16   1  13    0.28    0.88 
  16   1  13   -0.51    0.66 
  16  -2 -13    1.91    0.64 
 -16  -2  13    0.77    1.10 
 -16  -2  13    1.72    0.98 
 -16   2  13    1.22    0.53 
 -16   2  13    1.43    0.99 
  15  -2 -13    0.03    0.55 
 -15  -2  13   -1.14    1.22 
 -15  -2  13    0.03    0.86 
 -15   2  13   -0.61    0.52 
 -15   2  13   -0.96    0.83 
 -15   2  13    0.34    0.80 
  14  -2 -13    7.70    1.11 
 -14  -2  13    7.60    1.24 
 -14  -2  13    8.27    1.44 
 -14   2  13    9.82    1.45 
 -14   2  13    6.96    1.11 
 -14   2  13    5.76    0.91 
  13  -2 -13    0.74    0.46 
 -13  -2  13    0.89    0.67 
 -13   2  13   -0.82    0.66 
 -13   2  13   -0.17    0.62 
  12  -2 -13    1.30    0.52 
 -12  -2  13    1.79    0.63 
 -12   2  13    0.81    0.58 
 -12   2  13    1.38    0.60 
 -12   2  13    1.16    0.41 
  11  -2 -13   24.81    2.40 
 -11  -2  13   27.28    2.50 
 -11   2  13   28.03    2.43 
 -11   2  13   25.11    2.30 
 -11   2  13   27.22    2.33 
 -10  -2  13    1.22    0.54 
  10  -2 -13    0.20    0.39 
 -10   2  13    0.87    0.45 
 -10   2  13    0.18    0.34 
 -10   2  13   -0.05    0.33 
   9  -2 -13    7.99    0.89 
  -9   2  13    6.34    0.80 
  -9   2  13    7.13    0.95 
  -9   2  13    6.68    0.84 
  -8  -2  13    9.11    1.07 
  -8   2  13    7.32    0.88 
  -8   2  13    6.25    0.84 
  -7  -2  13    9.79    1.13 
  -7   2  13    8.41    0.97 
  -7   2  13   10.08    1.02 
  -6  -2  13    7.51    1.02 
  -6   2  13   11.66    1.02 
  -6   2  13    9.67    0.97 
  -5  -2  13    3.65    0.55 
  -5   2  13    3.61    0.57 
  -5   2  13    2.52    0.53 
  -4  -2  13    0.95    0.30 
  -4  -2  13    0.72    0.42 
  -4   2  13    1.33    0.30 
  -4   2  13    0.53    0.34 
  -3  -2  13    1.60    0.33 
  -3   2  13    1.38    0.32 
  -2  -2  13    3.13    0.52 
   2  -2 -13    2.51    0.46 
  -2   2  13    2.22    0.58 
  -2   2  13    2.91    0.49 
  -1  -2  13    1.22    0.29 
   1  -2 -13    0.83    0.26 
  -1   2  13    0.71    0.39 
  -1   2  13    1.34    0.27 
   0  -2 -13    1.17    0.28 
   0  -2  13    1.26    0.31 
   0   2  13    1.19    0.29 
   1   2  13    1.10    0.30 
  -2  -2 -13   56.30    4.68 
   2  -2  13   52.16    4.67 
   2   2  13   62.72    4.67 
   2   2  13   53.07    4.73 
  -3  -2 -13    4.34    0.56 
   3  -2  13    4.37    0.61 
   3   2  13    4.09    0.52 
  -3   2 -13    3.44    0.51 
  -4  -2 -13    0.96    0.30 
   4   2  13    0.83    0.24 
  -4   2 -13    0.77    0.32 
  -5  -2 -13   26.76    2.30 
   5   2  13   25.85    2.25 
  -6  -2 -13   34.27    2.78 
   6   2  13   33.49    2.72 
  -6   2 -13   27.95    2.80 
  -7  -2 -13    0.43    0.34 
   7  -2  13    0.90    0.30 
   7   2  13   -0.01    0.25 
  -7   2 -13    0.68    0.45 
   8  -2  13    0.15    0.30 
  -8  -2 -13    0.37    0.39 
  -8   2 -13    0.31    0.40 
   8   2  13    0.31    0.26 
  -9  -2 -13   14.20    1.30 
   9  -2  13    9.97    1.19 
  -9   2 -13   11.15    1.34 
   9   2  13   13.01    1.18 
  10  -2  13   -0.25    0.32 
 -10  -2 -13   -0.73    0.44 
 -10   2 -13    0.64    0.47 
  10   2  13    0.31    0.47 
 -11  -2 -13    1.53    0.57 
  11  -2  13    0.58    0.32 
 -11   2 -13    1.24    0.60 
  11   2  13    0.36    0.62 
  12  -2  13    2.84    0.49 
 -12  -2 -13    2.63    0.64 
  12   2  13    2.12    0.68 
 -12   2 -13    1.81    0.68 
  12   2  13    2.62    0.47 
  13  -2  13    1.28    0.40 
 -13  -2 -13    2.35    0.61 
  13  -2  13    0.99    0.59 
  13   2  13    0.80    0.70 
  13   2  13    1.58    0.42 
 -13   2 -13    1.28    0.68 
  14  -2  13    3.71    0.64 
  14  -2  13    1.73    0.69 
 -14  -2 -13    3.79    0.78 
  14   2  13    2.79    0.54 
  14   2  13    4.38    0.86 
 -14   2 -13    3.25    0.83 
  15  -2  13    4.22    0.88 
 -15  -2 -13    4.89    0.87 
  15  -2  13    3.07    0.82 
  15   2  13    4.27    0.76 
 -15   2 -13    4.70    0.96 
  14  -3 -13   -0.18    0.68 
 -14  -3  13    0.74    0.82 
 -14   3  13   -0.25    0.73 
 -14   3  13   -0.41    0.58 
 -14   3  13   -0.52    0.73 
 -13  -3  13   12.92    1.61 
  13  -3 -13    9.50    1.35 
 -13   3  13   10.39    1.41 
 -13   3  13    7.52    1.17 
 -13   3  13    9.03    1.19 
  12  -3 -13   10.82    1.31 
 -12  -3  13    9.69    1.50 
 -12   3  13    9.00    1.34 
 -12   3  13    9.91    1.10 
 -11  -3  13    4.08    0.86 
  11  -3 -13    2.45    0.63 
 -11   3  13    1.76    0.47 
 -11   3  13    1.55    0.50 
 -11   3  13    2.13    0.62 
 -10  -3  13    1.97    0.75 
  10  -3 -13    0.18    0.46 
 -10   3  13    0.08    0.40 
 -10   3  13    0.17    0.35 
 -10   3  13   -0.34    0.37 
  -9  -3  13    3.32    0.75 
   9  -3 -13    2.35    0.57 
  -9   3  13    1.76    0.45 
  -9   3  13    1.64    0.44 
  -9   3  13    1.43    0.46 
  -8  -3  13    3.00    0.75 
   8  -3 -13    1.87    0.55 
  -8   3  13    1.75    0.42 
  -8   3  13    1.32    0.42 
  -8   3  13    2.09    0.43 
  -7  -3  13    3.31    0.67 
  -7   3  13    1.72    0.44 
  -7   3  13    2.15    0.44 
  -6  -3  13    2.77    0.60 
  -6   3  13    2.67    0.46 
  -6   3  13    2.33    0.44 
  -5  -3  13    4.41    0.81 
  -4  -3  13   12.58    1.32 
  -3   3  13   11.17    1.08 
  -2  -3  13   10.82    1.09 
  -2   3  13   12.22    1.09 
  -1  -3  13    3.42    0.60 
  -1   3  13    3.47    0.56 
   0  -3  13    3.21    0.50 
   0  -3 -13    2.82    0.50 
   0   3  13    3.12    0.49 
   1  -3  13    0.10    0.28 
  -1  -3 -13   -0.04    0.24 
   1   3  13    0.14    0.26 
   1   3  13   -0.26    0.24 
   2  -3  13    1.08    0.38 
  -2  -3 -13    0.81    0.28 
   2   3  13    0.67    0.28 
  -3  -3 -13   -0.14    0.26 
   3  -3  13    0.55    0.39 
   3   3  13   -0.16    0.25 
   4  -3  13    0.82    0.37 
  -4  -3 -13    0.10    0.32 
   4   3  13    0.07    0.26 
  -5  -3 -13    1.47    0.39 
   5   3  13    1.11    0.32 
  -6  -3 -13    4.16    0.75 
  -6   3 -13    5.45    0.78 
   6   3  13    3.15    0.62 
   7  -3  13   17.20    1.89 
  -7  -3 -13   23.33    1.95 
   7   3  13   22.59    1.89 
  -7   3 -13   18.84    1.95 
   8  -3  13    0.06    0.45 
   8  -3  13   -0.04    0.33 
  -8  -3 -13   -0.15    0.49 
  -8   3 -13    0.37    0.45 
   9  -3  13   -0.45    0.49 
   9  -3  13    0.60    0.40 
  -9  -3 -13    0.23    0.51 
 -10  -3 -13    6.88    0.97 
  10  -3  13    4.61    0.80 
  10  -3  13    4.56    0.86 
 -10   3 -13    5.73    1.03 
  11  -3  13    1.92    0.55 
 -11  -3 -13    1.68    0.61 
  11  -3  13    1.08    0.65 
  11   3  13    1.32    0.48 
 -11   3 -13    2.67    0.68 
 -12  -3 -13    0.58    0.61 
  12  -3  13    0.36    0.53 
  12  -3  13    0.54    0.56 
 -12   3 -13   -0.28    0.62 
  12   3  13    0.72    0.43 
  13  -3  13   -1.07    0.52 
  13  -3  13   -0.57    0.57 
 -13  -3 -13   -0.63    0.65 
  13   3  13    0.37    0.45 
 -13   3 -13   -0.13    0.70 
 -12  -4  13   12.32    1.68 
  12  -4 -13    7.20    1.45 
 -12   4  13    7.18    1.27 
 -12   4  13   10.46    1.36 
 -12   4  13   10.68    1.29 
 -11  -4  13   12.41    1.61 
  11  -4 -13    9.88    1.37 
 -11   4  13    7.39    1.25 
 -11   4  13    8.84    1.15 
 -11   4  13    9.46    1.20 
  10  -4 -13    0.00    0.64 
 -10  -4  13    0.81    0.84 
 -10   4  13    0.80    0.46 
 -10   4  13    0.20    0.48 
 -10   4  13    0.37    0.55 
   9  -4 -13    0.43    0.61 
  -9  -4  13    1.69    0.73 
  -9   4  13    0.61    0.47 
  -9   4  13    0.60    0.47 
  -9   4  13    0.27    0.50 
   8  -4 -13    1.86    0.64 
  -8  -4  13    1.70    0.97 
  -8   4  13    1.18    0.45 
  -8   4  13    0.99    0.48 
  -8   4  13    0.90    0.44 
  -7  -4  13    0.88    0.81 
  -7   4  13    0.19    0.42 
  -7   4  13   -0.08    0.39 
  -6  -4  13    3.80    0.77 
  -6   4  13    2.21    0.46 
  -6   4  13    2.22    0.51 
  -5  -4  13    4.84    0.79 
  -5   4  13    3.01    0.56 
  -5   4  13    3.01    0.50 
  -4  -4  13    2.92    0.72 
  -4   4  13    2.78    0.49 
  -4   4  13    2.46    0.52 
  -4   4  13    2.24    0.45 
  -3   4  13    1.32    0.42 
  -3   4  13    1.66    0.46 
   1  -4 -13   29.71    2.53 
  -1   4  13   27.92    2.51 
   0  -4  13   17.31    1.67 
   0  -4 -13   18.35    1.65 
  -2  -4 -13   15.39    1.51 
   2  -4  13   16.12    1.53 
   3  -4  13    5.91    0.79 
  -3  -4 -13    4.12    0.78 
   4  -4  13   -0.14    0.35 
  -4  -4 -13    0.79    0.40 
   5  -4  13   -0.37    0.38 
  -5  -4 -13    0.24    0.42 
   6  -4  13    1.12    0.47 
  -6  -4 -13   -0.05    0.44 
   6  -4  13    0.81    0.66 
   7  -4  13   11.11    1.24 
   7  -4  13    9.20    1.33 
  -8  -4 -13    0.73    0.57 
   8  -4  13   -0.64    0.73 
   8  -4  13   -0.50    0.46 
  -8   4 -13   -0.15    0.55 
   9  -4  13   -1.04    0.83 
  -9  -4 -13    0.31    0.65 
  -9   4 -13   -0.52    0.49 
   9   4  13    0.10    0.52 
  10  -4  13    0.51    0.89 
 -10  -4 -13    3.14    0.77 
  10  -4  13    0.33    0.69 
 -10   4 -13    1.38    0.63 
  10   4  13    2.12    0.56 
 -11  -4 -13    1.29    0.88 
  11  -4  13   -0.81    0.99 
  11  -4  13    0.71    0.75 
 -11   4 -13    0.62    0.65 
  11   4  13    0.08    0.50 
  -7  -5  13    8.33    1.42 
  -7   5  13    5.62    0.81 
  -7   5  13    3.49    0.78 
  -7   5  13    5.32    0.89 
  -6  -5  13    3.74    1.00 
  -6   5  13    2.47    0.64 
  -6   5  13    2.42    0.62 
  -6   5  13    3.91    0.74 
  -5  -5  13    1.40    0.78 
  -5   5  13    1.09    0.53 
  -5   5  13    0.70    0.61 
  -5   5  13    0.86    0.52 
  -4  -5  13   -0.66    0.81 
  -4   5  13   -0.78    0.59 
  -4   5  13    0.47    0.51 
  -3   5  13    0.52    0.55 
  -3   5  13    0.43    0.51 
  -2   5  13   21.17    1.99 
  -2   5  13   20.79    2.01 
  -1  -5  13    1.36    0.45 
  -1   5  13    2.02    0.57 
  -1   5  13    1.11    0.57 
   0  -5  13    4.98    0.81 
   0  -5 -13    3.88    0.73 
   0   5  13    3.59    0.72 
   0   5  13    5.01    0.92 
   1  -5  13    3.93    0.77 
  -1  -5 -13    5.07    0.90 
   1   5  13    6.14    0.83 
   1   5  13    5.79    0.79 
  -2  -5 -13    3.30    0.60 
   2   5  13    2.94    0.69 
   2   5  13    3.11    0.66 
  -3  -5 -13   -0.60    0.50 
   3  -5  13   -0.88    0.99 
   3  -5  13   -0.22    0.49 
   3   5  13    0.21    0.56 
   3   5  13    0.02    0.58 
   4  -5  13    1.36    1.00 
  -4  -5 -13    2.57    0.60 
   4  -5  13    2.62    0.66 
   4   5  13    2.57    0.66 
   4   5  13    2.09    0.61 
   5  -5  13    1.01    0.66 
   5  -5  13   -1.08    1.05 
  -5  -5 -13    0.76    0.57 
   5   5  13    1.89    0.62 
   5   5  13    1.26    0.64 
  -6  -5 -13    2.36    0.73 
   6  -5  13    0.20    1.12 
   6  -5  13    0.23    0.67 
   6   5  13    0.22    0.64 
   6   5  13    1.03    0.67 
 -16   0  14   13.93    1.73 
 -16   0  14   12.75    1.57 
  16   0 -14   11.99    1.61 
 -15   0  14    3.67    0.98 
 -15   0  14    1.85    0.66 
  15   0 -14    2.26    0.65 
 -14   0  14   12.95    1.43 
 -14   0  14   13.27    1.53 
 -13   0  14    8.31    1.19 
 -13   0  14   10.02    1.14 
 -12   0  14   18.46    2.00 
 -12   0  14   25.53    2.04 
 -11   0  14    0.21    0.37 
 -11   0  14    0.96    0.51 
 -10   0  14    1.01    0.38 
 -10   0  14    0.59    0.45 
  -9   0  14    3.44    0.62 
  -9   0  14    3.15    0.50 
  -8   0  14    7.56    1.02 
  -8   0  14   11.75    1.04 
  -7   0  14    1.92    0.41 
  -7   0  14    2.01    0.42 
  -6   0  14    2.20    0.40 
  -6   0  14    2.33    0.44 
  -5   0  14    1.04    0.29 
  -5   0  14    0.94    0.33 
  -4   0  14    9.40    0.84 
  -4   0  14    6.69    0.88 
  -3   0  14   13.35    1.38 
  -3   0  14   14.73    1.33 
  -2   0  14    0.28    0.27 
  -1   0  14   20.21    1.81 
   1   0 -14   20.64    1.77 
   0   0  14   20.76    1.80 
   0   0 -14   19.95    1.76 
   1   0  14    0.20    0.21 
  -1   0 -14    0.31    0.22 
   2   0  14    2.58    0.41 
  -2   0 -14    1.84    0.36 
   3   0  14    9.75    0.92 
  -3   0 -14    8.67    0.92 
   4   0  14    0.21    0.23 
  -4   0 -14    0.52    0.30 
   5   0  14    4.37    0.58 
  -5   0 -14    4.32    0.66 
   6   0  14   55.68    4.64 
  -7   0 -14    4.30    0.80 
   7   0  14    5.15    0.58 
  -9   0 -14    6.66    1.03 
 -10   0 -14    0.75    0.49 
 -11   0 -14    0.09    0.49 
 -12   0 -14   -0.89    0.50 
  13   0  14    0.84    0.56 
  13   0  14    0.15    0.31 
 -13   0 -14    0.65    0.58 
  14   0  14    0.15    0.31 
 -14   0 -14    0.44    0.61 
  14   0  14    0.27    0.61 
  15   0  14    0.07    0.45 
 -15   0 -14    0.40    0.66 
  15   0  14   -0.16    0.65 
  16  -1 -14    1.25    0.65 
 -16  -1  14    2.08    1.19 
 -16  -1  14    1.24    0.85 
 -16   1  14    0.95    0.62 
 -16   1  14    0.89    1.09 
 -15  -1  14    2.28    0.99 
 -15  -1  14    0.64    0.75 
  15  -1 -14    0.82    0.56 
 -15   1  14    1.42    0.91 
 -15   1  14    0.30    0.52 
 -14  -1  14    4.24    0.98 
  14  -1 -14    3.39    0.69 
 -14  -1  14    4.01    0.82 
 -14   1  14    4.26    0.69 
 -14   1  14    4.73    0.90 
  13  -1 -14    0.34    0.50 
 -13  -1  14    1.56    0.63 
 -13  -1  14    0.85    0.77 
 -13   1  14    2.14    0.75 
 -13   1  14    3.13    0.72 
 -13   1  14    1.70    0.47 
 -12  -1  14    0.77    0.55 
 -12   1  14    1.32    0.60 
 -12   1  14    0.18    0.58 
 -12   1  14    0.18    0.42 
 -11  -1  14    0.24    0.46 
 -11   1  14   -0.45    0.38 
 -11   1  14   -0.01    0.48 
 -11   1  14   -0.32    0.54 
 -10  -1  14    4.73    0.68 
 -10  -1  14    4.70    0.71 
 -10   1  14    4.85    0.74 
 -10   1  14    3.92    0.61 
  -9  -1  14    4.74    0.78 
  -9   1  14    6.23    0.74 
  -9   1  14    5.84    0.99 
  -8  -1  14   28.41    2.38 
  -8  -1  14   25.51    2.37 
  -8   1  14   23.89    2.61 
  -8   1  14   28.85    2.33 
  -7  -1  14    0.41    0.31 
  -7  -1  14   -0.02    0.30 
  -7   1  14    0.45    0.31 
  -7   1  14    0.04    0.31 
  -6  -1  14    2.98    0.49 
  -6  -1  14    3.13    0.52 
  -6   1  14    3.65    0.52 
  -6   1  14    3.36    0.54 
  -5  -1  14    0.17    0.29 
  -5  -1  14   -0.02    0.22 
  -5   1  14    0.12    0.27 
  -5   1  14    0.05    0.27 
  -4  -1  14    1.27    0.29 
  -4  -1  14    1.05    0.38 
  -4   1  14    1.17    0.31 
  -4   1  14    0.98    0.33 
  -3  -1  14    2.89    0.52 
  -3  -1  14    4.49    0.61 
  -3   1  14    3.36    0.59 
  -2  -1  14    1.20    0.33 
  -2   1  14    1.22    0.31 
  -2   1  14    0.91    0.31 
  -1  -1  14    1.18    0.35 
   1  -1 -14    0.57    0.25 
  -1   1  14    0.79    0.28 
  -1   1  14    0.69    0.28 
   0  -1  14    1.48    0.35 
   0  -1 -14    1.23    0.29 
   0   1  14    1.65    0.34 
   0   1  14    1.84    0.36 
   0   1 -14    1.71    0.29 
   1  -1  14   24.20    2.07 
  -1  -1 -14   23.80    2.06 
   1   1  14   23.22    2.07 
  -1   1 -14   24.07    2.03 
   2  -1  14    5.60    0.62 
  -2  -1 -14    4.79    0.62 
  -2   1 -14    4.25    0.57 
   2   1  14    4.19    0.58 
   3  -1  14   40.39    3.18 
  -3   1 -14   34.76    3.14 
  -4  -1 -14   10.40    1.10 
  -4   1 -14    9.86    0.96 
   4   1  14    8.23    0.89 
   5   1  14   14.38    1.37 
  -5   1 -14   16.41    1.45 
  -6  -1 -14    1.14    0.39 
   6  -1  14    1.44    0.33 
  -6   1 -14    0.97    0.42 
  -7  -1 -14    2.51    0.51 
   7  -1  14    1.81    0.37 
  -7   1 -14    1.62    0.57 
  -8  -1 -14    0.02    0.39 
   8  -1  14    0.11    0.28 
  -8   1 -14    0.33    0.47 
  -9  -1 -14   -0.28    0.42 
   9  -1  14    0.22    0.25 
  -9   1 -14   -0.20    0.43 
 -10  -1 -14    0.84    0.52 
  10  -1  14   -0.14    0.25 
 -10   1 -14   -0.18    0.49 
  11  -1  14   -0.02    0.32 
  11  -1  14    0.90    0.43 
 -11  -1 -14    2.40    0.59 
  11   1  14    1.04    0.47 
 -11   1 -14    2.57    0.64 
  11   1  14    0.85    0.29 
 -12  -1 -14    3.24    0.71 
  12  -1  14    3.71    0.64 
 -12   1 -14    3.62    0.75 
  12   1  14    2.62    0.46 
  13  -1  14    0.25    0.31 
  13  -1  14    0.31    0.49 
 -13  -1 -14   -0.34    0.55 
  13   1  14    0.22    0.33 
 -13   1 -14    1.01    0.61 
  14  -1  14    0.65    0.37 
  14  -1  14    0.27    0.56 
 -14  -1 -14    0.58    0.59 
  14   1  14    0.01    0.72 
  14   1  14    0.36    0.37 
 -14   1 -14    1.52    0.75 
  15  -1  14    9.64    1.29 
  15  -1  14    8.92    1.04 
 -15  -1 -14    8.96    1.34 
  15   1  14   11.10    1.34 
 -15   1 -14   10.82    1.62 
  15   1  14    7.27    1.02 
 -15  -2  14    1.70    0.92 
 -15  -2  14    1.28    1.10 
  15  -2 -14    0.68    0.67 
 -15   2  14    0.55    0.94 
 -15   2  14    2.14    0.97 
 -15   2  14    0.11    0.53 
 -14  -2  14    1.84    0.77 
 -14  -2  14    1.56    1.03 
  14  -2 -14    0.98    0.62 
 -14   2  14    1.67    0.81 
 -14   2  14    1.90    0.82 
 -13  -2  14    2.89    0.84 
  13  -2 -14    1.61    0.59 
 -13   2  14    1.81    0.70 
 -13   2  14    1.74    0.49 
 -13   2  14    0.96    0.71 
 -12  -2  14    4.22    0.85 
  12  -2 -14    4.98    0.93 
 -12   2  14    5.17    0.84 
 -12   2  14    4.36    0.80 
 -12   2  14    3.87    0.63 
 -11  -2  14    1.49    0.64 
  11  -2 -14    0.80    0.47 
 -11   2  14   -0.34    0.37 
 -11   2  14   -0.01    0.38 
 -11   2  14   -0.14    0.52 
 -10  -2  14    5.23    0.87 
  10  -2 -14    5.87    0.84 
 -10   2  14    4.80    0.72 
 -10   2  14    4.20    0.70 
 -10   2  14    4.63    0.86 
  -9  -2  14    0.57    0.48 
  -9   2  14    0.03    0.32 
  -9   2  14   -0.33    0.36 
  -8  -2  14    2.73    0.59 
  -8   2  14    1.54    0.44 
  -8   2  14    1.92    0.43 
  -7  -2  14    5.36    0.90 
  -7   2  14    4.44    0.72 
  -7   2  14    6.59    0.79 
  -6  -2  14    5.06    0.70 
  -6  -2  14    3.76    0.75 
  -6   2  14    5.37    0.73 
  -6   2  14    6.21    0.71 
  -5  -2  14    0.11    0.32 
  -5  -2  14   -0.20    0.32 
  -5   2  14   -0.28    0.26 
  -5   2  14   -0.06    0.30 
  -4  -2  14   -0.13    0.28 
  -4  -2  14    0.35    0.34 
  -4   2  14    0.35    0.27 
  -4   2  14   -0.05    0.30 
  -3   2  14    4.36    0.60 
  -3   2  14    3.59    0.69 
  -2  -2  14   14.74    1.50 
  -2   2  14   17.85    1.54 
  -2   2  14   17.66    1.52 
  -1  -2  14    0.82    0.28 
   1  -2 -14    0.41    0.29 
  -1   2  14    0.34    0.25 
  -1   2  14    0.74    0.26 
   0  -2 -14    1.10    0.31 
   0   2  14    1.23    0.31 
   0   2  14    1.42    0.30 
  -1  -2 -14    7.54    0.83 
   1   2  14    7.62    0.82 
   1   2  14    7.69    0.82 
   2  -2  14   57.09    4.88 
  -2  -2 -14   60.14    4.88 
   2   2  14   61.10    4.87 
   2   2  14   55.47    4.88 
   3  -2  14   10.78    1.14 
  -3  -2 -14   11.98    1.13 
  -4  -2 -14    0.62    0.30 
   4  -2  14    0.99    0.32 
  -4   2 -14    0.65    0.29 
  -5  -2 -14    8.75    0.89 
  -5   2 -14    6.92    0.92 
  -6  -2 -14   18.10    1.52 
   6  -2  14   16.28    1.51 
   6   2  14   15.41    1.49 
  -6   2 -14   13.49    1.54 
  -7  -2 -14    4.15    0.74 
   7  -2  14    4.91    0.69 
   7   2  14    3.84    0.60 
  -7   2 -14    4.03    0.73 
  -8  -2 -14    2.70    0.56 
  -9  -2 -14   10.38    1.12 
   9  -2  14    7.57    0.98 
  -9   2 -14    8.87    1.17 
 -10  -2 -14    0.01    0.50 
  10  -2  14   -0.45    0.33 
 -10   2 -14    0.62    0.52 
  10   2  14   -0.14    0.35 
  10   2  14    0.21    0.49 
 -11  -2 -14    0.98    0.57 
  11  -2  14    0.17    0.36 
 -11   2 -14    1.14    0.59 
  11   2  14    1.11    0.39 
  11   2  14    0.71    0.55 
 -12  -2 -14   -0.02    0.57 
  12  -2  14   -0.18    0.57 
  12  -2  14   -0.47    0.34 
 -12   2 -14    1.35    0.61 
  12   2  14   -0.53    0.65 
  12   2  14    0.65    0.36 
 -13  -2 -14    4.35    0.76 
  13  -2  14    3.02    0.56 
  13  -2  14    1.20    0.71 
  13   2  14    2.89    0.55 
 -13   2 -14    3.69    0.83 
  13   2  14    2.71    0.82 
  14  -2  14    0.50    0.43 
 -14  -2 -14    1.29    0.71 
  14  -2  14   -0.10    0.55 
  14   2  14    0.57    0.43 
 -14   2 -14    0.56    0.78 
  14  -3 -14    0.54    0.79 
 -14  -3  14    0.83    0.88 
 -14   3  14   -0.11    0.63 
 -14   3  14    1.16    0.83 
 -13  -3  14    0.74    0.91 
  13  -3 -14    0.09    0.72 
 -13   3  14    0.42    0.70 
 -13   3  14    1.44    0.74 
 -13   3  14   -1.21    0.57 
 -12  -3  14    2.36    0.83 
  12  -3 -14    1.51    0.70 
 -12   3  14    1.33    0.63 
 -12   3  14    1.66    0.48 
 -12   3  14    1.75    0.57 
  11  -3 -14    6.25    1.06 
 -11   3  14    5.42    0.78 
 -11   3  14    4.41    0.70 
 -11   3  14    4.52    0.76 
  10  -3 -14    6.33    1.00 
 -10   3  14    4.39    0.75 
 -10   3  14    5.27    0.78 
 -10   3  14    5.26    0.92 
  -9   3  14   12.82    1.25 
  -9   3  14   12.31    1.27 
  -9   3  14   13.76    1.33 
  -8  -3  14    4.19    0.92 
  -8   3  14    4.24    0.72 
  -8   3  14    3.30    0.54 
  -8   3  14    3.56    0.55 
  -7  -3  14   -0.07    0.45 
  -7   3  14    0.02    0.36 
  -7   3  14   -0.33    0.32 
  -7   3  14   -0.07    0.35 
  -6  -3  14   -0.04    0.44 
  -6   3  14   -0.49    0.31 
  -6   3  14    0.20    0.36 
  -6   3  14    0.13    0.30 
  -5  -3  14    2.01    0.55 
  -5   3  14    2.70    0.45 
  -4   3  14    1.14    0.36 
  -3   3  14   37.76    3.18 
  -2  -3  14    0.57    0.31 
  -2   3  14    0.64    0.38 
  -1  -3  14    7.04    0.77 
   1  -3 -14    4.46    0.69 
  -1   3  14    5.61    0.70 
   0  -3 -14    4.11    0.60 
   0   3  14    3.69    0.58 
   1  -3  14   17.32    1.59 
  -1  -3 -14   16.88    1.55 
   1   3  14   16.57    1.51 
  -2  -3 -14    1.63    0.37 
   2  -3  14    2.59    0.49 
   2   3  14    1.74    0.40 
   3  -3  14    2.47    0.50 
  -3  -3 -14    1.09    0.35 
   3   3  14    1.26    0.46 
  -4  -3 -14    2.73    0.48 
   6  -3  14    5.03    0.80 
  -6  -3 -14    5.88    0.85 
  -6   3 -14    4.86    0.79 
  -7  -3 -14    2.56    0.59 
   7  -3  14    3.67    0.59 
  -7   3 -14    2.76    0.56 
   8  -3  14    3.54    0.66 
   8   3  14    3.98    0.73 
   9  -3  14    0.92    0.43 
  -9  -3 -14    1.27    0.61 
   9  -3  14    0.94    0.56 
   9   3  14    1.09    0.44 
  -9   3 -14    1.51    0.58 
  10  -3  14    1.77    0.72 
  10  -3  14    3.35    0.67 
 -10  -3 -14    4.35    0.75 
 -10   3 -14    3.58    0.73 
  10   3  14    3.89    0.61 
  11  -3  14   -0.27    0.65 
 -11  -3 -14    1.60    0.61 
  11  -3  14   -0.83    0.46 
  11   3  14    0.88    0.44 
 -11   3 -14   -0.09    0.61 
 -12  -3 -14    0.16    0.66 
  12  -3  14   -0.43    0.76 
  12   3  14    0.50    0.46 
 -12   3 -14    0.66    0.68 
  11  -4 -14    5.92    1.08 
 -11  -4  14   10.01    1.78 
 -11   4  14    5.73    0.99 
 -11   4  14    4.84    0.84 
 -11   4  14    6.30    1.04 
 -10  -4  14    2.26    1.06 
  10  -4 -14    0.35    0.70 
 -10   4  14    1.12    0.51 
 -10   4  14    1.27    0.54 
 -10   4  14    1.34    0.60 
  -9  -4  14    1.85    0.86 
  -9   4  14    0.55    0.51 
  -9   4  14   -0.37    0.51 
  -9   4  14   -0.15    0.45 
  -8  -4  14    1.89    1.01 
  -8   4  14    1.47    0.48 
  -8   4  14    1.73    0.49 
  -8   4  14    1.31    0.46 
  -7  -4  14    0.86    0.81 
  -7   4  14    0.42    0.42 
  -7   4  14    0.50    0.44 
  -7   4  14    0.31    0.41 
  -6  -4  14    1.87    0.69 
  -6   4  14   -0.40    0.36 
  -6   4  14    0.04    0.38 
  -6   4  14    0.02    0.42 
  -5  -4  14    6.09    0.97 
  -5   4  14    4.84    0.75 
  -5   4  14    5.28    0.75 
  -5   4  14    4.87    0.83 
  -4  -4  14    0.78    0.67 
  -4   4  14    0.26    0.45 
  -4   4  14    0.27    0.35 
  -4   4  14   -0.10    0.35 
  -3   4  14    0.97    0.44 
  -3   4  14    0.31    0.34 
  -3   4  14    0.06    0.35 
   1  -4 -14    9.58    1.07 
  -1   4  14   10.04    1.08 
   0  -4  14    8.88    1.15 
   0  -4 -14    9.22    1.03 
   0   4  14   10.42    1.07 
   2  -4  14   10.74    1.21 
  -2  -4 -14    9.99    1.13 
   2   4  14    9.93    1.15 
  -3  -4 -14    2.79    0.55 
   3   4  14    2.65    0.55 
  -4  -4 -14    5.97    0.93 
   4  -4  14    6.80    0.98 
   4   4  14    6.04    0.94 
   5  -4  14    1.42    0.48 
  -5  -4 -14    1.20    0.55 
   5   4  14    1.71    0.49 
   6  -4  14   -0.06    0.71 
  -6  -4 -14   -0.36    0.50 
   6  -4  14    0.51    0.45 
   6   4  14    0.18    0.46 
   7  -4  14    2.89    0.86 
  -7  -4 -14    5.54    1.00 
   7  -4  14    4.35    0.74 
   7   4  14    4.86    0.75 
   8  -4  14    0.40    0.53 
   8  -4  14   -1.13    0.82 
  -8  -4 -14    1.12    0.58 
   8   4  14    0.92    0.54 
   9  -4  14   -0.37    0.93 
   9  -4  14    0.15    0.62 
  -9  -4 -14    1.13    0.70 
  -9   4 -14    1.48    0.71 
   9   4  14    1.37    0.57 
  10  -4  14   -0.60    0.66 
  10  -4  14    0.21    0.98 
 -10  -4 -14    0.63    0.78 
 -10   4 -14   -0.14    0.65 
  10   4  14    0.03    0.55 
  -6  -5  14    0.98    1.03 
  -6   5  14    0.54    0.56 
  -6   5  14    0.98    0.56 
  -6   5  14   -0.28    0.66 
  -5  -5  14    0.90    0.80 
  -5   5  14   -0.11    0.55 
  -5   5  14   -0.64    0.63 
  -4  -5  14    0.49    0.91 
  -4   5  14    0.52    0.55 
  -4   5  14    1.28    0.63 
  -3   5  14    0.35    0.53 
  -3   5  14    0.63    0.56 
  -2  -5  14    0.99    0.44 
  -2   5  14    2.22    0.65 
  -2   5  14    2.18    0.59 
  -1  -5  14   -0.13    0.43 
  -1   5  14    0.73    0.55 
  -1   5  14    0.32    0.57 
   0   5  14   -0.36    0.56 
   0   5  14    0.07    0.53 
  -1  -5 -14    4.68    0.79 
   1  -5  14    5.07    0.93 
   1   5  14    5.36    0.83 
   1   5  14    5.04    0.80 
   2  -5  14    0.63    0.56 
  -2  -5 -14    1.28    0.57 
   2   5  14    1.70    0.63 
   2   5  14    1.76    0.64 
   3  -5  14    1.45    0.60 
  -3  -5 -14    1.55    0.64 
   3   5  14    1.47    0.64 
   3   5  14    1.01    0.64 
  -4  -5 -14   -0.72    0.56 
   4  -5  14   -0.49    0.55 
   4  -5  14    0.45    0.93 
   4   5  14   -1.26    0.59 
   4   5  14    0.01    0.62 
 -16   0  15    0.20    1.10 
 -16   0  15    0.84    0.70 
 -15   0  15   -0.37    0.58 
 -15   0  15   -0.15    0.96 
 -14   0  15    0.76    0.84 
 -14   0  15   -0.09    0.49 
 -13   0  15   -0.42    0.46 
 -13   0  15    0.53    0.63 
 -13   0  15   -0.08    0.72 
 -12   0  15    0.46    0.41 
 -12   0  15   -0.57    0.55 
 -11   0  15   -0.86    0.57 
 -11   0  15   -0.01    0.38 
 -10   0  15    0.22    0.47 
 -10   0  15   -0.08    0.39 
  -9   0  15    0.03    0.35 
  -9   0  15   -0.42    0.35 
  -8   0  15    0.55    0.34 
  -8   0  15   -0.45    0.32 
  -7   0  15   -0.19    0.31 
  -7   0  15    0.20    0.30 
  -6   0  15    0.37    0.31 
  -6   0  15   -0.27    0.28 
  -5   0  15    0.28    0.24 
  -5   0  15    0.26    0.30 
  -4   0  15   -0.41    0.32 
  -4   0  15    0.13    0.25 
  -3   0  15   -0.07    0.24 
  -3   0  15   -0.15    0.29 
  -2   0  15   -0.15    0.26 
  -2   0  15   -0.24    0.24 
   1   0 -15   -0.22    0.21 
  -1   0  15    0.18    0.26 
   0   0  15    0.47    0.31 
   0   0 -15    0.14    0.21 
   1   0  15   -0.17    0.24 
  -1   0 -15    0.24    0.22 
   2   0  15    0.16    0.25 
  -2   0 -15   -0.24    0.23 
  -3   0 -15    0.09    0.23 
   3   0  15   -0.07    0.29 
  -4   0 -15   -0.33    0.26 
   4   0  15   -0.17    0.23 
  -5   0 -15    0.61    0.60 
   5   0  15    0.30    0.25 
   6   0  15   -0.19    0.23 
  -6   0 -15    0.19    0.36 
  -7   0 -15    0.76    0.42 
   7   0  15    0.41    0.24 
   8   0  15   -0.26    0.36 
  -8   0 -15    0.68    0.47 
  -9   0 -15    0.29    0.54 
 -10   0 -15    0.16    0.57 
 -11   0 -15   -0.48    0.62 
  11   0  15    0.11    0.58 
  12   0  15   -0.25    0.27 
  12   0  15   -0.07    0.63 
 -12   0 -15   -0.46    0.59 
  13   0  15   -0.46    0.57 
 -13   0 -15   -0.53    0.63 
  13   0  15   -0.57    0.31 
  14   0  15   -0.02    0.35 
 -14   0 -15   -0.67    0.67 
  14   0  15   -0.05    0.88 
  15  -1 -15    1.40    0.61 
 -15  -1  15    1.58    1.09 
 -15  -1  15    1.09    0.79 
 -15   1  15    0.64    0.95 
 -15   1  15    2.19    0.91 
 -15   1  15    1.32    0.61 
  14  -1 -15    0.05    0.53 
 -14  -1  15    0.55    0.91 
 -14  -1  15    0.62    0.68 
 -14   1  15    0.94    0.79 
 -14   1  15    0.60    0.78 
 -13  -1  15    1.52    0.68 
 -13   1  15    2.85    0.73 
 -13   1  15    2.10    0.78 
 -13   1  15    1.99    0.54 
 -12  -1  15    1.37    0.60 
 -12  -1  15    0.29    0.53 
 -12   1  15   -0.15    0.40 
 -12   1  15   -0.35    0.54 
 -12   1  15    0.04    0.64 
 -11  -1  15    0.70    0.52 
 -11  -1  15   -0.07    0.46 
 -11   1  15    0.68    0.56 
 -11   1  15    1.14    0.57 
 -10  -1  15    2.30    0.55 
 -10  -1  15    1.64    0.54 
 -10   1  15    1.78    0.56 
  -9  -1  15    1.22    0.41 
  -9  -1  15    0.51    0.37 
  -9   1  15    0.20    0.35 
  -9   1  15    0.26    0.35 
  -8  -1  15    5.83    0.84 
  -8  -1  15    6.25    0.86 
  -8   1  15    5.67    0.87 
  -8   1  15    7.97    0.79 
  -7  -1  15    1.03    0.38 
  -7  -1  15    0.72    0.34 
  -7   1  15    0.96    0.37 
  -7   1  15    1.38    0.35 
  -6  -1  15    2.11    0.44 
  -6  -1  15    2.32    0.41 
  -6   1  15    2.94    0.49 
  -6   1  15    1.75    0.53 
  -5  -1  15    0.12    0.25 
  -5  -1  15   -0.23    0.36 
  -5   1  15    0.29    0.28 
  -4  -1  15    0.31    0.33 
  -4  -1  15    0.47    0.28 
  -4   1  15    0.24    0.29 
  -4   1  15   -0.52    0.51 
  -3  -1  15   10.07    1.01 
  -3  -1  15    8.99    0.97 
  -3   1  15    8.43    1.15 
  -3   1  15    9.92    0.95 
  -2  -1  15    2.52    0.45 
  -2   1  15    2.35    0.40 
   1  -1 -15    4.87    0.65 
  -1   1  15    6.46    0.70 
   0  -1 -15    2.77    0.44 
   0  -1  15    3.07    0.48 
   0   1  15    2.65    0.47 
   0   1  15    2.93    0.60 
   1  -1  15    0.06    0.26 
  -1  -1 -15    0.13    0.23 
   1   1  15    0.30    0.26 
  -1   1 -15   -0.01    0.21 
  -2  -1 -15    2.40    0.44 
  -2   1 -15    2.18    0.37 
   2   1  15    2.36    0.39 
  -3  -1 -15   18.10    1.84 
   3  -1  15   24.19    1.87 
   3   1  15   22.39    1.82 
  -3   1 -15   17.99    1.80 
   4  -1  15    8.66    0.98 
  -4  -1 -15    9.24    0.92 
  -4   1 -15    6.97    0.87 
   4   1  15    7.52    0.83 
   5  -1  15   10.65    1.01 
  -5  -1 -15    9.15    1.02 
  -5   1 -15    8.65    1.03 
  -6  -1 -15    7.17    0.88 
   6  -1  15    5.57    0.75 
  -6   1 -15    5.47    0.84 
   7  -1  15    1.15    0.36 
  -7  -1 -15    0.81    0.42 
  -7   1 -15    0.97    0.47 
  -8  -1 -15    2.67    0.59 
   8  -1  15    3.46    0.62 
  -8   1 -15    2.93    0.64 
   9  -1  15    2.29    0.42 
  -9  -1 -15    2.36    0.58 
  -9   1 -15    3.19    0.71 
  10  -1  15    0.30    0.37 
  10  -1  15    1.15    0.31 
 -10  -1 -15    1.12    0.57 
 -10   1 -15    0.94    0.66 
  10   1  15    0.35    0.31 
 -11  -1 -15    1.12    0.67 
  11  -1  15    1.27    0.45 
  11  -1  15    0.43    0.31 
  11   1  15    0.29    0.31 
 -11   1 -15    1.09    0.63 
 -12  -1 -15    0.06    0.63 
  12  -1  15   -0.33    0.29 
  12  -1  15   -0.03    0.55 
 -12   1 -15   -0.02    0.63 
  12   1  15    0.05    0.31 
 -13  -1 -15    0.32    0.66 
  13  -1  15   -0.56    0.65 
  13  -1  15    0.04    0.32 
  13   1  15   -0.03    0.63 
 -13   1 -15    1.01    0.74 
  13   1  15    0.62    0.37 
  14  -1  15   -0.43    0.36 
 -14  -1 -15    0.46    0.69 
  14  -1  15    0.82    0.77 
 -14   1 -15    0.58    0.76 
  14   1  15    0.17    0.80 
  14   1  15   -0.32    0.38 
 -14  -2  15    0.20    0.86 
 -14  -2  15    0.19    1.20 
  14  -2 -15    1.19    0.64 
 -14   2  15   -0.31    0.53 
 -14   2  15    0.25    0.84 
 -14   2  15   -0.17    0.85 
  13  -2 -15    0.38    0.56 
 -13  -2  15   -0.35    0.78 
 -13   2  15   -0.51    0.45 
 -13   2  15    0.79    0.73 
 -13   2  15    0.64    0.70 
 -12  -2  15    1.02    0.68 
  12  -2 -15   -0.03    0.52 
 -12   2  15    0.11    0.47 
 -12   2  15   -0.08    0.59 
 -12   2  15   -0.56    0.41 
 -11   2  15    4.52    0.68 
 -11   2  15    3.58    0.72 
 -11   2  15    4.15    0.62 
 -10  -2  15    6.44    1.14 
 -10   2  15    3.77    0.72 
 -10   2  15    4.07    0.62 
 -10   2  15    4.89    0.88 
  -9  -2  15    5.49    0.81 
  -9  -2  15    3.88    0.72 
  -9   2  15    4.15    0.75 
  -9   2  15    4.39    0.69 
  -9   2  15    4.26    0.70 
  -8  -2  15    0.53    0.33 
  -8   2  15    0.16    0.36 
  -8   2  15   -0.18    0.37 
  -7  -2  15   17.84    1.64 
  -7  -2  15   16.26    1.75 
  -7   2  15   18.85    1.63 
  -6  -2  15    1.60    0.49 
  -6  -2  15    2.10    0.54 
  -6   2  15    2.31    0.47 
  -6   2  15    3.41    0.56 
  -5  -2  15    0.66    0.37 
  -5  -2  15    1.21    0.36 
  -5   2  15    0.76    0.32 
  -5   2  15    0.78    0.38 
  -4  -2  15    3.47    0.65 
  -4  -2  15    3.92    0.65 
  -4   2  15    4.59    0.61 
  -4   2  15    3.26    0.57 
  -3   2  15    0.43    0.33 
  -3   2  15    1.03    0.31 
  -2  -2  15   19.27    1.57 
  -2   2  15   16.21    1.54 
  -2   2  15   15.56    1.54 
   1  -2 -15    8.90    1.05 
  -1   2  15   12.09    1.08 
  -1   2  15   11.86    1.09 
   0  -2  15    7.78    0.98 
   0  -2 -15    9.56    0.97 
   0   2  15   10.60    0.98 
   0   2  15    9.81    1.03 
  -1  -2 -15   -0.02    0.26 
   1   2  15   -0.25    0.28 
   2  -2  15   12.95    1.29 
  -2  -2 -15   12.93    1.25 
  -3  -2 -15    2.50    0.48 
   3  -2  15    3.51    0.54 
  -4  -2 -15    2.06    0.43 
  -4   2 -15    1.62    0.38 
  -5  -2 -15    4.75    0.71 
  -5   2 -15    3.94    0.72 
  -6  -2 -15   10.70    1.09 
   6  -2  15   10.09    1.10 
  -6   2 -15    8.20    1.07 
  -7  -2 -15    4.81    0.82 
   7  -2  15    5.37    0.80 
  -7   2 -15    4.02    0.71 
   8  -2  15    7.68    0.87 
  -8  -2 -15    6.53    0.96 
   8   2  15    5.93    0.79 
  -8   2 -15    5.86    0.93 
   9  -2  15    3.95    0.59 
  -9  -2 -15    4.63    0.73 
   9   2  15    2.99    0.52 
  -9   2 -15    4.93    0.87 
  10  -2  15    0.66    0.39 
  10  -2  15    0.68    0.51 
 -10  -2 -15    0.93    0.52 
 -10   2 -15    1.06    0.58 
  10   2  15    0.15    0.37 
 -11  -2 -15    0.53    0.60 
  11  -2  15    0.31    0.45 
  11  -2  15    0.99    0.42 
  11   2  15    0.70    0.59 
  11   2  15    1.14    0.39 
 -11   2 -15    0.16    0.61 
  12  -2  15    0.86    0.70 
  12  -2  15   -0.14    0.38 
 -12  -2 -15    0.86    0.61 
  12   2  15    1.32    0.40 
  12   2  15    0.64    0.75 
 -12   2 -15    0.35    0.69 
  13  -2  15    2.35    0.49 
 -13  -2 -15    1.49    0.69 
  13  -2  15    0.31    0.75 
 -13   2 -15    2.32    0.82 
  13   2  15    1.59    0.48 
  13  -3 -15    1.87    0.80 
 -13  -3  15    2.26    0.97 
 -13   3  15    1.29    0.68 
 -13   3  15    1.62    0.77 
 -13   3  15    2.32    1.06 
 -12  -3  15    3.65    0.93 
  12  -3 -15    2.60    0.76 
 -12   3  15    2.83    0.70 
 -12   3  15    2.74    0.62 
 -12   3  15    1.65    0.54 
 -11  -3  15    1.76    0.78 
  11  -3 -15   -0.85    0.59 
 -11   3  15   -0.01    0.55 
 -11   3  15    0.41    0.48 
 -11   3  15    0.38    0.44 
 -10  -3  15    1.39    0.78 
 -10   3  15    0.33    0.47 
 -10   3  15    0.20    0.40 
 -10   3  15    0.31    0.46 
  -9  -3  15   -0.68    0.71 
  -9   3  15    0.38    0.38 
  -9   3  15   -0.39    0.41 
  -9   3  15    0.30    0.42 
  -8  -3  15    2.38    0.79 
  -8   3  15    1.37    0.43 
  -8   3  15    1.01    0.39 
  -8   3  15    1.04    0.45 
  -7  -3  15    0.58    0.52 
  -7   3  15   -0.10    0.33 
  -7   3  15   -0.30    0.36 
  -7   3  15    0.62    0.41 
  -6  -3  15    0.68    0.51 
  -6   3  15    0.55    0.32 
  -6   3  15    1.32    0.40 
  -5  -3  15   -0.47    0.48 
  -5   3  15    0.43    0.35 
  -4  -3  15    1.89    0.54 
  -4   3  15    0.83    0.37 
  -3  -3  15    5.11    0.76 
  -3   3  15    5.16    0.68 
  -2   3  15    0.90    0.37 
  -1  -3  15   16.89    1.57 
   1  -3 -15   16.09    1.55 
  -1   3  15   16.80    1.51 
   0  -3 -15    0.65    0.33 
   0   3  15   -0.29    0.63 
  -1  -3 -15    7.42    0.89 
   1   3  15    7.57    0.95 
  -2  -3 -15    9.04    1.03 
   2   3  15   10.12    0.99 
  -3  -3 -15    5.01    0.77 
   3   3  15    5.89    0.73 
  -4  -3 -15    0.81    0.39 
   4   3  15    1.51    0.52 
  -5  -3 -15    4.13    0.76 
   5   3  15    3.67    0.66 
  -6  -3 -15    3.45    0.64 
   6   3  15    4.99    0.71 
  -7  -3 -15   12.89    1.41 
   7  -3  15   14.56    1.42 
  -7   3 -15   11.85    1.40 
   7   3  15   13.69    1.35 
  -8  -3 -15    3.74    0.69 
   8  -3  15    4.81    0.68 
   8  -3  15    2.02    0.73 
  -8   3 -15    3.16    0.65 
   8   3  15    3.77    0.58 
   9  -3  15    3.13    0.63 
   9  -3  15    3.14    0.60 
  -9   3 -15    5.13    0.90 
   9   3  15    2.85    0.57 
 -10  -3 -15    0.75    0.69 
  10  -3  15    0.51    0.50 
  10  -3  15   -0.12    0.69 
  10   3  15    0.14    0.46 
 -10   3 -15   -0.12    0.76 
  11  -3  15    0.80    0.62 
  11  -3  15    0.66    0.55 
 -11  -3 -15    0.76    0.68 
 -11   3 -15    1.18    0.72 
  11   3  15    0.81    0.48 
 -10  -4  15    4.10    1.13 
 -10   4  15    3.50    0.67 
 -10   4  15    1.93    0.66 
  -9  -4  15    3.64    1.05 
  -9   4  15    1.25    0.52 
  -9   4  15    2.12    0.57 
  -9   4  15    1.72    0.56 
  -8  -4  15    4.37    1.25 
  -8   4  15    2.58    0.50 
  -8   4  15    2.06    0.57 
  -8   4  15    2.94    0.55 
  -7  -4  15    1.83    0.93 
  -7   4  15    0.86    0.45 
  -7   4  15    0.73    0.47 
  -7   4  15    0.92    0.46 
  -6  -4  15    1.98    0.77 
  -6   4  15    1.43    0.48 
  -6   4  15    0.84    0.45 
  -6   4  15    0.14    0.39 
  -5   4  15    1.67    0.42 
  -5   4  15    2.25    0.46 
  -5   4  15    1.51    0.49 
  -4  -4  15    8.13    1.24 
  -4   4  15    6.26    0.92 
  -4   4  15    6.72    0.88 
  -4   4  15    7.10    0.87 
  -2  -4  15    7.93    1.02 
  -2   4  15    7.37    0.90 
  -2   4  15    6.95    0.97 
  -2   4  15    8.33    0.95 
  -1  -4  15    5.71    1.02 
   0  -4 -15    4.52    0.79 
   0  -4  15    5.96    0.97 
   0   4  15    6.51    0.86 
  -2  -4 -15   19.84    1.88 
   2  -4  15   19.45    1.95 
   2   4  15   20.61    1.91 
  -4  -4 -15   10.82    1.24 
   4  -4  15    9.96    1.31 
   4   4  15   11.60    1.27 
  -5  -4 -15    0.75    0.50 
   5  -4  15   -0.09    0.52 
   5   4  15   -0.31    0.48 
   6  -4  15    0.88    0.86 
   6  -4  15   -0.11    0.47 
  -6  -4 -15   -0.47    0.57 
   6   4  15    0.33    0.51 
   7  -4  15    0.82    0.91 
   7  -4  15    0.16    0.52 
  -7  -4 -15   -0.19    0.62 
   7   4  15   -0.71    0.56 
  -8  -4 -15    3.00    0.78 
   8  -4  15    2.87    0.74 
   8   4  15    4.91    0.75 
  -2   5  15   -0.22    0.56 
  -2   5  15    0.28    0.60 
  -1  -5  15    5.51    1.00 
  -1   5  15    4.83    0.85 
  -1   5  15    4.77    0.82 
   0  -5  15    0.67    0.73 
   0   5  15    1.56    0.66 
   0   5  15    1.60    0.67 
   1  -5  15   -0.02    0.51 
  -1  -5 -15   -0.11    0.60 
   1   5  15   -1.15    0.57 
   1   5  15    0.25    0.66 
 -15   0  16    5.00    1.23 
 -15   0  16    5.48    1.14 
 -14   0  16   10.31    1.59 
 -14   0  16    7.20    1.33 
 -14   0  16    8.36    1.21 
 -13   0  16   -0.10    0.49 
 -13   0  16   -0.43    0.66 
 -13   0  16   -0.41    0.75 
 -12   0  16    0.48    0.63 
 -12   0  16    0.71    0.46 
 -11   0  16   -0.12    0.43 
 -11   0  16    1.19    0.57 
 -10   0  16    0.18    0.40 
 -10   0  16    0.02    0.49 
  -9   0  16    0.83    0.42 
  -9   0  16    1.24    0.72 
  -8   0  16    4.34    0.64 
  -8   0  16    5.06    0.71 
  -7   0  16    0.89    0.37 
  -7   0  16    0.51    0.36 
  -6   0  16    3.30    0.56 
  -6   0  16    3.84    0.64 
  -5   0  16    6.40    0.83 
  -5   0  16    5.36    0.74 
  -4   0  16    0.20    0.29 
  -4   0  16    0.12    0.35 
  -3   0  16    0.17    0.28 
  -3   0  16    0.02    0.34 
  -2   0  16    8.74    0.90 
  -2   0  16    6.30    0.85 
  -1   0  16   31.27    2.72 
   0   0  16   83.67    7.21 
   0   0 -16   84.67    6.95 
   1   0  16    3.49    0.61 
  -1   0 -16    2.15    0.41 
   2   0  16   25.33    2.12 
  -2   0 -16   22.72    2.10 
  -3   0 -16    3.84    0.64 
   3   0  16    3.97    0.62 
   4   0  16    1.15    0.35 
  -4   0 -16    0.79    0.38 
  -5   0 -16    1.81    0.47 
   5   0  16    2.40    0.42 
   6   0  16   11.16    1.17 
  -6   0 -16   12.56    1.28 
   7   0  16    0.62    0.30 
  -7   0 -16    0.13    0.46 
  -9   0 -16    0.25    0.55 
   9   0  16    0.87    0.50 
  11   0  16    0.50    0.29 
  11   0  16    0.67    0.48 
 -11   0 -16    0.44    0.72 
  12   0  16   -0.18    0.32 
  12   0  16    0.52    0.58 
 -12   0 -16    1.19    0.76 
 -13   0 -16    0.65    0.84 
  13   0  16    0.10    0.64 
  13   0  16    0.71    0.35 
 -14  -1  16    1.25    0.80 
 -14  -1  16   -0.49    0.96 
 -14  -1  16    0.38    0.74 
 -14   1  16   -0.77    0.50 
 -14   1  16    0.47    0.89 
 -14   1  16   -0.93    0.71 
 -13  -1  16    6.32    0.99 
 -13  -1  16    4.66    0.93 
 -13   1  16    3.30    0.71 
 -13   1  16    5.83    1.02 
 -13   1  16    4.42    0.94 
 -12  -1  16   -0.82    0.49 
 -12  -1  16    0.74    0.58 
 -12   1  16   -0.19    0.64 
 -12   1  16   -0.24    0.43 
 -12   1  16    0.30    0.70 
 -11  -1  16    2.74    0.63 
 -11  -1  16    2.62    0.65 
 -11   1  16    1.10    0.50 
 -11   1  16    2.09    0.58 
 -10  -1  16    2.44    0.62 
 -10  -1  16    2.93    0.55 
 -10   1  16    2.66    0.54 
 -10   1  16    2.41    0.49 
  -9  -1  16    0.38    0.37 
  -9   1  16    0.12    0.38 
  -9   1  16    1.00    0.40 
  -8  -1  16   11.50    1.15 
  -8  -1  16   11.04    1.18 
  -8   1  16   10.45    1.10 
  -8   1  16   10.27    1.18 
  -7  -1  16    6.35    0.87 
  -7  -1  16    5.95    0.86 
  -7   1  16    7.64    0.85 
  -7   1  16    6.47    0.89 
  -6  -1  16    1.80    0.40 
  -6  -1  16    1.72    0.43 
  -6   1  16    1.92    0.38 
  -6   1  16    1.39    0.44 
  -5  -1  16    0.40    0.31 
  -5  -1  16    0.18    0.36 
  -5   1  16    0.17    0.29 
  -5   1  16   -0.20    0.31 
  -4  -1  16    1.17    0.34 
  -4  -1  16    1.10    0.40 
  -4   1  16    0.80    0.35 
  -4   1  16    0.80    0.39 
  -3  -1  16    3.10    0.52 
  -3  -1  16    2.89    0.53 
  -3   1  16    2.52    0.47 
  -3   1  16    2.87    0.49 
  -2   1  16   -0.26    0.28 
  -2   1  16   -0.11    0.29 
   1  -1 -16   10.07    1.16 
  -1   1  16   14.50    1.23 
  -1   1  16   12.48    1.24 
   0  -1 -16    6.53    0.81 
   0   1  16    7.74    0.89 
   0   1  16    7.82    0.89 
   1  -1  16   34.64    2.91 
   1   1  16   31.43    2.90 
  -1   1 -16   35.17    2.86 
  -2  -1 -16    0.15    0.27 
   2   1  16   -0.02    0.26 
  -2   1 -16    0.28    0.26 
  -3  -1 -16    7.94    0.95 
   3  -1  16    9.93    0.98 
  -3   1 -16    8.35    0.95 
   3   1  16    8.95    0.91 
   4  -1  16    1.06    0.37 
  -4  -1 -16    0.58    0.33 
   4   1  16    0.55    0.28 
  -4   1 -16    0.53    0.32 
  -5  -1 -16    2.49    0.52 
   5  -1  16    3.11    0.52 
  -5   1 -16    2.54    0.50 
  -6  -1 -16    0.70    0.42 
   6  -1  16    0.43    0.35 
   7  -1  16    2.62    0.49 
  -7  -1 -16    1.19    0.52 
  -7   1 -16    1.81    0.50 
  -8  -1 -16    5.40    0.95 
   8  -1  16    6.18    0.83 
  -8   1 -16    5.16    0.84 
  -9  -1 -16    3.96    0.70 
   9  -1  16    3.69    0.57 
  -9   1 -16    4.00    0.76 
  10  -1  16    0.71    0.31 
 -10  -1 -16   -0.19    0.57 
  10   1  16   -0.04    0.30 
 -10   1 -16   -0.11    0.67 
  11  -1  16    0.53    0.57 
 -11  -1 -16   -0.65    0.61 
  11  -1  16   -0.20    0.30 
 -11   1 -16    0.46    0.75 
  11   1  16    1.00    0.78 
  12  -1  16    1.68    0.43 
  12  -1  16    1.37    0.54 
 -12  -1 -16    1.63    0.74 
  12   1  16    2.30    0.65 
  12   1  16    1.83    0.41 
 -12   1 -16    2.60    0.93 
  13  -1  16   -0.98    0.57 
  13  -1  16    0.21    0.36 
 -13  -1 -16    0.20    0.76 
  13   1  16   -0.29    0.71 
 -13   1 -16    0.30    0.75 
  13   1  16   -0.24    0.38 
 -13  -2  16   -0.13    0.79 
 -13  -2  16   -0.22    0.63 
 -13   2  16   -0.10    0.78 
 -13   2  16    0.08    0.76 
 -13   2  16   -0.15    0.50 
 -12  -2  16   -0.44    0.59 
 -12  -2  16    0.97    0.71 
 -12   2  16   -0.28    0.45 
 -12   2  16    0.24    0.58 
 -12   2  16    0.68    0.49 
 -11  -2  16    9.85    1.34 
 -11  -2  16    7.92    1.13 
 -11   2  16    7.19    0.97 
 -11   2  16    7.49    1.14 
 -11   2  16    7.09    0.95 
 -10  -2  16    4.25    0.63 
 -10  -2  16    4.90    0.89 
 -10   2  16    4.07    0.78 
 -10   2  16    3.51    0.66 
 -10   2  16    4.58    0.66 
  -9  -2  16   -0.66    0.71 
  -9  -2  16    0.14    0.36 
  -9   2  16    0.96    0.43 
  -9   2  16    0.23    0.41 
  -8  -2  16    0.27    0.53 
  -8   2  16    0.23    0.40 
  -8   2  16   -0.30    0.36 
  -7   2  16    0.87    0.41 
  -7   2  16    1.44    0.43 
  -6  -2  16   52.95    3.95 
  -6  -2  16   44.03    3.97 
  -6   2  16   43.65    3.88 
  -6   2  16   44.13    3.92 
  -5  -2  16    7.28    0.99 
  -5  -2  16    8.29    1.00 
  -5   2  16    9.31    0.98 
  -4  -2  16    0.22    0.35 
  -4  -2  16    0.46    0.41 
  -4   2  16    0.01    0.32 
  -4   2  16    0.54    0.35 
  -3  -2  16    6.64    0.91 
  -2  -2  16   10.21    1.09 
  -2   2  16    8.77    1.03 
  -2   2  16   11.23    1.06 
  -1  -2  16    1.03    0.35 
   1  -2 -16    0.00    0.27 
  -1   2  16    0.45    0.31 
  -1   2  16    0.05    0.32 
   0  -2 -16    3.18    0.59 
   0   2  16    3.32    0.62 
   0   2  16    2.89    0.49 
  -1  -2 -16   11.99    1.25 
   1  -2  16   13.37    1.29 
   1   2  16   12.83    1.25 
  -2  -2 -16    4.15    0.67 
   2  -2  16    5.69    0.88 
   2   2  16    3.49    0.69 
  -3  -2 -16    6.42    0.82 
   3  -2  16    4.77    0.99 
   4  -2  16    2.03    0.48 
  -4  -2 -16    0.76    0.41 
  -5  -2 -16    0.24    0.39 
   5  -2  16    0.43    0.42 
  -5   2 -16    0.08    0.35 
  -6  -2 -16    2.87    0.60 
  -6   2 -16    2.89    0.57 
  -7  -2 -16    7.24    0.94 
   7  -2  16    6.03    0.85 
  -7   2 -16    4.51    0.72 
   7   2  16    4.67    0.78 
  -8  -2 -16    5.85    0.98 
   8  -2  16    4.78    0.78 
   8   2  16    3.16    0.56 
  -8   2 -16    4.14    0.75 
   9  -2  16    1.38    0.42 
  -9  -2 -16    0.60    0.56 
  -9   2 -16    0.29    0.58 
   9   2  16   -0.40    0.35 
  10  -2  16    4.42    0.68 
 -10  -2 -16    5.61    1.02 
 -10   2 -16    6.81    1.04 
  10   2  16    4.12    0.66 
 -11  -2 -16    0.74    0.65 
  11  -2  16    0.45    0.45 
  11  -2  16    0.31    0.63 
 -11   2 -16   -0.67    0.78 
  11   2  16    0.68    0.44 
 -12  -2 -16    0.47    0.67 
  12  -2  16   -0.86    0.41 
  12  -2  16    0.07    0.53 
 -12   2 -16    0.82    0.76 
  12   2  16    0.64    0.40 
 -11  -3  16    1.99    0.85 
 -11   3  16    1.15    0.52 
 -11   3  16    1.22    0.60 
 -11   3  16    0.87    0.46 
 -10  -3  16    0.97    0.81 
 -10   3  16    0.44    0.44 
 -10   3  16    0.96    0.52 
 -10   3  16    0.30    0.47 
  -9  -3  16   -0.63    0.76 
  -9   3  16    0.44    0.50 
  -9   3  16    0.18    0.41 
  -9   3  16    0.42    0.45 
  -8  -3  16    1.97    0.78 
  -8   3  16    0.20    0.44 
  -8   3  16    0.06    0.37 
  -8   3  16    0.61    0.43 
  -7  -3  16    3.97    0.77 
  -7   3  16    3.81    0.68 
  -7   3  16    4.18    0.76 
  -6  -3  16    3.47    0.67 
  -6   3  16    2.04    0.49 
  -6   3  16    1.23    0.47 
  -5  -3  16    4.49    0.84 
  -5   3  16    5.27    0.77 
  -5   3  16    5.55    0.76 
  -4  -3  16    5.43    0.81 
  -4  -3  16    3.82    0.78 
  -3  -3  16    8.75    1.01 
  -3   3  16    8.15    0.93 
  -2  -3  16    4.40    0.77 
  -2   3  16    3.09    0.53 
  -1   3  16    3.48    0.64 
   0  -3 -16    4.75    0.71 
   0  -3  16    4.77    0.69 
   0   3  16    3.48    0.67 
  -1  -3 -16   -0.10    0.36 
   1   3  16   -0.11    0.34 
   2  -3  16    5.22    1.07 
  -2  -3 -16    4.46    0.81 
   2   3  16    6.80    0.79 
   3  -3  16    0.98    0.52 
  -3  -3 -16    0.30    0.36 
   3   3  16    0.39    0.35 
   3   3  16    0.38    0.38 
  -4  -3 -16    1.66    0.48 
   4   3  16    1.57    0.42 
   4   3  16    2.17    0.43 
  -5  -3 -16    4.34    0.71 
   5   3  16    4.96    0.75 
  -6  -3 -16    6.04    1.02 
   6   3  16    7.78    0.91 
  -7  -3 -16    8.76    1.09 
  -7   3 -16    6.64    1.05 
   7   3  16    7.17    1.00 
  -8  -3 -16   11.47    1.20 
   8  -3  16    7.31    1.18 
   8   3  16    9.52    1.10 
  -8   3 -16    8.33    1.20 
   9  -3  16    1.02    0.55 
   9  -3  16    0.65    0.81 
  -9  -3 -16    1.07    0.62 
  -9   3 -16    0.29    0.64 
   9   3  16   -0.11    0.47 
 -10  -3 -16    2.18    0.69 
  10  -3  16    1.35    0.56 
  10  -3  16    1.14    0.64 
 -10   3 -16    1.22    0.79 
  10   3  16    1.84    0.56 
  -8  -4  16    1.45    1.10 
  -8   4  16    0.56    0.48 
  -8   4  16    0.50    0.47 
  -8   4  16   -0.39    0.48 
  -7  -4  16    1.44    0.95 
  -7   4  16    0.99    0.49 
  -7   4  16    0.73    0.47 
  -6  -4  16    1.41    0.79 
  -6   4  16    1.73    0.51 
  -6   4  16    1.48    0.50 
  -6   4  16    1.70    0.47 
  -5  -4  16    1.07    0.76 
  -5   4  16    0.38    0.46 
  -5   4  16    0.02    0.38 
  -5   4  16    0.32    0.42 
  -4   4  16    0.94    0.40 
  -4   4  16    0.38    0.47 
  -4   4  16    1.61    0.42 
  -3   4  16    5.29    0.87 
  -3   4  16    6.66    0.85 
  -3   4  16    5.86    0.84 
  -2  -4  16   12.96    1.36 
  -2   4  16   12.24    1.34 
  -1  -4  16    4.13    0.74 
   0  -4  16    7.67    1.22 
   0   4  16    5.94    0.95 
   1  -4  16    0.96    0.56 
  -1  -4 -16    1.63    0.47 
   1   4  16    1.39    0.52 
  -2  -4 -16   -0.09    0.44 
   2  -4  16    0.78    0.50 
   2   4  16   -0.07    0.50 
   3  -4  16    0.05    0.54 
  -3  -4 -16    0.07    0.43 
   3   4  16    0.44    0.46 
  -4  -4 -16    0.07    0.47 
   4  -4  16    1.36    0.53 
   4   4  16    0.02    0.50 
  -5  -4 -16    0.88    0.53 
   5   4  16    0.48    0.57 
   6  -4  16    3.50    0.66 
  -6  -4 -16    1.75    0.67 
   6   4  16    3.05    0.68 
   7  -4  16    0.34    0.56 
  -7  -4 -16   -0.60    0.87 
   7  -4  16    0.63    1.08 
   7   4  16   -0.98    0.64 
 -14   0  17    0.18    0.90 
 -14   0  17   -0.13    0.96 
 -14   0  17   -0.44    0.55 
 -13   0  17   -0.65    0.75 
 -13   0  17   -1.17    0.80 
 -13   0  17   -0.37    0.52 
 -12   0  17   -0.66    0.61 
 -12   0  17   -0.10    0.50 
 -11   0  17   -0.25    0.44 
 -11   0  17    0.07    0.47 
 -10   0  17   -0.25    0.43 
 -10   0  17   -0.39    0.41 
  -9   0  17    0.50    0.37 
  -9   0  17    0.47    0.43 
  -8   0  17    0.38    0.38 
  -8   0  17    0.75    0.35 
  -7   0  17    0.01    0.37 
  -7   0  17   -0.45    0.34 
  -6   0  17   -0.18    0.49 
  -6   0  17   -0.05    0.35 
  -5   0  17    0.18    0.29 
  -4   0  17    0.34    0.32 
  -3   0  17    0.42    0.31 
  -3   0  17    0.23    0.44 
  -2   0  17   -0.02    0.34 
  -2   0  17   -0.36    0.31 
  -1   0  17    0.13    0.38 
  -1   0  17    0.28    0.33 
   0   0 -17    0.71    0.31 
   0   0  17    0.29    0.33 
   1   0  17   -0.01    0.32 
  -1   0 -17   -0.18    0.25 
  -2   0 -17    0.13    0.27 
   2   0  17   -0.04    0.30 
   3   0  17   -0.26    0.30 
  -3   0 -17    0.11    0.31 
   4   0  17   -0.54    0.33 
  -4   0 -17    0.35    0.34 
   5   0  17   -0.19    0.33 
  -5   0 -17   -0.10    0.35 
   6   0  17    0.09    0.35 
  -6   0 -17    0.17    0.42 
  -7   0 -17    0.62    0.49 
   7   0  17   -0.07    0.31 
  -8   0 -17    0.13    0.54 
   8   0  17   -0.29    0.33 
  -9   0 -17    0.00    0.57 
   9   0  17    0.04    0.37 
  10   0  17    0.47    0.32 
 -10   0 -17   -0.01    0.66 
  11   0  17    0.69    0.31 
 -11   0 -17    0.39    0.69 
  11   0  17    0.51    0.60 
  12   0  17   -0.25    0.34 
 -12   0 -17    0.11    0.84 
  12   0  17   -1.12    0.61 
 -13  -1  17    1.02    0.73 
 -13  -1  17    2.73    0.81 
 -13   1  17    2.24    0.85 
 -13   1  17    1.61    0.60 
 -13   1  17    2.63    0.90 
 -12  -1  17    2.97    0.70 
 -12   1  17    2.49    0.81 
 -12   1  17    1.87    0.66 
 -11  -1  17    0.49    0.58 
 -11  -1  17    0.25    0.47 
 -11   1  17    0.42    0.51 
 -11   1  17    0.18    0.45 
 -10  -1  17   -0.02    0.44 
 -10  -1  17    1.10    0.52 
 -10   1  17   -0.03    0.40 
 -10   1  17    0.10    0.44 
  -9  -1  17    0.61    0.44 
  -9  -1  17    1.06    0.39 
  -9   1  17    1.57    0.44 
  -9   1  17    1.07    0.45 
  -8  -1  17    2.75    0.52 
  -8  -1  17    1.68    0.56 
  -8   1  17    2.24    0.52 
  -8   1  17    2.73    0.49 
  -7  -1  17    0.30    0.37 
  -7  -1  17    0.56    0.40 
  -7   1  17    0.04    0.38 
  -7   1  17    0.75    0.36 
  -6  -1  17    0.72    0.49 
  -6  -1  17    0.87    0.34 
  -6   1  17    0.68    0.41 
  -6   1  17    1.13    0.36 
  -5  -1  17   -0.02    0.40 
  -5  -1  17    0.83    0.33 
  -5   1  17   -0.05    0.41 
  -5   1  17   -0.06    0.31 
  -4  -1  17    3.51    0.58 
  -4  -1  17    4.61    0.66 
  -4   1  17    3.75    0.67 
  -4   1  17    4.61    0.66 
  -3  -1  17    0.08    0.34 
  -3  -1  17   -0.14    0.37 
  -3   1  17    0.17    0.32 
  -3   1  17    0.09    0.35 
   1  -1 -17   15.90    1.50 
  -1   1  17   15.83    1.54 
  -1   1  17   17.20    1.57 
   0   1  17    7.55    0.92 
   0   1  17    7.96    0.97 
  -1  -1 -17    8.60    1.03 
   1  -1  17   10.64    1.12 
  -1   1 -17   11.12    1.03 
   1   1  17    9.21    1.06 
   2  -1  17   -0.08    0.33 
  -2  -1 -17    0.17    0.30 
   2   1  17    0.28    0.33 
  -2   1 -17    0.08    0.29 
   3  -1  17    0.34    0.38 
  -3  -1 -17    0.31    0.34 
  -3   1 -17    0.28    0.31 
   3   1  17    0.01    0.27 
  -4  -1 -17   -0.31    0.36 
  -4   1 -17    0.01    0.33 
   4   1  17   -0.27    0.25 
   5  -1  17    8.89    0.98 
  -5  -1 -17    7.62    0.98 
  -5   1 -17    7.09    0.94 
  -6  -1 -17    0.68    0.46 
   6  -1  17    0.83    0.41 
  -6   1 -17    0.83    0.45 
  -7  -1 -17    1.39    0.54 
   7  -1  17    1.05    0.45 
  -7   1 -17    0.75    0.51 
  -8  -1 -17   -0.23    0.53 
   8  -1  17   -0.28    0.41 
  -8   1 -17   -0.21    0.50 
   9  -1  17    0.67    0.40 
  -9  -1 -17    0.29    0.61 
   9   1  17    0.03    0.32 
  -9   1 -17    0.71    0.61 
  10  -1  17    2.24    0.44 
 -10  -1 -17    2.27    0.66 
  10   1  17    1.70    0.45 
 -10   1 -17    2.69    0.77 
  11  -1  17   -0.40    0.33 
  11  -1  17    1.11    0.71 
 -11  -1 -17   -0.12    0.71 
  11   1  17    0.25    0.56 
  11   1  17   -0.54    0.33 
 -11   1 -17    0.71    0.81 
 -12  -1 -17   -0.34    0.76 
  12  -1  17   -0.37    0.81 
  12  -1  17    0.39    0.39 
 -12   1 -17    1.49    0.94 
  12   1  17    0.30    0.76 
  12   1  17    0.66    0.38 
 -12  -2  17    0.95    0.77 
 -12  -2  17   -0.04    0.52 
 -12   2  17   -0.35    0.60 
 -12   2  17   -0.04    0.50 
 -12   2  17    0.12    0.51 
 -11  -2  17    0.16    0.46 
 -11  -2  17    1.38    0.71 
 -11   2  17    0.80    0.47 
 -11   2  17    0.58    0.56 
 -11   2  17    1.42    0.52 
 -10  -2  17    0.77    0.44 
 -10   2  17    0.42    0.44 
 -10   2  17    0.22    0.51 
 -10   2  17    0.49    0.49 
  -9  -2  17   16.81    1.68 
  -9  -2  17   19.58    1.83 
  -9   2  17   16.50    1.69 
  -9   2  17   17.58    1.76 
  -8  -2  17    3.70    0.64 
  -8  -2  17    3.65    0.77 
  -8   2  17    4.72    0.84 
  -8   2  17    5.59    0.85 
  -7  -2  17    0.91    0.49 
  -7  -2  17   -0.41    0.51 
  -7   2  17    0.86    0.42 
  -7   2  17    0.26    0.42 
  -6  -2  17    1.25    0.48 
  -6  -2  17    2.01    0.51 
  -6   2  17    1.60    0.51 
  -6   2  17    1.70    0.46 
  -5  -2  17    2.05    0.49 
  -5  -2  17    1.85    0.48 
  -5   2  17    0.83    0.44 
  -5   2  17    2.06    0.48 
  -4  -2  17    1.53    0.49 
  -4  -2  17    2.12    0.48 
  -4   2  17    0.11    0.38 
  -4   2  17    0.81    0.37 
  -3  -2  17    6.02    0.90 
  -3  -2  17    5.92    0.87 
  -3   2  17    5.44    0.80 
  -3   2  17    5.17    0.78 
  -2  -2  17    0.65    0.40 
  -2   2  17    0.36    0.36 
  -2   2  17    0.40    0.35 
   1  -2 -17    1.51    0.43 
  -1   2  17    2.80    0.45 
  -1   2  17    2.23    0.43 
   0  -2  17   17.50    1.54 
   0  -2 -17   14.32    1.44 
   0   2  17   13.77    1.44 
   0   2  17   15.23    1.47 
  -1  -2 -17    4.44    0.77 
   1   2  17    5.66    0.76 
  -2  -2 -17    7.55    0.99 
   2   2  17    9.58    1.01 
  -3  -2 -17   14.10    1.47 
   3   2  17   15.64    1.50 
   4  -2  17   13.45    1.36 
  -4  -2 -17   13.60    1.34 
  -4   2 -17   10.91    1.24 
  -5  -2 -17   -0.76    0.40 
   5  -2  17    0.58    0.48 
  -6  -2 -17    1.57    0.53 
  -6   2 -17    1.36    0.51 
   7  -2  17   19.27    1.96 
   7   2  17   21.94    1.90 
  -8  -2 -17    6.89    1.17 
   8  -2  17    8.61    1.02 
   8   2  17    7.21    0.89 
  -8   2 -17    6.53    1.15 
   9  -2  17    1.86    0.54 
  -9  -2 -17    1.89    0.67 
   9   2  17    1.46    0.46 
  -9   2 -17    2.05    0.68 
  10  -2  17    0.01    0.51 
 -10  -2 -17    1.28    0.70 
  10  -2  17    0.32    0.45 
 -10   2 -17   -0.08    0.65 
  10   2  17   -0.70    0.43 
 -11  -2 -17   -0.28    0.70 
  11  -2  17   -0.11    0.42 
  11  -2  17    0.23    0.56 
  11   2  17    0.26    0.47 
  11   2  17    0.43    0.77 
 -11   2 -17    0.09    0.86 
 -10  -3  17    2.43    0.86 
 -10   3  17    0.02    0.49 
 -10   3  17   -0.32    0.55 
 -10   3  17    0.74    0.46 
  -9  -3  17    4.38    1.09 
  -9   3  17    4.31    0.71 
  -9   3  17    3.55    0.68 
  -9   3  17    4.73    0.75 
  -8  -3  17    1.24    0.80 
  -8   3  17    0.82    0.46 
  -8   3  17    0.49    0.42 
  -8   3  17    0.86    0.47 
  -7  -3  17    0.36    0.67 
  -7   3  17    0.79    0.42 
  -7   3  17    0.13    0.42 
  -7   3  17    0.26    0.44 
  -6  -3  17   -0.18    0.59 
  -6  -3  17   -0.33    0.60 
  -6   3  17   -0.47    0.40 
  -6   3  17    0.28    0.43 
  -5  -3  17   -0.17    0.57 
  -5  -3  17    0.35    0.43 
  -5   3  17   -0.17    0.35 
  -5   3  17    0.68    0.40 
  -4  -3  17    0.78    0.48 
  -4  -3  17    0.36    0.61 
  -4   3  17    1.07    0.41 
  -4   3  17   -0.04    0.35 
  -3  -3  17    0.91    0.62 
  -3   3  17   -0.30    0.33 
  -3   3  17    0.54    0.40 
  -2  -3  17    6.51    0.96 
  -2   3  17    4.90    0.84 
  -1  -3  17    4.23    0.71 
  -1   3  17    4.09    0.72 
   0  -3 -17    1.04    0.41 
   0  -3  17    1.67    0.53 
   0   3  17    1.26    0.41 
  -1  -3 -17    2.02    0.48 
   1   3  17    1.96    0.46 
   1   3  17    1.00    0.64 
   2  -3  17    5.98    0.93 
   2   3  17    3.97    0.77 
   3  -3  17    5.49    1.00 
  -3  -3 -17    3.51    0.71 
   3   3  17    4.84    0.80 
   3   3  17    6.13    0.79 
   4  -3  17    2.27    0.64 
  -4  -3 -17    0.28    0.48 
   4   3  17    1.14    0.43 
   4   3  17    0.37    0.41 
  -5  -3 -17    1.42    0.55 
   5  -3  17    2.62    0.61 
   5   3  17    2.17    0.50 
   5   3  17    2.37    0.53 
   6  -3  17    1.19    0.62 
  -6  -3 -17    0.89    0.60 
   6   3  17    1.28    0.46 
   7  -3  17   -0.50    0.55 
  -7  -3 -17    1.28    0.60 
   7   3  17   -0.19    0.50 
  -7   3 -17    0.88    0.51 
  -8  -3 -17    0.56    0.60 
  -8   3 -17   -0.02    0.57 
   8   3  17   -0.61    0.49 
   9  -3  17   16.95    1.83 
  -9  -3 -17   17.79    1.98 
   9   3  17   19.29    1.80 
  -9   3 -17   17.08    1.88 
  -6  -4  17    3.65    1.00 
  -6   4  17    2.80    0.58 
  -6   4  17    2.63    0.62 
  -6   4  17    3.94    0.61 
  -5  -4  17    1.27    0.83 
  -5   4  17    0.61    0.48 
  -5   4  17    0.53    0.47 
  -5   4  17   -0.07    0.44 
  -3   4  17    5.81    0.88 
  -3   4  17    6.30    0.91 
  -3   4  17    5.67    0.93 
  -2  -4  17   13.96    1.34 
  -2   4  17   10.41    1.24 
  -2   4  17   10.23    1.19 
  -1  -4  17    4.98    0.89 
  -1   4  17    4.43    0.79 
  -1   4  17    5.03    0.90 
   0  -4  17    2.72    0.77 
   0   4  17    1.66    0.56 
   1  -4  17    2.15    0.65 
  -1  -4 -17    1.26    0.54 
   1   4  17    0.43    0.54 
  -2  -4 -17    1.84    0.58 
   2  -4  17    2.61    0.66 
   2   4  17    1.60    0.60 
   3  -4  17    0.03    0.61 
  -3  -4 -17   -0.28    0.57 
   3   4  17    0.89    0.52 
  -4  -4 -17    0.21    0.55 
   4  -4  17    0.60    0.59 
   4   4  17   -0.47    0.55 
 -13   0  18    1.50    0.71 
 -13   0  18   -0.05    0.61 
 -13   0  18    0.48    0.85 
 -12   0  18   -0.64    0.50 
 -12   0  18   -0.20    0.50 
 -11   0  18    1.17    0.54 
 -11   0  18    1.24    0.56 
 -10   0  18    1.63    0.50 
 -10   0  18    1.48    0.50 
  -9   0  18    0.54    0.52 
  -9   0  18    0.76    0.44 
  -8   0  18    0.06    0.42 
  -8   0  18    1.08    0.42 
  -6   0  18   54.70    4.42 
  -6   0  18   48.32    4.36 
  -4   0  18   39.38    3.42 
  -4   0  18   39.98    3.44 
  -3   0  18   10.01    1.09 
  -3   0  18   10.59    1.19 
  -2   0  18    5.87    0.81 
  -2   0  18    5.60    0.90 
  -1   0  18    4.81    0.79 
   0   0 -18    3.46    0.65 
   1   0  18   28.72    2.46 
  -1   0 -18   25.94    2.38 
  -2   0 -18    3.17    0.52 
   2   0  18    3.37    0.58 
   3   0  18    0.09    0.36 
  -3   0 -18    0.19    0.36 
  -4   0 -18    2.28    0.51 
   5   0  18    5.26    0.84 
  -5   0 -18    4.24    0.69 
   6   0  18    2.48    0.52 
  -6   0 -18    2.65    0.62 
   7   0  18    0.61    0.37 
  -7   0 -18    0.69    0.54 
   8   0  18    9.97    1.11 
  -8   0 -18   11.63    1.44 
  -9   0 -18    4.08    0.87 
   9   0  18    3.63    0.57 
  10   0  18    0.66    0.41 
 -10   0 -18    0.13    0.67 
  11   0  18    1.21    0.36 
  11   0  18    0.81    0.71 
 -11   0 -18    2.30    0.78 
 -12  -1  18   -0.04    0.54 
 -12  -1  18    0.98    0.64 
 -12   1  18   -0.08    0.50 
 -12   1  18   -0.46    0.80 
 -12   1  18   -1.01    0.58 
 -11  -1  18    0.84    0.50 
 -11  -1  18    1.28    0.61 
 -11   1  18    0.22    0.48 
 -11   1  18    0.14    0.54 
 -10  -1  18    6.23    1.17 
 -10  -1  18    5.97    0.94 
 -10   1  18    6.80    0.98 
 -10   1  18    7.78    1.08 
  -9  -1  18    0.65    0.42 
  -9   1  18    0.92    0.42 
  -9   1  18    0.25    0.46 
  -8   1  18    2.29    0.50 
  -8   1  18    1.06    0.49 
  -7  -1  18   25.53    2.18 
  -7  -1  18   26.66    2.10 
  -7   1  18   19.58    2.05 
  -7   1  18   19.41    2.08 
  -6   1  18   12.08    1.16 
  -6   1  18    9.39    1.27 
  -5  -1  18   28.32    2.43 
  -5   1  18   25.86    2.45 
  -4   1  18    7.66    1.06 
  -4   1  18    9.64    1.02 
  -3  -1  18    8.87    1.10 
  -3   1  18   10.03    1.02 
  -3   1  18    8.26    1.09 
  -2  -1  18    7.30    1.15 
  -2  -1  18    5.08    0.91 
  -1  -1  18   11.47    1.15 
  -1   1  18    7.78    1.05 
  -1   1  18    9.39    1.13 
   0  -1  18    4.71    0.86 
   0  -1 -18    3.47    0.67 
   0   1  18    6.03    0.82 
   0   1  18    4.34    0.67 
   1  -1  18    1.84    0.45 
  -1  -1 -18    0.46    0.36 
   1   1  18    0.08    0.47 
  -1   1 -18    0.69    0.34 
   1   1  18    0.74    0.39 
  -2  -1 -18    2.20    0.49 
  -2   1 -18    2.14    0.43 
   2   1  18    3.02    0.53 
  -3  -1 -18    4.81    0.84 
   3  -1  18    6.64    0.94 
   3   1  18    5.92    0.83 
  -3   1 -18    5.84    0.83 
   4  -1  18    1.10    0.49 
  -4  -1 -18    0.26    0.42 
   4   1  18    0.50    0.32 
  -4   1 -18    0.62    0.39 
  -5  -1 -18    0.09    0.45 
   5  -1  18    0.24    0.43 
   5   1  18   -0.06    0.34 
  -6  -1 -18    2.14    0.60 
   6  -1  18    3.13    0.56 
   6   1  18    1.94    0.46 
  -6   1 -18    1.60    0.54 
   7  -1  18   -0.29    0.46 
  -7  -1 -18    0.03    0.53 
   7   1  18    0.08    0.39 
  -7   1 -18    0.64    0.52 
   8  -1  18    0.76    0.51 
  -8  -1 -18    1.66    0.68 
  -8   1 -18    0.92    0.64 
   8   1  18    0.75    0.37 
   9  -1  18    0.37    0.46 
  -9  -1 -18    0.53    0.66 
  -9   1 -18    0.19    0.65 
   9   1  18    0.49    0.37 
  10  -1  18    0.82    0.41 
 -10  -1 -18   -0.75    0.71 
  10   1  18    0.19    0.42 
 -10   1 -18    0.21    0.68 
 -11  -1 -18    0.44    0.71 
  11  -1  18    0.43    0.39 
  11  -1  18    0.20    0.91 
  11   1  18    0.18    0.82 
  11   1  18   -0.27    0.40 
 -11   1 -18   -0.08    0.79 
 -11  -2  18    2.26    0.76 
 -11  -2  18    1.26    0.54 
 -11   2  18    0.59    0.54 
 -11   2  18    1.22    0.63 
 -11   2  18    0.78    0.54 
 -10  -2  18    2.77    0.79 
 -10   2  18    1.62    0.58 
 -10   2  18    3.24    0.69 
 -10   2  18    1.94    0.57 
  -9  -2  18    1.69    0.71 
  -9  -2  18    1.41    0.52 
  -9   2  18    1.27    0.52 
  -9   2  18    1.62    0.57 
  -8  -2  18    3.91    0.82 
  -8  -2  18    5.89    0.89 
  -8   2  18    5.48    0.91 
  -8   2  18    4.04    0.72 
  -6  -2  18   14.01    1.39 
  -6  -2  18   10.81    1.38 
  -6   2  18   14.13    1.31 
  -6   2  18    9.38    1.32 
  -5  -2  18    0.01    0.47 
  -5  -2  18    0.74    0.46 
  -5   2  18   -0.11    0.40 
  -5   2  18    0.39    0.44 
  -4  -2  18    0.47    0.62 
  -4  -2  18    0.70    0.50 
  -4   2  18    0.74    0.40 
  -4   2  18   -0.24    0.40 
  -3  -2  18    0.28    0.45 
  -3  -2  18    0.60    0.52 
  -3   2  18   -0.39    0.41 
  -3   2  18    0.42    0.41 
  -2  -2  18    2.19    0.55 
  -2   2  18    1.05    0.45 
  -2   2  18    0.97    0.45 
   1  -2 -18    1.96    0.51 
  -1   2  18    3.39    0.54 
  -1   2  18    3.06    0.53 
   0  -2 -18    7.33    0.96 
   0   2  18    8.71    1.02 
   0   2  18    8.49    1.03 
  -1  -2 -18    5.63    0.87 
   1  -2  18    7.60    1.02 
   1   2  18    4.60    0.84 
   1   2  18    6.30    0.85 
  -2  -2 -18    0.70    0.41 
   2  -2  18    0.95    0.54 
   2   2  18    1.19    0.47 
  -3  -2 -18    0.42    0.39 
   3  -2  18    0.70    0.50 
   3   2  18    0.29    0.33 
   3   2  18   -0.27    0.46 
   4  -2  18    1.04    0.53 
  -4  -2 -18    1.06    0.49 
   4   2  18   -0.48    0.36 
  -5  -2 -18   -0.59    0.48 
   5  -2  18    0.10    0.55 
   5   2  18   -0.03    0.38 
  -5   2 -18    0.18    0.44 
   6  -2  18    1.19    0.64 
  -6  -2 -18    1.14    0.55 
   6   2  18    1.08    0.40 
  -6   2 -18    0.91    0.51 
  -7  -2 -18    1.09    0.62 
   7  -2  18    1.03    0.53 
   7   2  18    0.29    0.42 
  -8  -2 -18    2.97    0.74 
   8   2  18    3.17    0.57 
  -8   2 -18    2.85    0.73 
  -9  -2 -18    3.51    0.87 
   9  -2  18    3.32    0.73 
   9   2  18    3.68    0.66 
  -9   2 -18    3.47    0.83 
  -8   3  18    2.20    0.56 
  -8   3  18    2.09    0.60 
  -8   3  18    1.29    0.46 
  -7   3  18    2.40    0.61 
  -7   3  18    3.40    0.60 
  -6  -3  18    4.64    0.95 
  -6  -3  18    8.04    1.40 
  -6   3  18    4.07    0.69 
  -6   3  18    5.20    0.83 
  -5  -3  18    0.56    0.55 
  -5  -3  18    0.16    0.56 
  -5   3  18    0.93    0.45 
  -5   3  18   -0.51    0.39 
  -4  -3  18    0.74    0.54 
  -4  -3  18   -0.66    0.65 
  -4   3  18   -0.15    0.40 
  -4   3  18    0.88    0.42 
  -3  -3  18    1.39    0.57 
  -3  -3  18    2.01    0.74 
  -3   3  18    0.13    0.39 
  -3   3  18    0.66    0.47 
  -1   3  18   15.76    1.55 
  -1   3  18   15.35    1.50 
   0  -3  18    3.71    0.64 
   0  -3 -18    1.21    0.50 
   0   3  18    1.28    0.51 
   0   3  18    2.51    0.50 
   1  -3  18    4.56    0.72 
  -1  -3 -18    3.32    0.62 
   1   3  18    3.19    0.58 
   1   3  18    1.90    0.52 
  -2  -3 -18   -0.17    0.47 
   2   3  18   -0.29    0.41 
   2   3  18    0.71    0.47 
  -3  -3 -18    6.19    1.08 
   3   3  18    7.67    1.02 
   3   3  18    8.34    0.98 
  -4  -3 -18   10.12    1.29 
   4   3  18    9.56    1.21 
   4   3  18   12.07    1.24 
   5  -3  18   12.42    1.54 
  -5  -3 -18   13.22    1.57 
   5   3  18   11.99    1.42 
   5   3  18   14.80    1.45 
  -6  -3 -18    1.10    0.68 
   6  -3  18    2.33    0.63 
   6   3  18    2.41    0.59 
   6   3  18    0.76    0.59 
   7  -3  18    1.82    0.69 
  -7  -3 -18    1.14    0.74 
   7   3  18    1.68    0.73 
   7   3  18    2.15    0.68 
  -2   4  18   -0.02    0.47 
  -2   4  18   -0.20    0.46 
  -1   4  18    1.13    0.57 
  -1   4  18    2.20    0.52 
   0  -4 -18    0.91    0.65 
   0   4  18    2.32    0.50 
   0   4  18    1.86    0.62 
 -11   0  19   -0.48    0.53 
 -11   0  19    0.89    0.53 
 -10   0  19    0.60    0.50 
 -10   0  19    0.45    0.49 
  -9   0  19   -0.28    0.45 
  -9   0  19    1.21    0.57 
  -8   0  19    0.48    0.44 
  -8   0  19    0.19    0.44 
  -7   0  19   -0.49    0.43 
  -7   0  19   -0.44    0.55 
  -6   0  19    0.75    0.39 
  -6   0  19    0.16    0.50 
  -5   0  19    0.25    0.39 
  -5   0  19   -0.14    0.47 
  -4   0  19    0.11    0.47 
  -4   0  19    0.49    0.38 
  -3   0  19    0.50    0.35 
  -3   0  19   -0.04    0.44 
  -2   0  19    0.35    0.40 
  -2   0  19   -0.49    0.54 
  -1   0  19   -0.10    0.42 
  -1   0  19    0.57    0.44 
   0   0  19   -0.01    0.43 
   1   0  19    0.33    0.44 
  -1   0 -19    0.39    0.37 
   2   0  19    0.39    0.46 
   3   0  19   -0.32    0.39 
  -3   0 -19   -0.05    0.36 
  -4   0 -19   -0.35    0.42 
   4   0  19   -0.29    0.45 
   5   0  19    0.24    0.50 
  -5   0 -19    0.07    0.46 
  -6   0 -19    0.31    0.51 
   6   0  19    0.06    0.48 
  -7   0 -19    0.17    0.56 
   7   0  19    0.53    0.44 
  -8   0 -19    1.11    0.65 
   9   0  19    0.21    0.46 
  -9   0 -19    0.84    0.72 
 -10   0 -19   -0.38    0.81 
  10   0  19    0.46    0.42 
 -11  -1  19    1.09    0.57 
 -11  -1  19    0.81    0.68 
 -11   1  19    0.71    0.59 
 -11   1  19    0.94    0.54 
 -10  -1  19    1.08    0.55 
 -10  -1  19    2.54    0.67 
 -10   1  19    2.02    0.54 
 -10   1  19    1.02    0.56 
  -9  -1  19    2.69    0.57 
  -9   1  19    1.69    0.60 
  -9   1  19    2.55    0.54 
  -8  -1  19    8.84    1.28 
  -8  -1  19    5.55    1.08 
  -8   1  19    7.68    1.00 
  -8   1  19    7.09    1.06 
  -7  -1  19    2.10    0.50 
  -7  -1  19    0.34    0.51 
  -7   1  19   -0.23    0.56 
  -7   1  19    1.20    0.49 
  -6  -1  19    6.51    0.86 
  -6  -1  19    6.83    1.03 
  -6   1  19    4.96    0.82 
  -6   1  19    4.79    0.86 
  -5  -1  19    4.83    0.85 
  -5  -1  19    6.20    0.94 
  -5   1  19    4.36    0.71 
  -5   1  19    5.05    0.77 
  -4  -1  19    0.41    0.46 
  -4  -1  19    0.42    0.40 
  -4   1  19    0.60    0.45 
  -4   1  19    0.95    0.46 
  -3  -1  19    1.77    0.68 
  -3  -1  19    0.94    0.46 
  -3   1  19    0.19    0.42 
  -3   1  19    1.13    0.41 
  -2  -1  19    1.89    0.54 
  -2  -1  19    1.42    0.52 
  -2   1  19    1.04    0.52 
  -2   1  19    1.78    0.49 
  -1   1  19    2.44    0.63 
  -1   1  19    1.67    0.47 
   0  -1 -19    4.26    0.77 
   0   1  19    6.30    0.92 
  -1  -1 -19   10.07    1.10 
   1   1  19   10.24    1.18 
   1   1  19    8.61    1.23 
   2  -1  19    5.31    0.78 
  -2  -1 -19    3.63    0.64 
  -2   1 -19    5.43    0.78 
   2   1  19    5.27    0.83 
  -3  -1 -19    2.37    0.51 
   3  -1  19    3.06    0.64 
   3   1  19    2.09    0.51 
  -3   1 -19    2.22    0.51 
   4  -1  19    0.40    0.51 
  -4  -1 -19    0.85    0.47 
  -4   1 -19    0.58    0.44 
   4   1  19   -0.09    0.42 
  -5  -1 -19   -0.32    0.47 
   5  -1  19    0.07    0.50 
   5   1  19    0.55    0.42 
  -5   1 -19   -0.11    0.47 
  -6  -1 -19   -0.20    0.49 
   6  -1  19    0.36    0.48 
  -6   1 -19    0.15    0.48 
   6   1  19    1.22    0.46 
  -7  -1 -19    1.28    0.67 
   7   1  19    1.55    0.48 
  -7   1 -19    1.52    0.59 
  -8  -1 -19    0.18    0.69 
   8  -1  19   -0.12    0.56 
  -8   1 -19    0.80    0.65 
   8   1  19    0.30    0.41 
  -9  -1 -19    0.89    0.70 
   9  -1  19    0.33    0.48 
  -9   1 -19   -0.22    0.74 
   9   1  19   -0.32    0.42 
  -9  -2  19    3.62    0.86 
  -9  -2  19    3.38    0.87 
  -9   2  19    2.05    0.64 
  -9   2  19    2.45    0.66 
  -8  -2  19    7.36    1.32 
  -8  -2  19    9.26    1.28 
  -8   2  19    6.00    1.13 
  -8   2  19    7.47    1.11 
  -7  -2  19    4.11    0.86 
  -7  -2  19    4.87    0.77 
  -7   2  19    3.95    0.69 
  -7   2  19    3.35    0.75 
  -6  -2  19    2.65    0.61 
  -6  -2  19    1.98    0.66 
  -6   2  19    1.56    0.55 
  -6   2  19    1.43    0.55 
  -5  -2  19    5.44    1.00 
  -5  -2  19    6.12    1.09 
  -5   2  19    5.35    0.95 
  -4  -2  19    1.74    0.60 
  -4   2  19    1.43    0.51 
  -4   2  19    2.06    0.52 
  -3  -2  19    1.03    0.60 
  -3  -2  19    1.46    0.63 
  -3   2  19    0.58    0.45 
  -3   2  19    0.25    0.49 
  -2  -2  19    1.31    0.56 
  -2   2  19    0.91    0.48 
  -2   2  19    0.01    0.44 
  -1   2  19    1.80    0.49 
  -1   2  19    0.99    0.51 
   0  -2 -19    5.06    0.91 
   0   2  19    6.38    0.95 
   0   2  19    8.43    0.97 
  -1  -2 -19   12.48    1.33 
   1   2  19   10.89    1.31 
   1   2  19   13.17    1.31 
   2  -2  19    4.27    0.74 
  -2  -2 -19    2.32    0.59 
   2   2  19    2.63    0.63 
   2   2  19    2.69    0.56 
   3  -2  19    0.28    0.56 
  -3  -2 -19   -0.13    0.45 
   3   2  19   -0.05    0.53 
   3   2  19    0.38    0.40 
  -4  -2 -19    0.17    0.49 
   4  -2  19    1.14    0.60 
   4   2  19   -0.62    0.59 
   4   2  19   -0.60    0.37 
  -5  -2 -19    0.67    0.57 
   5  -2  19    1.23    0.64 
   5   2  19    0.29    0.43 
  -5   2 -19    0.90    0.50 
  -6  -2 -19    2.48    0.70 
   6   2  19    3.45    0.57 
  -6   2 -19    1.89    0.59 
  -7  -2 -19    2.95    0.76 
   7  -2  19    5.42    0.87 
  -7   2 -19    3.59    0.80 
   7   2  19    5.11    0.85 
  -8  -2 -19    0.44    0.76 
   8  -2  19    1.60    0.57 
   8   2  19    0.24    0.48 
  -8   2 -19    1.30    0.73 
  -6  -3  19    6.05    0.91 
  -6  -3  19    5.71    1.03 
  -6   3  19    3.52    0.67 
  -6   3  19    4.08    0.71 
  -5  -3  19    0.75    0.68 
  -5  -3  19    1.11    0.74 
  -5   3  19    0.89    0.51 
  -5   3  19    0.71    0.50 
  -4  -3  19    0.91    0.65 
  -4  -3  19    0.00    0.72 
  -4   3  19    0.79    0.46 
  -4   3  19   -0.53    0.44 
  -3  -3  19    0.69    0.81 
  -3   3  19    0.94    0.48 
  -3   3  19    1.16    0.52 
  -2  -3  19    0.42    0.72 
  -2   3  19    0.10    0.45 
  -1  -3  19    1.75    0.75 
  -1   3  19    0.81    0.51 
  -1   3  19    0.82    0.48 
   0   3  19    0.17    0.43 
   0   3  19    0.03    0.48 
  -1  -3 -19    3.84    0.70 
   1   3  19    5.22    0.91 
   1   3  19    4.82    0.77 
   2  -3  19    4.63    0.81 
  -2  -3 -19    3.11    0.71 
   2   3  19    4.32    0.71 
   2   3  19    3.96    0.66 
  -3  -3 -19   -0.03    0.53 
   3   3  19    0.89    0.58 
   3   3  19    0.04    0.44 
   4  -3  19    7.27    1.28 
  -4  -3 -19    3.60    0.79 
   4   3  19    5.46    1.02 
   4   3  19    3.83    0.69 
  -5  -3 -19    0.28    0.62 
   5  -3  19   -0.43    0.68 
   5   3  19   -0.50    0.59 
   5   3  19    0.31    0.61 
 -10   0  20    4.32    0.90 
 -10   0  20    5.10    0.80 
  -9   0  20    2.91    0.64 
  -8   0  20   11.24    1.22 
  -8   0  20    7.05    1.35 
  -6   0  20   36.41    3.06 
  -6   0  20   31.26    2.98 
  -5   0  20   13.69    1.63 
  -5   0  20   17.03    1.56 
  -4   0  20   24.84    2.11 
  -4   0  20   18.17    1.94 
  -2   0  20   20.55    1.98 
  -2   0  20   16.11    1.77 
  -1   0  20    1.64    0.56 
   0   0  20    7.79    1.24 
   0   0  20    9.34    1.22 
   1   0  20    0.89    0.52 
  -1   0 -20    0.79    0.46 
  -2   0 -20    2.12    0.50 
   2   0  20    2.13    0.61 
   3   0  20   -0.49    0.49 
  -3   0 -20    0.16    0.44 
   4   0  20    1.07    0.55 
  -4   0 -20    0.74    0.49 
   5   0  20   -0.19    0.61 
  -5   0 -20   -0.20    0.50 
   6   0  20    0.76    0.55 
  -6   0 -20   -0.18    0.59 
  -7   0 -20    0.86    0.70 
   7   0  20    1.29    0.53 
   8   0  20    3.85    0.73 
  -8   0 -20    2.22    0.79 
  -9  -1  20    1.57    0.56 
  -9  -1  20    3.38    0.87 
  -9   1  20    2.89    0.63 
  -9   1  20    2.35    0.62 
  -8  -1  20    1.24    0.61 
  -8  -1  20    1.78    0.55 
  -8   1  20    0.03    0.65 
  -8   1  20    1.18    0.57 
  -7  -1  20    6.62    0.97 
  -7  -1  20    5.79    0.92 
  -7   1  20    4.76    0.87 
  -7   1  20    7.04    1.02 
  -6  -1  20    1.27    0.56 
  -6  -1  20    2.72    0.54 
  -6   1  20    0.59    0.53 
  -6   1  20    1.38    0.51 
  -5  -1  20    6.23    0.86 
  -5  -1  20    4.06    0.67 
  -5   1  20    3.92    0.70 
  -5   1  20    4.11    0.75 
  -4  -1  20    3.70    0.81 
  -4  -1  20    2.21    0.52 
  -4   1  20    2.34    0.61 
  -4   1  20    1.82    0.60 
  -3   1  20    1.58    0.58 
  -3   1  20    2.06    0.53 
  -2  -1  20    6.37    1.10 
  -2   1  20    4.28    0.76 
  -2   1  20    6.40    1.09 
  -1  -1  20    7.37    1.19 
  -1  -1  20    6.83    1.25 
  -1   1  20    7.54    1.25 
  -1   1  20    8.36    1.05 
   0  -1 -20    0.28    0.42 
   0  -1  20    1.94    0.58 
   0   1  20    1.18    0.57 
   0   1  20    0.20    0.50 
  -1  -1 -20    3.68    0.63 
   1  -1  20    3.83    0.75 
   1   1  20    3.20    0.75 
   1   1  20    3.49    0.71 
   2  -1  20    4.46    0.82 
  -2  -1 -20    2.43    0.63 
   2   1  20    5.24    0.91 
  -2   1 -20    4.21    0.78 
   2   1  20    3.38    0.79 
  -3  -1 -20    1.86    0.57 
   3   1  20    2.05    0.53 
  -3   1 -20    2.08    0.51 
  -4  -1 -20    0.67    0.50 
   4  -1  20    0.48    0.60 
  -4   1 -20    0.13    0.56 
   4   1  20    0.11    0.47 
   5  -1  20    1.65    0.62 
  -5  -1 -20    0.46    0.59 
   5   1  20    1.34    0.51 
  -5   1 -20    0.31    0.50 
  -6  -1 -20    2.48    0.73 
  -6   1 -20    2.26    0.72 
   6   1  20    3.99    0.68 
  -7  -1 -20    4.46    0.89 
   7   1  20    5.41    0.90 
  -7   1 -20    6.59    1.19 
  -7  -2  20    0.30    0.59 
  -7  -2  20   -0.38    0.69 
  -7   2  20    1.34    0.56 
  -7   2  20    0.29    0.58 
  -6  -2  20    1.28    0.66 
  -6  -2  20    1.21    0.59 
  -6   2  20    1.29    0.60 
  -6   2  20    0.62    0.56 
  -5  -2  20    9.95    1.32 
  -4  -2  20   13.93    1.58 
  -4  -2  20   13.32    1.54 
  -4   2  20   10.86    1.38 
  -4   2  20   10.54    1.31 
  -3  -2  20    0.26    0.67 
  -3  -2  20   -0.23    0.60 
  -3   2  20   -0.65    0.50 
  -3   2  20   -0.18    0.52 
  -2  -2  20    1.18    0.63 
  -2  -2  20    1.30    0.64 
  -2   2  20    0.01    0.51 
  -2   2  20    0.92    0.52 
  -1  -2  20    3.56    0.75 
  -1   2  20    1.72    0.62 
  -1   2  20    1.16    0.59 
   0  -2  20    5.58    0.91 
   0  -2 -20    3.26    0.64 
   0   2  20    3.24    0.68 
   0   2  20    3.88    0.70 
   1  -2  20    2.43    0.73 
  -1  -2 -20    0.43    0.49 
   1   2  20   -0.09    0.46 
   1   2  20    0.74    0.52 
  -2  -2 -20    2.69    0.64 
   2   2  20    3.13    0.62 
   2   2  20    3.00    0.69 
  -3  -2 -20    3.22    0.70 
   3  -2  20    5.43    0.90 
   3   2  20    4.00    0.66 
   3   2  20    3.77    0.78 
   4  -2  20    1.82    0.67 
  -4  -2 -20    0.78    0.59 
   4   2  20    0.82    0.70 
   4   2  20    0.52    0.47 
  -5  -2 -20    0.76    0.64 
   5  -2  20    0.95    0.74 
   5   2  20    0.73    0.53 
   6  -2  20    1.15    0.85 
  -6  -2 -20    0.21    0.64 
   6   2  20    0.11    0.53 
  -6   2 -20    0.42    0.55 
  -1  -3  20   10.20    1.57 
  -1   3  20    8.34    1.22 
  -1   3  20    8.88    1.18 
   0  -3 -20    0.18    0.58 
   0  -3  20    1.27    0.74 
   0   3  20   -0.07    0.54 
   0   3  20    0.06    0.57 
  -7   0  21   -0.20    0.51 
  -7   0  21    0.13    0.59 
  -6   0  21    0.01    0.50 
  -6   0  21   -0.45    0.55 
  -5   0  21    0.05    0.48 
  -5   0  21    0.06    0.50 
  -4   0  21   -0.44    0.56 
  -4   0  21    0.55    0.45 
  -3   0  21    0.08    0.48 
  -3   0  21   -0.40    0.74 
  -2   0  21    0.27    0.50 
  -2   0  21    0.22    0.52 
  -1   0  21   -0.22    0.56 
  -1   0  21   -0.31    0.58 
   0   0  21   -0.01    0.64 
   0   0  21    0.17    0.66 
   1   0  21    0.85    0.60 
   2   0  21   -0.54    0.56 
  -2   0 -21    0.55    0.49 
  -3   0 -21   -0.23    0.49 
   3   0  21    0.13    0.70 
   4   0  21    0.63    0.70 
  -4   0 -21   -0.13    0.56 
  -5   0 -21    0.65    0.61 
   5   0  21   -0.70    0.61 
  -6   0 -21   -0.16    0.66 
   6   0  21    0.11    0.65 
  -7  -1  21    9.10    1.33 
  -7  -1  21   11.90    1.47 
  -7   1  21   12.33    1.39 
  -7   1  21   10.24    1.49 
  -6  -1  21    0.53    0.61 
  -6  -1  21    0.91    0.58 
  -6   1  21    1.04    0.54 
  -6   1  21    0.39    0.63 
  -5  -1  21    1.22    0.66 
  -5  -1  21    1.42    0.51 
  -5   1  21    1.62    0.66 
  -5   1  21    1.26    0.61 
  -4  -1  21    0.64    0.53 
  -4  -1  21    0.43    0.82 
  -4   1  21    0.82    0.58 
  -4   1  21    0.63    0.64 
  -3  -1  21    0.92    0.65 
  -3  -1  21    1.40    0.59 
  -3   1  21    0.15    0.57 
  -3   1  21    1.12    0.56 
  -2  -1  21    3.61    0.82 
  -2  -1  21    2.85    0.81 
  -2   1  21    4.24    0.90 
  -2   1  21    3.21    0.71 
  -1  -1  21    2.15    0.70 
  -1  -1  21    0.94    0.67 
  -1   1  21    1.29    0.57 
  -1   1  21    0.31    0.57 
   0  -1  21    3.36    0.80 
   0   1  21    1.29    0.67 
   0   1  21    2.84    0.70 
   1  -1  21    1.89    0.71 
  -1  -1 -21    0.34    0.50 
   1   1  21    0.73    0.58 
   1   1  21    0.39    0.66 
  -2  -1 -21    5.79    0.96 
   2  -1  21    3.53    0.86 
   2   1  21    2.07    0.85 
   2   1  21    4.14    0.80 
  -3  -1 -21   -0.20    0.51 
   3  -1  21    0.67    0.79 
   3   1  21   -0.65    0.51 
  -3   1 -21    0.58    0.53 
   4  -1  21    1.20    0.79 
  -4  -1 -21    0.04    0.59 
   4   1  21    0.86    0.66 
  -5  -1 -21    2.03    0.70 
   5  -1  21    2.31    0.74 
  -5   1 -21    0.94    0.64 
   5   1  21    2.17    0.63 
  -4  -2  21    3.68    0.91 
  -4  -2  21    2.88    0.76 
  -4   2  21    1.81    0.69 
  -4   2  21    2.91    0.68 
  -3  -2  21    4.66    0.93 
  -2  -2  21    8.11    1.37 
  -2   2  21    4.55    0.81 
  -2   2  21    6.81    1.22 
  -1   2  21    0.96    0.63 
  -1   2  21    0.26    0.61 
   0   2  21    3.07    0.71 
   0   2  21    2.89    0.69 
  -1  -2 -21    5.12    0.86 
   1   2  21    6.56    0.97 
   1   2  21    7.78    1.17 
  -2  -2 -21    3.17    0.70 
   2   2  21    2.14    0.71 
   2   2  21    2.46    0.59 
  -4   0  22    6.58    1.05 
  -4   0  22    4.19    0.78 
  -3   0  22    1.97    0.64 
  -3   0  22    2.14    0.90 
  -2   0  22   -0.63    0.70 
  -2   0  22   -0.08    0.55 
  -1   0  22    0.78    0.69 
  -1   0  22    0.05    0.75 
   0   0  22    0.53    0.75 
   0   0  22    2.45    0.77 
   1   0  22    4.81    1.02 
  -2   0 -22    8.18    1.22 
   2   0  22   10.14    1.48 
  -2  -1  22    0.42    0.80 
  -2  -1  22    0.83    0.85 
  -2   1  22    0.13    0.59 
  -2   1  22    0.62    0.79 
  -1  -1  22   -0.16    0.86 
  -1  -1  22    1.55    0.80 
  -1   1  22    1.17    0.70 
  -1   1  22    0.89    0.69 
   0  -1  22    1.98    0.89 
   0   1  22    0.92    0.77 
   0   1  22    1.10    0.68 
   0   0   0    0.00    0.00 
;
_shelx_hkl_checksum              52155
#END Tags that were not found in dictionaries
loop_
_space_group_symop_operation_xyz
'x, y, z'
'-x, y+1/2, -z+1/2'
'-x, -y, -z'
'x, -y-1/2, z-1/2'
loop_
_atom_site_label
_atom_site_type_symbol
_atom_site_fract_x
_atom_site_fract_y
_atom_site_fract_z
_atom_site_U_iso_or_equiv
_atom_site_adp_type
_atom_site_occupancy
_atom_site_site_symmetry_order
_atom_site_calc_flag
_atom_site_refinement_flags_posn
_atom_site_refinement_flags_adp
C1 C 0.24637(13) 0.6993(4) 0.28449(12) 0.0208(6) Uani 1 1 d . .
C2 C 0.26242(13) 0.7739(4) 0.21827(13) 0.0218(6) Uani 1 1 d . .
C3 C 0.20306(13) 0.7745(4) 0.15721(12) 0.0237(6) Uani 1 1 d . .
H3A H 0.2028 0.9300 0.1341 0.028 Uiso 1 1 calc R U
H3B H 0.1522 0.7496 0.1767 0.028 Uiso 1 1 calc R U
C4 C 0.21638(14) 0.5877(4) 0.10066(12) 0.0264(6) Uani 1 1 d . .
H4A H 0.2678 0.6100 0.0822 0.032 Uiso 1 1 calc R U
H4B H 0.2153 0.4320 0.1236 0.032 Uiso 1 1 calc R U
C5 C 0.15815(14) 0.5919(4) 0.03841(13) 0.0279(6) Uani 1 1 d . .
H5A H 0.1625 0.7411 0.0122 0.033 Uiso 1 1 calc R U
H5B H 0.1062 0.5830 0.0568 0.033 Uiso 1 1 calc R U
C6 C 0.16998(17) 0.3881(5) -0.01270(14) 0.0361(7) Uani 1 1 d . .
H6A H 0.2192 0.4058 -0.0348 0.054 Uiso 1 1 calc R U
H6B H 0.1289 0.3872 -0.0499 0.054 Uiso 1 1 calc R U
H6C H 0.1694 0.2408 0.0139 0.054 Uiso 1 1 calc R U
C7 C 0.17294(13) 0.5733(4) 0.29736(12) 0.0223(6) Uani 1 1 d . .
C8 C 0.11929(13) 0.6665(4) 0.34247(12) 0.0257(6) Uani 1 1 d . .
H8 H 0.1293 0.8131 0.3647 0.031 Uiso 1 1 calc R U
C9 C 0.05094(14) 0.5489(5) 0.35579(13) 0.0293(7) Uani 1 1 d . .
C10 C 0.03815(14) 0.3346(5) 0.32318(13) 0.0298(6) Uani 1 1 d . .
H10 H -0.0079 0.2529 0.3307 0.036 Uiso 1 1 calc R U
C11 C 0.09131(14) 0.2379(5) 0.27991(14) 0.0308(6) Uani 1 1 d . .
H11 H 0.0819 0.0894 0.2587 0.037 Uiso 1 1 calc R U
C12 C 0.15854(14) 0.3560(4) 0.26714(13) 0.0269(6) Uani 1 1 d . .
H12 H 0.1948 0.2872 0.2375 0.032 Uiso 1 1 calc R U
C13 C -0.00694(15) 0.6587(6) 0.40262(15) 0.0415(8) Uani 1 1 d . .
H13A H -0.0466 0.7359 0.3726 0.062 Uiso 1 1 calc R U
H13B H 0.0183 0.7741 0.4342 0.062 Uiso 1 1 calc R U
H13C H -0.0302 0.5374 0.4314 0.062 Uiso 1 1 calc R U
C14 C 0.29779(13) 0.7273(4) 0.34916(13) 0.0233(6) Uani 1 1 d . .
C15 C 0.29903(14) 0.5568(4) 0.40263(13) 0.0268(6) Uani 1 1 d . .
H15 H 0.2688 0.4203 0.3959 0.032 Uiso 1 1 calc R U
C16 C 0.34330(15) 0.5830(5) 0.46499(13) 0.0310(6) Uani 1 1 d . .
H16 H 0.3439 0.4640 0.5003 0.037 Uiso 1 1 calc R U
C17 C 0.38693(14) 0.7826(5) 0.47603(14) 0.0315(7) Uani 1 1 d . .
H17 H 0.4174 0.8008 0.5189 0.038 Uiso 1 1 calc R U
C18 C 0.38590(14) 0.9547(5) 0.42449(13) 0.0300(6) Uani 1 1 d . .
H18 H 0.4157 1.0917 0.4319 0.036 Uiso 1 1 calc R U
C19 C 0.34171(13) 0.9290(4) 0.36204(13) 0.0259(6) Uani 1 1 d . .
H19 H 0.3411 1.0498 0.3273 0.031 Uiso 1 1 calc R U
C20 C 0.34042(13) 0.8490(4) 0.19761(12) 0.0209(6) Uani 1 1 d . .
C21 C 0.40238(13) 0.6991(4) 0.20988(12) 0.0239(6) Uani 1 1 d . .
H21 H 0.3954 0.5559 0.2344 0.029 Uiso 1 1 calc R U
C22 C 0.47437(13) 0.7565(4) 0.18667(13) 0.0268(6) Uani 1 1 d . .
H22 H 0.5158 0.6521 0.1954 0.032 Uiso 1 1 calc R U
C23 C 0.48591(14) 0.9644(4) 0.15107(13) 0.0276(6) Uani 1 1 d . .
H23 H 0.5349 1.0027 0.1351 0.033 Uiso 1 1 calc R U
C24 C 0.42507(14) 1.1165(4) 0.13888(12) 0.0269(6) Uani 1 1 d . .
H24 H 0.4325 1.2601 0.1148 0.032 Uiso 1 1 calc R U
C25 C 0.35323(14) 1.0584(4) 0.16199(12) 0.0256(6) Uani 1 1 d . .
H25 H 0.3120 1.1637 0.1533 0.031 Uiso 1 1 calc R U
loop_
_atom_site_aniso_label
_atom_site_aniso_U_11
_atom_site_aniso_U_22
_atom_site_aniso_U_33
_atom_site_aniso_U_23
_atom_site_aniso_U_13
_atom_site_aniso_U_12
C1 0.0221(12) 0.0137(12) 0.0268(13) 0.0006(10) 0.0018(9) 0.0035(9)
C2 0.0233(12) 0.0133(12) 0.0288(14) -0.0023(10) 0.0024(10) 0.0034(9)
C3 0.0282(13) 0.0198(13) 0.0229(13) 0.0035(10) -0.0009(10) -0.0002(10)
C4 0.0287(13) 0.0221(14) 0.0286(14) 0.0019(11) 0.0034(10) 0.0029(10)
C5 0.0338(14) 0.0236(14) 0.0262(13) 0.0021(11) 0.0004(10) -0.0018(11)
C6 0.0492(17) 0.0275(15) 0.0317(15) -0.0002(12) 0.0020(12) -0.0032(13)
C7 0.0270(13) 0.0199(13) 0.0200(12) 0.0030(10) -0.0003(10) 0.0014(10)
C8 0.0302(14) 0.0196(13) 0.0271(14) 0.0009(10) -0.0008(10) 0.0021(10)
C9 0.0247(13) 0.0348(16) 0.0284(14) 0.0078(11) 0.0006(10) 0.0044(11)
C10 0.0251(13) 0.0294(15) 0.0345(15) 0.0063(12) -0.0040(11) -0.0041(11)
C11 0.0384(15) 0.0209(14) 0.0325(15) 0.0020(11) -0.0048(12) -0.0022(11)
C12 0.0328(14) 0.0220(14) 0.0260(13) -0.0008(11) 0.0017(10) 0.0009(11)
C13 0.0326(15) 0.0502(19) 0.0421(17) 0.0033(14) 0.0082(12) 0.0020(13)
C14 0.0242(12) 0.0199(13) 0.0262(13) -0.0027(10) 0.0047(10) 0.0015(10)
C15 0.0308(13) 0.0231(14) 0.0269(14) 0.0011(10) 0.0045(10) 0.0018(10)
C16 0.0361(14) 0.0310(15) 0.0262(14) 0.0042(11) 0.0036(11) 0.0050(11)
C17 0.0313(14) 0.0379(16) 0.0250(14) -0.0058(12) -0.0033(11) 0.0054(12)
C18 0.0314(14) 0.0286(15) 0.0302(15) -0.0079(11) 0.0037(11) -0.0019(11)
C19 0.0293(13) 0.0222(14) 0.0266(13) -0.0021(10) 0.0041(10) 0.0006(10)
C20 0.0250(12) 0.0176(13) 0.0202(12) -0.0013(10) 0.0003(9) 0.0000(10)
C21 0.0292(13) 0.0200(13) 0.0223(13) -0.0002(10) 0.0003(10) 0.0001(10)
C22 0.0274(13) 0.0287(15) 0.0243(13) -0.0030(11) 0.0004(10) 0.0040(11)
C23 0.0264(13) 0.0317(15) 0.0250(14) -0.0033(11) 0.0038(10) -0.0056(11)
C24 0.0359(14) 0.0211(14) 0.0239(13) 0.0007(11) 0.0023(10) -0.0053(11)
C25 0.0299(13) 0.0221(14) 0.0247(13) 0.0002(10) 0.0021(10) 0.0024(10)
loop_
_atom_type_symbol
_atom_type_description
_atom_type_scat_dispersion_real
_atom_type_scat_dispersion_imag
_atom_type_scat_source
C C 0.0033 0.0016 'International Tables Vol C Tables 4.2.6.8 and 6.1.1.4'
H H 0.0000 0.0000 'International Tables Vol C Tables 4.2.6.8 and 6.1.1.4'
loop_
_geom_angle_atom_site_label_1
_geom_angle_atom_site_label_2
_geom_angle_atom_site_label_3
_geom_angle
C2 C1 C14 124.7(2)
C2 C1 C7 120.9(2)
C14 C1 C7 114.5(2)
C1 C2 C20 123.8(2)
C1 C2 C3 121.9(2)
C20 C2 C3 114.2(2)
C2 C3 C4 113.57(19)
C2 C3 H3A 108.9
C4 C3 H3A 108.9
C2 C3 H3B 108.9
C4 C3 H3B 108.9
H3A C3 H3B 107.7
C5 C4 C3 113.71(19)
C5 C4 H4A 108.8
C3 C4 H4A 108.8
C5 C4 H4B 108.8
C3 C4 H4B 108.8
H4A C4 H4B 107.7
C4 C5 C6 111.3(2)
C4 C5 H5A 109.4
C6 C5 H5A 109.4
C4 C5 H5B 109.4
C6 C5 H5B 109.4
H5A C5 H5B 108.0
C5 C6 H6A 109.5
C5 C6 H6B 109.5
H6A C6 H6B 109.5
C5 C6 H6C 109.5
H6A C6 H6C 109.5
H6B C6 H6C 109.5
C12 C7 C8 118.3(2)
C12 C7 C1 120.4(2)
C8 C7 C1 121.3(2)
C7 C8 C9 121.8(2)
C7 C8 H8 119.1
C9 C8 H8 119.1
C10 C9 C8 117.9(2)
C10 C9 C13 121.7(2)
C8 C9 C13 120.4(2)
C11 C10 C9 121.0(2)
C11 C10 H10 119.5
C9 C10 H10 119.5
C10 C11 C12 120.5(2)
C10 C11 H11 119.7
C12 C11 H11 119.7
C7 C12 C11 120.5(2)
C7 C12 H12 119.8
C11 C12 H12 119.8
C9 C13 H13A 109.5
C9 C13 H13B 109.5
H13A C13 H13B 109.5
C9 C13 H13C 109.5
H13A C13 H13C 109.5
H13B C13 H13C 109.5
C15 C14 C19 117.4(2)
C15 C14 C1 119.8(2)
C19 C14 C1 122.5(2)
C16 C15 C14 121.3(2)
C16 C15 H15 119.3
C14 C15 H15 119.3
C15 C16 C17 120.1(2)
C15 C16 H16 120.0
C17 C16 H16 120.0
C18 C17 C16 119.7(2)
C18 C17 H17 120.2
C16 C17 H17 120.2
C17 C18 C19 120.4(2)
C17 C18 H18 119.8
C19 C18 H18 119.8
C18 C19 C14 121.1(2)
C18 C19 H19 119.5
C14 C19 H19 119.5
C25 C20 C21 117.7(2)
C25 C20 C2 122.5(2)
C21 C20 C2 119.6(2)
C22 C21 C20 120.9(2)
C22 C21 H21 119.5
C20 C21 H21 119.5
C23 C22 C21 120.5(2)
C23 C22 H22 119.7
C21 C22 H22 119.7
C22 C23 C24 119.4(2)
C22 C23 H23 120.3
C24 C23 H23 120.3
C23 C24 C25 120.0(2)
C23 C24 H24 120.0
C25 C24 H24 120.0
C24 C25 C20 121.5(2)
C24 C25 H25 119.3
C20 C25 H25 119.3
loop_
_geom_bond_atom_site_label_1
_geom_bond_atom_site_label_2
_geom_bond_distance
C1 C2 1.354(3)
C1 C14 1.486(3)
C1 C7 1.506(3)
C2 C20 1.503(3)
C2 C3 1.512(3)
C3 C4 1.531(3)
C3 H3A 0.9900
C3 H3B 0.9900
C4 C5 1.516(3)
C4 H4A 0.9900
C4 H4B 0.9900
C5 C6 1.530(4)
C5 H5A 0.9900
C5 H5B 0.9900
C6 H6A 0.9800
C6 H6B 0.9800
C6 H6C 0.9800
C7 C12 1.385(3)
C7 C8 1.399(3)
C8 C9 1.408(3)
C8 H8 0.9500
C9 C10 1.385(4)
C9 C13 1.510(4)
C10 C11 1.380(4)
C10 H10 0.9500
C11 C12 1.391(4)
C11 H11 0.9500
C12 H12 0.9500
C13 H13A 0.9800
C13 H13B 0.9800
C13 H13C 0.9800
C14 C15 1.398(3)
C14 C19 1.403(3)
C15 C16 1.382(3)
C15 H15 0.9500
C16 C17 1.386(4)
C16 H16 0.9500
C17 C18 1.379(4)
C17 H17 0.9500
C18 C19 1.382(3)
C18 H18 0.9500
C19 H19 0.9500
C20 C25 1.395(3)
C20 C21 1.397(3)
C21 C22 1.395(3)
C21 H21 0.9500
C22 C23 1.384(4)
C22 H22 0.9500
C23 C24 1.389(3)
C23 H23 0.9500
C24 C25 1.393(3)
C24 H24 0.9500
C25 H25 0.9500
