#------------------------------------------------------------------------------
#$Date: 2016-03-24 03:13:03 +0200 (Thu, 24 Mar 2016) $
#$Revision: 179619 $
#$URL: svn://www.crystallography.net/cod/cif/4/50/83/4508334.cif $
#------------------------------------------------------------------------------
#
# This file is available in the Crystallography Open Database (COD),
# http://www.crystallography.net/
#
# All data on this site have been placed in the public domain by the
# contributors.
#
data_4508334
loop_
_publ_author_name
'Bowles, Faye L.'
'Mercado, Brandon Q.'
'Ghiassi, Kamran B.'
'Chen, Susanne Y.'
'Olmstead, Marilyn M.'
'Yang, Hua'
'Liu, Ziyang'
'Balch, Alan L.'
_publ_section_title
;
 Ordered Structures from Crystalline Carbon Disulfide Solvates of the
 Nano-Tubular FullerenesD5h(1)-C90andD5h-C70
;
_journal_issue                   10
_journal_name_full               'Crystal Growth &amp; Design'
_journal_page_first              4591
_journal_paper_doi               10.1021/cg401138g
_journal_volume                  13
_journal_year                    2013
_chemical_formula_moiety         'C90, C S2'
_chemical_formula_sum            'C91 S2'
_chemical_formula_weight         1157.03
_chemical_name_common            D5h-C90.CS2
_chemical_name_systematic
;
 ?
;
_space_group_crystal_system      orthorhombic
_space_group_IT_number           57
_space_group_name_Hall           '-P 2c 2b'
_space_group_name_H-M_alt        'P b c m'
_symmetry_space_group_name_Hall  '-P 2c 2b'
_symmetry_space_group_name_H-M   'P b c m'
_audit_creation_method           SHELXL-2013
_cell_angle_alpha                90
_cell_angle_beta                 90
_cell_angle_gamma                90
_cell_formula_units_Z            4
_cell_length_a                   14.1354(5)
_cell_length_b                   21.1391(7)
_cell_length_c                   14.2120(5)
_cell_measurement_reflns_used    9879
_cell_measurement_temperature    100(2)
_cell_measurement_theta_max      39.8
_cell_measurement_theta_min      2.4
_cell_volume                     4246.7(3)
_computing_cell_refinement       'SAINT (Bruker, 2009)'
_computing_data_collection       'Apex2 (Bruker, 2009)'
_computing_data_reduction        'SAINT (Bruker, 2009)'
_computing_publication_material  'SHELXL-2013 (Sheldrick, 2013)'
_computing_structure_refinement  'SHELXL-2013 (Sheldrick, 2013)'
_computing_structure_solution    'SIR2008 (Burla, 2008)'
_diffrn_ambient_temperature      100(2)
_diffrn_detector_area_resol_mean 8.3
_diffrn_measured_fraction_theta_full 0.999
_diffrn_measured_fraction_theta_max 0.997
_diffrn_measurement_device_type  'Bruker ApexII'
_diffrn_measurement_method       \w
_diffrn_radiation_type           synchrotron
_diffrn_radiation_wavelength     0.7749
_diffrn_reflns_av_R_equivalents  0.0830
_diffrn_reflns_av_unetI/netI     0.0352
_diffrn_reflns_Laue_measured_fraction_full 0.999
_diffrn_reflns_Laue_measured_fraction_max 0.997
_diffrn_reflns_limit_h_max       23
_diffrn_reflns_limit_h_min       -19
_diffrn_reflns_limit_k_max       34
_diffrn_reflns_limit_k_min       -34
_diffrn_reflns_limit_l_max       23
_diffrn_reflns_limit_l_min       -23
_diffrn_reflns_number            237697
_diffrn_reflns_point_group_measured_fraction_full 0.999
_diffrn_reflns_point_group_measured_fraction_max 0.997
_diffrn_reflns_theta_full        27.706
_diffrn_reflns_theta_max         39.824
_diffrn_reflns_theta_min         1.571
_diffrn_source                   'Beamline 11.3.1 Advanced Light Source'
_exptl_absorpt_coefficient_mu    0.244
_exptl_absorpt_correction_T_max  0.746
_exptl_absorpt_correction_T_min  0.694
_exptl_absorpt_correction_type   multi-scan
_exptl_absorpt_process_details   'SADABS (Sheldrick, 2008)'
_exptl_crystal_colour            black
_exptl_crystal_density_diffrn    1.810
_exptl_crystal_description       parallelepiped
_exptl_crystal_F_000             2312
_exptl_crystal_size_max          0.150
_exptl_crystal_size_mid          0.100
_exptl_crystal_size_min          0.050
_refine_diff_density_max         0.765
_refine_diff_density_min         -0.777
_refine_diff_density_rms         0.175
_refine_ls_extinction_method     none
_refine_ls_goodness_of_fit_ref   1.157
_refine_ls_hydrogen_treatment    undef
_refine_ls_matrix_type           full
_refine_ls_number_parameters     441
_refine_ls_number_reflns         10335
_refine_ls_number_restraints     3
_refine_ls_restrained_S_all      1.157
_refine_ls_R_factor_all          0.0955
_refine_ls_R_factor_gt           0.0873
_refine_ls_shift/su_max          0.001
_refine_ls_shift/su_mean         0.000
_refine_ls_structure_factor_coef Fsqd
_refine_ls_weighting_details
'w=1/[\s^2^(Fo^2^)+(0.0713P)^2^+12.3107P] where P=(Fo^2^+2Fc^2^)/3'
_refine_ls_weighting_scheme      calc
_refine_ls_wR_factor_gt          0.2354
_refine_ls_wR_factor_ref         0.2387
_reflns_Friedel_coverage         0.000
_reflns_number_gt                9250
_reflns_number_total             10335
_reflns_threshold_expression     'I > 2\s(I)'
_cod_data_source_file            cg401138g_si_001.cif
_cod_data_source_block           bqm61
_cod_database_code               4508334
#BEGIN Tags that were not found in dictionaries:
_shelx_space_group_comment
;
The symmetry employed for this shelxl refinement is uniquely defined
by the following loop, which should always be used as a source of
symmetry information in preference to the above space-group names.
They are only intended as comments.
;
_shelx_estimated_absorpt_t_min   0.964
_shelx_estimated_absorpt_t_max   0.988
_shelxl_version_number           2013-4
_shelx_res_file
;
TITL bqm61 in Pbcm C90.CS2
CELL 0.77490  14.1354  21.1391  14.2120  90.000  90.000  90.000
ZERR    4.00   0.0005   0.0007   0.0005   0.000   0.000   0.000
LATT  1
SYMM -X, -Y, 0.5+Z
SYMM -X, 0.5+Y, 0.5-Z
SYMM X, 0.5-Y, -Z
SFAC C S
DISP C 0.00040 0.0020 13.6
DISP S 0.1430 0.1480 674.2
UNIT 364 8
TEMP -173
merg 0
eqiv $1 1-x, -0.5+y, 1.5-z
eqiv $2 1-x, 1-y, 1-z
eqiv $3 x, 0.5-y, 1-z
eqiv $4 -x, -0.5+y, z
eqiv $5 -x, 1-y, 1-z
eqiv $6 x, 0.5-y,0.5+z
eqiv $7 x, 1.5-y, 1-z
rtab bond c9 c82_$1
rtab bond c9 c64_$1
rtab bond c8 c82_$1
rtab bond c23 c42_$2
rtab bond c23 c43_$2
rtab bond c22 c43_$2
rtab bond c6 c6_$3
rtab bond c6 c20_$3
rtab bond c38 c78_$5
rtab bond c39 c78_$5
rtab bond C17 C85_$4
rtab bond c17 c86_$4
rtab bond c4 S1_$6
rtab bond c58 C58_$5
rtab bond c80 c81_$7
rtab bond c81 c81_$7
size 0.15 0.10 0.05 ! black parallelepiped
acta
l.s. 8
rem twin rot mat
WGHT    0.071300   12.310700
BASF   0.09898   0.08223
FVAR      10.96931
C1    1    0.364077    0.259649    0.750000    10.50000    0.01688    0.00989 =
         0.02297    0.00000    0.00000    0.00389
C4    1    0.206906    0.251033    0.698995    11.00000    0.01853    0.00956 =
         0.01818   -0.00160   -0.00002   -0.00173
C5    1    0.304458    0.256281    0.667487    11.00000    0.01915    0.00884 =
         0.01986   -0.00286    0.00078    0.00038
C6    1    0.325904    0.292915    0.588704    11.00000    0.01850    0.01095 =
         0.01801   -0.00465    0.00353    0.00137
C7    1    0.407695    0.333995    0.589611    11.00000    0.01668    0.01396 =
         0.01637   -0.00370    0.00505    0.00246
C8    1    0.464829    0.337058    0.668281    11.00000    0.01186    0.01400 =
         0.02040   -0.00244    0.00407    0.00373
C9    1    0.443087    0.299303    0.750000    10.50000    0.01330    0.01203 =
         0.02429    0.00000    0.00000    0.00568
C17   1    0.062539    0.315847    0.701245    11.00000    0.01288    0.01082 =
         0.01783   -0.00032   -0.00126   -0.00505
C18   1    0.135869    0.282755    0.650163    11.00000    0.01706    0.01071 =
         0.01753   -0.00303   -0.00227   -0.00453
C19   1    0.158678    0.320857    0.568988    11.00000    0.01758    0.01286 =
         0.01204   -0.00486   -0.00203   -0.00329
C20   1    0.251835    0.325982    0.539202    11.00000    0.01854    0.01332 =
         0.01321   -0.00553    0.00048   -0.00106
C21   1    0.287086    0.386466    0.509275    11.00000    0.01875    0.01371 =
         0.00942   -0.00464    0.00231   -0.00113
C22   1    0.384151    0.391593    0.540658    11.00000    0.01506    0.01512 =
         0.01228   -0.00313    0.00467    0.00097
C23   1    0.420995    0.450270    0.567390    11.00000    0.01261    0.01407 =
         0.01200   -0.00271    0.00480    0.00030
C24   1    0.481715    0.453398    0.650002    11.00000    0.00849    0.01390 =
         0.01668   -0.00163    0.00341    0.00124
C25   1    0.500225    0.397422    0.699164    11.00000    0.00945    0.01379 =
         0.02090   -0.00176    0.00280    0.00271
C36   1    0.013425    0.428831    0.698762    11.00000    0.00813    0.01394 =
         0.01605    0.00022   -0.00150   -0.00242
C37   1    0.040201    0.373388    0.651996    11.00000    0.01059    0.01382 =
         0.01507   -0.00182   -0.00319   -0.00362
C38   1    0.100119    0.376685    0.570045    11.00000    0.01473    0.01420 =
         0.01242   -0.00291   -0.00413   -0.00292
C39   1    0.132197    0.435304    0.536953    11.00000    0.01470    0.01494 =
         0.00958   -0.00183   -0.00354   -0.00182
C40   1    0.229853    0.440283    0.505178    11.00000    0.01614    0.01478 =
         0.00884   -0.00189   -0.00004   -0.00173
C41   1    0.275231    0.501304    0.506662    11.00000    0.01675    0.01431 =
         0.00682    0.00036    0.00134   -0.00155
C42   1    0.370906    0.506167    0.538195    11.00000    0.01286    0.01440 =
         0.01058   -0.00069    0.00448   -0.00065
C43   1    0.407385    0.566883    0.567161    11.00000    0.01350    0.01418 =
         0.01063    0.00118    0.00356   -0.00108
C44   1    0.468117    0.569916    0.649764    11.00000    0.00960    0.01446 =
         0.01379   -0.00012    0.00341   -0.00277
C45   1    0.489714    0.512441    0.699590    11.00000    0.00729    0.01303 =
         0.01668   -0.00060    0.00198   -0.00019
C56   1   -0.000395    0.545594    0.698726    11.00000    0.00682    0.01518 =
         0.01801    0.00089   -0.00194    0.00150
C57   1    0.024399    0.488073    0.649886    11.00000    0.00874    0.01477 =
         0.01427    0.00099   -0.00348   -0.00083
C58   1    0.084615    0.491158    0.569300    11.00000    0.01165    0.01505 =
         0.01120    0.00009   -0.00475   -0.00116
C59   1    0.118547    0.551866    0.537289    11.00000    0.01437    0.01544 =
         0.01086    0.00146   -0.00534   -0.00046
C60   1    0.216254    0.556842    0.504981    11.00000    0.01714    0.01442 =
         0.00745    0.00203   -0.00139   -0.00098
C61   1    0.260359    0.615864    0.509103    11.00000    0.01819    0.01467 =
         0.00929    0.00390    0.00000   -0.00121
C62   1    0.357122    0.621107    0.540362    11.00000    0.01588    0.01451 =
         0.01004    0.00306    0.00294   -0.00249
C63   1    0.367225    0.680104    0.589249    11.00000    0.01618    0.01253 =
         0.01426    0.00470    0.00203   -0.00345
C64   1    0.424498    0.683128    0.668224    11.00000    0.01334    0.01225 =
         0.01520    0.00250    0.00187   -0.00457
C65   1    0.473399    0.627063    0.699000    11.00000    0.00971    0.01349 =
         0.01574    0.00194    0.00121   -0.00341
C76   1    0.021715    0.662187    0.701283    11.00000    0.01125    0.01295 =
         0.02319    0.00175   -0.00122    0.00468
C77   1    0.013229    0.602919    0.651976    11.00000    0.01010    0.01452 =
         0.01947    0.00183   -0.00449    0.00178
C78   1    0.073325    0.606130    0.570048    11.00000    0.01490    0.01526 =
         0.01416    0.00250   -0.00623    0.00200
C79   1    0.118127    0.667086    0.568965    11.00000    0.01603    0.01327 =
         0.01524    0.00431   -0.00412    0.00191
C80   1    0.211228    0.671765    0.539208    11.00000    0.01965    0.01454 =
         0.01053    0.00486   -0.00184    0.00057
C81   1    0.276854    0.712003    0.588935    11.00000    0.01817    0.01099 =
         0.01518    0.00546    0.00021   -0.00239
C82   1    0.393843    0.718341    0.750000    10.50000    0.01637    0.01071 =
         0.01733    0.00000    0.00000   -0.00502
C85   1    0.086738    0.702432    0.649956    11.00000    0.01479    0.01109 =
         0.02088    0.00414   -0.00270    0.00363
C86   1    0.149822    0.741216    0.698866    11.00000    0.01646    0.01026 =
         0.02149    0.00252   -0.00063    0.00353
C87   1    0.247182    0.746040    0.667512    11.00000    0.01878    0.00976 =
         0.01786    0.00318   -0.00123   -0.00024
C88   1    0.307128    0.749325    0.750000    10.50000    0.01889    0.00886 =
         0.01813    0.00000    0.00000   -0.00284
PART   1
S1    2    0.267475    0.409690    0.250000    10.45000    0.03667    0.03079 =
         0.02574    0.00000    0.00000   -0.00284
S2    2    0.248269    0.555599    0.250000    10.45000    0.03497    0.03350 =
         0.02448    0.00000    0.00000    0.00420
C91   1    0.258396    0.482133    0.250000    10.45000    0.01677    0.03604 =
         0.01458    0.00000    0.00000   -0.00106
PART   2
same s1 > c91
S1B   2    0.263085    0.432605    0.250000    10.05000    0.03912
S2B   2    0.248688    0.579546    0.250000    10.05000    0.04610
C91B  1    0.259548    0.505628    0.250000    10.05000    0.02396
PART   0

HKLF 5

REM  bqm61 in Pbcm C90.CS2
REM R1 =  0.0873 for    9250 Fo > 4sig(Fo)  and  0.0955 for all   10335 data
REM    441 parameters refined using      3 restraints

END

WGHT      0.0758     12.5154

REM Highest difference peak  0.765,  deepest hole -0.777,  1-sigma level  0.175
Q1    1   0.2351  0.5214  0.7500  10.50000  0.05    0.76
Q2    1   0.3224  0.4836  0.7500  10.50000  0.05    0.72
Q3    1   0.2219  0.4731  0.7500  10.50000  0.05    0.72
Q4    1   0.2393  0.5057  0.7219  11.00000  0.05    0.71
Q5    1   0.2508  0.4107  0.5046  11.00000  0.05    0.68
Q6    1   0.1041  0.5182  0.5443  11.00000  0.05    0.65
Q7    1   0.2338  0.5859  0.5171  11.00000  0.05    0.65
Q8    1   0.2824  0.3612  0.2500  10.50000  0.05    0.64
Q9    1   0.1891  0.6099  0.2500  10.50000  0.05    0.64
Q10   1   0.2138  0.5094  0.6878  11.00000  0.05    0.64
Q11   1   0.3567  0.7381  0.7500  10.50000  0.05    0.63
Q12   1   0.2538  0.5303  0.5109  11.00000  0.05    0.63
Q13   1   0.3128  0.5209  0.7107  11.00000  0.05    0.62
Q14   1   0.2290  0.4764  0.6606  11.00000  0.05    0.61
Q15   1   0.3791  0.7947  0.8510  11.00000  0.05    0.60
Q16   1   0.2696  0.4776  0.7101  11.00000  0.05    0.59
Q17   1   0.6026  0.2994  0.6236  11.00000  0.05    0.59
Q18   1   0.2544  0.4724  0.4801  11.00000  0.05    0.58
Q19   1   0.2245  0.5555  0.7500  10.50000  0.05    0.58
Q20   1   0.0953  0.4580  0.5577  11.00000  0.05    0.56
;
_shelx_res_checksum              47598
_shelx_hkl_file
;
   1   0   0       0      46   1
   2   0   0  229477    6794   1
   3   0   0  190068    5878   1
   4   0   0 4997560  284170   1
   5   0   0  253448    7907   1
   6   0   0 1545089   54074   1
   7   0   0  254460    5699   1
   8   0   0 6170219  178390   1
   9   0   0   55245    1607   1
  10   0   0   65843    1828   1
  -2   9  -9  489061   10639  -2
  -2  -9   9  489061   10639  -3
  11   0   0  489061   10639   1
  12   0   0  102299    3303   1
  13   0   0    5787    1178   1
  14   0   0  117551    3928   1
  15   0   0  102967    3562   1
  16   0   0    7514    1302   1
  -3  14 -14   18353    1726  -2
  -3 -14  14   18353    1726  -3
  17   0   0   18353    1726   1
  18   0   0  263100    9806   1
  19   0   0  160905    6383   1
  20   0   0   88264    4058   1
  21   0   0   56792    3495   1
  22   0   0   18065    2311   1
  23   0   0    6579    1998   1
   1   1   0     -83      83   1
   2   1   0   12001     684   1
   3   1   0     490     680   1
   4   1   0   34082    1276   1
   5   1   0   89178    2403   1
   6   1   0  113085    2484   1
   7   1   0  615076   10037   1
   8   1   0  141261    2467   1
  -2  -8   7  120860    2383  -3
   9   1   0  120860    2383   1
  10   1   0   13936     591   1
  11   1   0     896     525   1
  12   1   0  143277    2843   1
  -2  10 -11  136027   16137  -2
  13   1   0  136027   16137   1
  14   1   0   22678    1061   1
  -3 -13  12  134161    3425  -3
  15   1   0  134161    3425   1
  16   1   0     936     775   1
  17   1   0   75912    2391   1
  18   1   0    4669     995   1
  -3  15 -16   14744    2315  -2
  19   1   0   14744    2315   1
  -4 -17  16   26762    1495  -3
  20   1   0   26762    1495   1
  21   1   0    1646    1158   1
  22   1   0    8329    1452   1
  23   1   0    7451    1552   1
  -1  -2   0    2421     382  -3
   1   2   0    2421     382   1
  -1  -3   1    8600 1946268  -3
   2   2   0    8600 1946268   1
   3   2   0     638     645   1
   0   2  -4 8266534  467769  -2
   4   2   0 8266534  467769   1
   5   2   0   43847    1475   1
   6   2   0   32981    1122   1
  -2  -7   5  104307    3300  -3
   7   2   0  104307    3300   1
   8   2   0 2327709   33509   1
   9   2   0     973     444   1
  10   2   0  256748    4563   1
  11   2   0   97917    1863   1
  12   2   0  192222    4701   1
  -3 -12  10   91737    2349  -3
  13   2   0   91737    2349   1
  14   2   0    3647     779   1
  -2  11 -13   51164    7634  -2
  15   2   0   51164    7634   1
  16   2   0    -579     694   1
  17   2   0   38851    1524   1
  -4 -16  14   63926   11130  -3
  18   2   0   63926   11130   1
  19   2   0   10292    1251   1
  20   2   0  137800    4246   1
  -3  16 -18    7178    1391  -2
  21   2   0    7178    1391   1
  22   2   0   25014    1890   1
  23   2   0    8845    2064   1
   1   3   0   12368     664   1
   2   3   0   80236    2100   1
   3   3   0    7680     795   1
   4   3   0  220677    4855   1
  -2  -6   3  184528    6954  -3
   5   3   0  184528    6954   1
   6   3   0  161174    3011   1
   7   3   0  636097    9301   1
   8   3   0 1494806   21092   1
   9   3   0    1832     476   1
  10   3   0   24570     755   1
  11   3   0    3820     707   1
  -1   8 -11  105161    2254  -2
  12   3   0  105161    2254   1
  13   3   0   13901     915   1
  14   3   0   39695    1392   1
  15   3   0   30692    1072   1
  -4 -15  12    9264     847  -3
  16   3   0    9264     847   1
  17   3   0   62200    2098   1
  18   3   0   64975    2437   1
  19   3   0   13585    1242   1
  20   3   0  307338    8508   1
  21   3   0    5874    1320   1
  -5 -20  17   47095    2840  -3
  22   3   0   47095    2840   1
  -3  17 -20   15613    2030  -2
  23   3   0   15613    2030   1
   0   4   0   12802    1138   1
   1   4   0    1169     669   1
   2   4   0 3855940   98790   1
  -2  -5   1   85235    5793  -3
   3   4   0   85235    5793   1
   4   4   0  130226    3094   1
   5   4   0   27655    1052   1
   6   4   0   93836    1921   1
   7   4   0   58744    1269   1
   0   4  -8   78590    3264  -2
   8   4   0   78590    3264   1
   9   4   0   34944     922   1
  10   4   0   17803     713   1
  11   4   0  107114    2117   1
  12   4   0   21157     937   1
  13   4   0  103071    2441   1
  -1   9 -13  206710    5207  -2
  -4 -14  10  206710    5207  -3
  14   4   0  206710    5207   1
  15   4   0   20765     902   1
  16   4   0   61125    1789   1
  17   4   0  112510    2981   1
  18   4   0   35753    1447   1
  19   4   0    7806    1356   1
  -5 -19  15     885    1437  -3
  20   4   0     885    1437   1
  21   4   0    3835    1527   1
  22   4   0   10399    1682   1
  23   4   0    -626    1607   1
  -2  -4  -1   42848    1414  -3
   1   5   0   42848    1414   1
   2   5   0   60545    1768   1
   3   5   0   22472    1077   1
   4   5   0   70651    2007   1
   5   5   0  335778    5781   1
  -3  -8   3  183333    3101  -3
   6   5   0  183333    3101   1
  -3  -9   4  493075    7416  -3
   7   5   0  493075    7416   1
   8   5   0  121567    1988   1
   9   5   0     184     467   1
  10   5   0  285473    4641   1
  11   5   0  247279    4375   1
  -4 -13   8  313797    6148  -3
  12   5   0  313797    6148   1
  13   5   0  131661    2843   1
  14   5   0    5546     790   1
  15   5   0  324243    6748   1
  -1  10 -15   11849     842  -2
  16   5   0   11849     842   1
  17   5   0  497814   11141   1
  -5 -18  13    5435    1040  -3
  18   5   0    5435    1040   1
  19   5   0  178344    5783   1
  20   5   0    1490    1457   1
  21   5   0   20762    2135   1
  22   5   0    8991    1639   1
  -6 -22  17   17342    2054  -3
  23   5   0   17342    2054   1
   0   6   0  421586   12631   1
   2  -3  -3     234     778  -2
   1   6   0     234     778   1
   2   6   0 2898435   61404   1
   3   6   0    2590     751   1
  -3  -7   1  867257   15888  -3
   4   6   0  867257   15888   1
  -3  -8   2   35541    1506  -3
   5   6   0   35541    1506   1
   6   6   0   74596    2185   1
   1   2  -8  328775    7324  -2
   7   6   0  328775    7324   1
   8   6   0  209973    3235   1
   9   6   0   25232     817   1
  -4 -12   6  139337   11449  -3
  10   6   0  139337   11449   1
  11   6   0  112266    2353   1
  12   6   0   27384    1305   1
  13   6   0  110941    2608   1
  14   6   0   19273     929   1
  15   6   0   97292    2336   1
  -5 -17  11   54230    1732  -3
  16   6   0   54230    1732   1
  17   6   0   16314    1069   1
  -1  11 -17    2389     995  -2
  18   6   0    2389     995   1
  19   6   0    7678    1228   1
  20   6   0  100231    4471   1
  -6 -21  15   11231    1690  -3
  21   6   0   11231    1690   1
  22   6   0    5224    1576   1
  23   6   0   34807    5642   1
   1   7   0  206724    4675   1
  -3  -6  -1   48022    1637  -3
   2   7   0   48022    1637   1
   2  -2  -5  142631    3432  -2
   3   7   0  142631    3432   1
   4   7   0  115931    2159   1
   5   7   0  574526    9132   1
   6   7   0  201919    3375   1
   7   7   0  471964    7376   1
  -4 -11   4   39863    1008  -3
   8   7   0   39863    1008   1
   1   3 -10  332591    5341  -2
   9   7   0  332591    5341   1
  10   7   0  141638    2697   1
  11   7   0 1271041   23249   1
  12   7   0  403320    8395   1
  13   7   0  520349   10276   1
  -5 -16   9    3764     693  -3
  14   7   0    3764     693   1
  15   7   0   38691    1393   1
  16   7   0   53452    1712   1
  17   7   0   85439    2463   1
  18   7   0  127906    3496   1
  -6 -20  13   30042    1799  -3
  19   7   0   30042    1799   1
  -1  12 -19   40501    2177  -2
  20   7   0   40501    2177   1
  21   7   0   28991    2201   1
  22   7   0   11997    2155   1
   3  -5  -3  428093   14934  -2
  -3  -5  -3  428093   14934  -3
   0   8   0  428093   14934   1
   1   8   0    1165     823   1
   2   8   0  203963    4295   1
   3   8   0 1622170   27659   1
   4   8   0   70196    1452   1
   2  -1  -7 1660232   24560  -2
   5   8   0 1660232   24560   1
  -4 -10   2  703701   11449  -3
   6   8   0  703701   11449   1
   7   8   0  521745    7997   1
   8   8   0     632     540   1
   9   8   0 1060602   18296   1
  10   8   0   48595    1352   1
   1   4 -12  372475    7322  -2
  -5 -14   6  372475    7322  -3
  11   8   0  372475    7322   1
  -5 -15   7  172256    3847  -3
  12   8   0  172256    3847   1
  13   8   0   18426     906   1
  14   8   0    3919     698   1
  15   8   0  302802    6397   1
  16   8   0   14261     974   1
  -6 -19  11  402613    9147  -3
  17   8   0  402613    9147   1
  18   8   0   48413    1803   1
  19   8   0   31615    1769   1
  20   8   0   71915    2854   1
  21   8   0    -213    1456   1
  -1  13 -21    1718    1542  -2
  22   8   0    1718    1542   1
   1   9   0   61782    1508   1
   3  -4  -5   97288    4097  -2
   2   9   0   97288    4097   1
   3   9   0  832856   13022   1
  -4  -9   0    1205     512  -3
   4   9   0    1205     512   1
   5   9   0  247311    3943   1
   6   9   0  310350    4902   1
   7   9   0      74     565   1
   8   9   0   76161    1722   1
  -5 -13   4  860264   14940  -3
   9   9   0  860264   14940   1
  -5 -14   5    5347     751  -3
  10   9   0    5347     751   1
  11   9   0  329536    7320   1
  12   9   0   60676    1846   1
   1   5 -14    3792     682  -2
  13   9   0    3792     682   1
  14   9   0    5804     725   1
  -6 -18   9  112782    2723  -3
  15   9   0  112782    2723   1
  16   9   0   40671    1399   1
  17   9   0   16713    1093   1
  18   9   0   14149    1133   1
  19   9   0   95974    2980   1
  20   9   0    1111    1163   1
  -7 -23  14   83998    3433  -3
  21   9   0   83998    3433   1
  22   9   0    -427    1867   1
   0  10   0    3181     820   1
   1  10   0    6056     570   1
  -4  -8  -2  342383    5416  -3
   2  10   0  342383    5416   1
   3  10   0 1560281   22983   1
   3  -3  -7  153747    2534  -2
   4  10   0  153747    2534   1
   5  10   0 1286803   18632   1
   6  10   0   68067    1467   1
  -5 -12   2  200523    4095  -3
   7  10   0  200523    4095   1
   8  10   0   30593    1074   1
   9  10   0 1574382   28576   1
  10  10   0    1874     850   1
  11  10   0  805488   18037   1
  12  10   0  106068    2705   1
  -6 -17   7   84396    2091  -3
  13  10   0   84396    2091   1
  14  10   0  136225    3054   1
   1   6 -16   42373    6557  -2
  15  10   0   42373    6557   1
  16  10   0    4977     834   1
  17  10   0  714952   15284   1
  18  10   0  140395    3784   1
  19  10   0  199765    5106   1
  20  10   0   78022    3021   1
  21  10   0    2128    1523   1
  22  10   0   39752    2570   1
   1  11   0   46576    1134   1
   2  11   0  226303    3729   1
   3  11   0   21053     739   1
   4  11   0   15796     683   1
  -5 -11   0   24818     798  -3
   5  11   0   24818     798   1
   3  -2  -9   15702     704  -2
   6  11   0   15702     704   1
   7  11   0    1887     659   1
   8  11   0   56836    1579   1
   9  11   0    4298     803   1
  10  11   0  360749    7761   1
  -6 -16   5   33895    1647  -3
  11  11   0   33895    1647   1
  12  11   0    -143     667   1
  13  11   0   11565     808   1
  14  11   0   33884    1215   1
  15  11   0  208243    4586   1
  16  11   0   25877    4260   1
   1   7 -18  140526    3449  -2
  -7 -21  10  140526    3449  -3
  17  11   0  140526    3449   1
  18  11   0   16643    1189   1
  19  11   0    1880     986   1
  20  11   0   40088    2032   1
  21  11   0    5527    1257   1
  -8 -25  14    4188    2020  -3
  22  11   0    4188    2020   1
   0  12   0  707789   15463   1
   1  12   0     492     516   1
   4  -6  -6  348394    5271  -2
   2  12   0  348394    5271   1
  -5 -10  -2   14506     686  -3
   3  12   0   14506     686   1
   4  12   0  181013    2960   1
   5  12   0  353233    5473   1
   6  12   0    1217     635   1
   7  12   0   25397    1040   1
   3  -1 -11  590874  132522  -2
   8  12   0  590874  132522   1
  -6 -15   3   99769    2624  -3
   9  12   0   99769    2624   1
  10  12   0    5630     960   1
  11  12   0    -476     649   1
  12  12   0   30827    1105   1
  13  12   0   31527    1132   1
  -7 -19   7   35278    4776  -3
  14  12   0   35278    4776   1
  -7 -20   8     709     775  -3
  15  12   0     709     775   1
  16  12   0    1229     829   1
  17  12   0   45053    1585   1
  18  12   0   97913    2744   1
   1   8 -20   39475    5811  -2
  19  12   0   39475    5811   1
  -8 -24  12    3238    1163  -3
  20  12   0    3238    1163   1
  21  12   0  255187    7781   1
  -5  -9  -4  442102   24879  -3
   1  13   0  442102   24879   1
   2  13   0  179637    2814   1
   3  13   0  413057    6328   1
   4  -5  -8      67     569  -2
   4  13   0      67     569   1
   5  13   0  506525    8512   1
   6  13   0    5125     750   1
  -6 -14   1  211871    4220  -3
   7  13   0  211871    4220   1
   8  13   0    4954     944   1
   9  13   0   43807    1596   1
  10  13   0  799241   15780   1
  11  13   0    -269     667   1
  -7 -18   5   10219    1271  -3
  12  13   0   10219    1271   1
  13  13   0   63045    1689   1
  14  13   0   34218    1247   1
  15  13   0    1603     823   1
  16  13   0   60618    1878   1
  17  13   0  229730    5492   1
  -8 -23  10   41356    1833  -3
  18  13   0   41356    1833   1
  19  13   0  159028    4025   1
  20  13   0   88623    2847   1
   1   9 -22    3243    1248  -2
  21  13   0    3243    1248   1
   0  14   0 1028987   21229   1
   5  -8  -6   14773    1377  -2
   1  14   0   14773    1377   1
   2  14   0   83335    1603   1
   3  14   0      51     539   1
   4  14   0   32366    1050   1
  -6 -13  -1  108283    2590  -3
   5  14   0  108283    2590   1
   6  14   0     601     758   1
   7  14   0   91971    2306   1
   8  14   0    8585     990   1
   9  14   0   54864    1822   1
  -7 -17   3  103728   14307  -3
  10  14   0  103728   14307   1
  11  14   0    3775     722   1
   3   1 -15   88542   10013  -2
  12  14   0   88542   10013   1
  13  14   0   10274     863   1
  14  14   0  114064    2801   1
  15  14   0  136228    3345   1
  -8 -22   8  264978    5963  -3
  16  14   0  264978    5963   1
  17  14   0   10850    1030   1
  18  14   0    1942     902   1
  19  14   0  122348    3269   1
  20  14   0  138856    3983   1
  21  14   0   44017    2365   1
   1  15   0  133606    2474   1
   2  15   0   43098    1113   1
   5  -7  -8   91671    2626  -2
  -6 -12  -3   91671    2626  -3
   3  15   0   91671    2626   1
   4  15   0    5125     779   1
   5  15   0    -230     758   1
   6  15   0   12570     981   1
   7  15   0  121255    2957   1
  -7 -16   1  114179   18866  -3
   8  15   0  114179   18866   1
   9  15   0  307196    6054   1
  10  15   0  216984    4252   1
  11  15   0  232742    4531   1
  12  15   0   95719    2256   1
  13  15   0   13300     915   1
   3   2 -17   13943    2271  -2
  -8 -21   6   13943    2271  -3
  14  15   0   13943    2271   1
  15  15   0    8279     941   1
  16  15   0  133321    3432   1
  17  15   0  134615    3507   1
  18  15   0   18488    1123   1
  19  15   0   63465    4553   1
  20  15   0   63507    2275   1
  21  15   0   43749    2349   1
   0  16   0 3556707   80270   1
  -6 -11  -5    2171     659  -3
   1  16   0    2171     659   1
   2  16   0  221925    4100   1
   3  16   0    3376     738   1
   4  16   0     -65     752   1
   5  -6 -10   83854   13812  -2
   5  16   0   83854   13812   1
  -7 -15  -1  151513    3465  -3
   6  16   0  151513    3465   1
   7  16   0  209938    5145   1
   8  16   0    2909     765   1
   9  16   0   10836     802   1
  10  16   0  124629    4450   1
  11  16   0    5797     899   1
  -8 -20   4   21591    1073  -3
  12  16   0   21591    1073   1
  13  16   0   19927    1100   1
  14  16   0   18419    1054   1
  15  16   0  141538    3349   1
   3   3 -19   16168    1133  -2
  16  16   0   16168    1133   1
  -9 -24   8  123195   13443  -3
  17  16   0  123195   13443   1
  -9 -25   9  147714    3780  -3
  18  16   0  147714    3780   1
  19  16   0  158447    4030   1
  20  16   0    -991     991   1
   6 -10  -7    8481     907  -2
   1  17   0    8481     907   1
   2  17   0 1555408   30227   1
   3  17   0   30469    1289   1
  -7 -14  -3  939634   18574  -3
   4  17   0  939634   18574   1
   5  17   0   29416    1274   1
   6  17   0  468722    9772   1
   5  -5 -12   54732    8068  -2
   7  17   0   54732    8068   1
   8  17   0   41271    1380   1
   9  17   0   41912    1324   1
  -8 -19   2  363813    6602  -3
  10  17   0  363813    6602   1
  11  17   0   63467    1718   1
  12  17   0  474449    9487   1
  13  17   0   41159    1453   1
  14  17   0  192801    4323   1
  -9 -23   6   45353    5321  -3
  15  17   0   45353    5321   1
  16  17   0  254652    5787   1
  17  17   0    3424     999   1
   3   4 -21   70682    2227  -2
  18  17   0   70682    2227   1
  19  17   0  109620    2893   1
  20  17   0   35513    1588   1
   0  18   0 2384516   68323   1
   1  18   0     999     788   1
  -7 -13  -5   38472    1457  -3
   2  18   0   38472    1457   1
   3  18   0   15017    3906   1
   4  18   0    7337    1253   1
   5  18   0   40641    1390   1
   6  18   0   95662    2360   1
   7  18   0   24115    1273   1
  -8 -18   0  965086   27518  -3
   8  18   0  965086   27518   1
   5  -4 -14    9832    1105  -2
   9  18   0    9832    1105   1
  10  18   0   64332    1670   1
  11  18   0    5876     831   1
  12  18   0   20453    1113   1
  -9 -22   4   15322    1042  -3
  13  18   0   15322    1042   1
  14  18   0   19803    1182   1
  15  18   0   36577    1513   1
  16  18   0    8032    1036   1
  17  18   0    9730    1041   1
  18  18   0    9738    1050   1
 -10 -27   9   15705    1136  -3
  19  18   0   15705    1136   1
   3   5 -23  116027    4381  -2
  20  18   0  116027    4381   1
   1  19   0   33804    1574   1
   2  19   0  686897   15528   1
   3  19   0   58877    1850   1
   4  19   0  152795    3847   1
   5  19   0    4790     767   1
  -8 -17  -2   56313   13237  -3
   6  19   0   56313   13237   1
   7  19   0   26144    1031   1
   8  19   0  185954    3592   1
   9  19   0     261     696   1
  10  19   0  108180    2363   1
   5  -3 -16  130703    3023  -2
  -9 -21   2  130703    3023  -3
  11  19   0  130703    3023   1
  12  19   0    8995     953   1
  13  19   0   75930    2227   1
  14  19   0  322227    7197   1
  15  19   0    1740     915   1
  16  19   0   38792    1518   1
 -10 -26   7    4417     978  -3
  17  19   0    4417     978   1
  18  19   0   98261    2672   1
  19  19   0   58605    1928   1
   0  20   0  184043    5348   1
   1  20   0     -27     761   1
   7 -11  -9   69749    1949  -2
   2  20   0   69749    1949   1
   3  20   0   28405    1115   1
  -8 -16  -4  210018    4260  -3
   4  20   0  210018    4260   1
   5  20   0   60475    1754   1
   6  20   0    2980     785   1
   7  20   0    8031     837   1
   8  20   0     781     707   1
  -9 -20   0   29235    1060  -3
   9  20   0   29235    1060   1
  10  20   0  233267    4576   1
  11  20   0     756     848   1
  12  20   0  114195    2963   1
   5  -2 -18   41957    1731  -2
  13  20   0   41957    1731   1
  14  20   0  161303    3774   1
 -10 -25   5   10939    1012  -3
  15  20   0   10939    1012   1
  16  20   0  118757    3072   1
  17  20   0   35412    1470   1
  18  20   0   35003    1461   1
  19  20   0   22489    1244   1
   1  21   0   33770    1169   1
  -8 -15  -6  423353    8433  -3
   2  21   0  423353    8433   1
   3  21   0   24134    1004   1
   7 -10 -11  136164    2938  -2
   4  21   0  136164    2938   1
   5  21   0  123466    2829   1
   6  21   0    3052     790   1
  -9 -19  -2   66974    1856  -3
   7  21   0   66974    1856   1
   8  21   0   92791    2263   1
   9  21   0   86512    2071   1
  10  21   0   64144    1761   1
  11  21   0  159743    3869   1
  12  21   0    2911     900   1
 -10 -24   3  127207    3109  -3
  13  21   0  127207    3109   1
  14  21   0    4480     955   1
   5  -1 -20    4380    1075  -2
  15  21   0    4380    1075   1
  16  21   0    -395     957   1
  17  21   0    3948     983   1
 -11 -28   7    2038     976  -3
  18  21   0    2038     976   1
   8 -14  -8  280908    7780  -2
  -8 -14  -8  280908    7780  -3
   0  22   0  280908    7780   1
   1  22   0   14423    1921   1
   2  22   0   28654    1024   1
   3  22   0   21635     987   1
   4  22   0   17759     932   1
  -9 -18  -4   31242    1199  -3
   5  22   0   31242    1199   1
   7  -9 -13    2763     821  -2
   6  22   0    2763     821   1
   7  22   0    3423     829   1
   8  22   0    5868     867   1
   9  22   0   90370    2249   1
  10  22   0   89312    3845   1
 -10 -23   1    7740     954  -3
  11  22   0    7740     954   1
  12  22   0   21609    1163   1
  13  22   0   54761    1774   1
  14  22   0   92089    2454   1
  15  22   0   23217    1224   1
 -11 -27   5   61538    1993  -3
  16  22   0   61538    1993   1
   5   0 -22   22739    1246  -2
  17  22   0   22739    1246   1
  18  22   0   65547    2072   1
   1  23   0    1160     716   1
   2  23   0  140604    2897   1
  -9 -17  -6   46191    6247  -3
   3  23   0   46191    6247   1
   4  23   0   57182    1679   1
   5  23   0   40110    1361   1
   6  23   0    6276     880   1
   7  23   0    6338     895   1
   7  -8 -15   33013    1278  -2
   8  23   0   33013    1278   1
 -10 -22  -1   43099    1506  -3
   9  23   0   43099    1506   1
  10  23   0   78715    2276   1
  11  23   0  110344    2793   1
  12  23   0    -880     919   1
  13  23   0   40339    1695   1
 -11 -26   3    2708     971  -3
  14  23   0    2708     971   1
  15  23   0   11017    1053   1
  16  23   0    3719    1004   1
  17  23   0    -461     957   1
   0  24   0  475432   13832   1
  -9 -16  -8    9030     952  -3
   1  24   0    9030     952   1
   2  24   0   89072    2175   1
   3  24   0   33409    1252   1
   4  24   0   25039    1127   1
   5  24   0  103006    2501   1
   6  24   0    1388     842   1
 -10 -21  -3   31190    1260  -3
   7  24   0   31190    1260   1
   8  24   0     446     876   1
   9  24   0   62552    1912   1
   7  -7 -17   17572    1891  -2
  10  24   0   17572    1891   1
  11  24   0   96253    2965   1
 -11 -25   1   56979    2119  -3
  12  24   0   56979    2119   1
  13  24   0   34086    1420   1
  14  24   0  109466    2804   1
  15  24   0    3011     978   1
  16  24   0   82200    2398   1
   9 -15 -10    2383     800  -2
   1  25   0    2383     800   1
   2  25   0   34947    1255   1
   3  25   0   82750    2166   1
   4  25   0   25099    2847   1
 -10 -20  -5  131214    3012  -3
   5  25   0  131214    3012   1
   6  25   0    2016     851   1
   7  25   0   58407    1799   1
   8  25   0    7378     968   1
   9  25   0   95456    2510   1
 -11 -24  -1   51214    4443  -3
  10  25   0   51214    4443   1
  11  25   0   95382    2948   1
   7  -6 -19     109    1099  -2
  12  25   0     109    1099   1
  13  25   0  123172    3544   1
  14  25   0   18233    1225   1
  15  25   0   24731    1282   1
 -12 -29   4    9445    1083  -3
  16  25   0    9445    1083   1
   0  26   0  605036   17520   1
   1  26   0    6493     888   1
 -10 -18  -8  271999    6102  -3
   2  26   0  271999    6102   1
   9 -14 -12  147611    3328  -2
 -10 -19  -7  147611    3328  -3
   3  26   0  147611    3328   1
   4  26   0   46810    1553   1
   5  26   0    3961     897   1
   6  26   0   12602     988   1
   7  26   0   10544    1012   1
 -11 -23  -3   14934    1079  -3
   8  26   0   14934    1079   1
   9  26   0   87122    3066   1
  10  26   0   -1007    1080   1
  11  26   0  312709    7814   1
  12  26   0     303    1105   1
  13  26   0    6265    1159   1
   7  -5 -21    4351    1129  -2
 -12 -28   2    4351    1129  -3
  14  26   0    4351    1129   1
  15  26   0     157    1007   1
 -10 -18  -9    5160     976  -3
   1  27   0    5160     976   1
   2  27   0   30740    1374   1
   3  27   0   89150    2380   1
   4  27   0     800     872   1
   9 -13 -14  338706    8715  -2
   5  27   0  338706    8715   1
 -11 -22  -5    3178     924  -3
   6  27   0    3178     924   1
   7  27   0    3612     943   1
   8  27   0    1621     949   1
   9  27   0  121219    3148   1
  10  27   0   18233    1324   1
  11  27   0   29765    1878   1
 -12 -27   0   12727    1254  -3
  12  27   0   12727    1254   1
  13  27   0   55830    2120   1
  14  27   0    3712    1141   1
   0  28   0  104324    3697   1
   1  28   0    3734    1032   1
   2  28   0  135544    3533   1
   3  28   0   45343    1580   1
 -11 -21  -7   16639    1230  -3
   4  28   0   16639    1230   1
   5  28   0   14251    1077   1
   6  28   0    8345    1006   1
   9 -12 -16   42289    2155  -2
   7  28   0   42289    2155   1
   8  28   0    -605     936   1
   9  28   0  158833    4032   1
 -12 -26  -2    4403    1155  -3
  10  28   0    4403    1155   1
  11  28   0     254    1089   1
  12  28   0    -277    1093   1
  13  28   0   87485    3473   1
   1  29   0    1163    1008   1
 -11 -20  -9  255620    6081  -3
   2  29   0  255620    6081   1
   3  29   0    8467    1227   1
   4  29   0   10737    1059   1
   5  29   0    8105    1033   1
   6  29   0    3316     964   1
   7  29   0  156384   14824   1
 -12 -25  -4    4172     980  -3
   8  29   0    4172     980   1
   9 -11 -18   14938    1323  -2
   9  29   0   14938    1323   1
  10  29   0    8723    1184   1
  11  29   0   59617    2180   1
  12  29   0   13453    1257   1
 -13 -29   0   11805    3125  -3
  13  29   0   11805    3125   1
  11 -19 -11   62317    3421  -2
 -11 -19 -11   62317    3421  -3
   0  30   0   62317    3421   1
   1  30   0     621    1031   1
   2  30   0  179315    4474   1
   3  30   0    3358    1076   1
   4  30   0    1512     983   1
 -12 -23  -7   17047    2496  -3
   5  30   0   17047    2496   1
 -12 -24  -6   15476    1885  -3
   6  30   0   15476    1885   1
   7  30   0    -772     963   1
   8  30   0    -703    1007   1
   9  30   0   18164    1362   1
  10  30   0   14777    1277   1
   9 -10 -20   10308    1848  -2
 -13 -28  -2   10308    1848  -3
  11  30   0   10308    1848   1
   1  31   0    -860    1079   1
  11 -18 -13  273231    6490  -2
   2  31   0  273231    6490   1
 -12 -22  -9   17800    1298  -3
   3  31   0   17800    1298   1
 -12 -23  -8    5346    1116  -3
   4  31   0    5346    1116   1
   5  31   0    -307     985   1
   6  31   0    1669     999   1
   7  31   0   10778    1075   1
   8  31   0   22333    1295   1
 -13 -27  -4   25427    1831  -3
   9  31   0   25427    1831   1
  10  31   0    5084    1173   1
   0  32   0    5075    1866   1
 -12 -21 -11    5668    1821  -3
   1  32   0    5668    1821   1
   2  32   0   76280    2652   1
   3  32   0     285    1084   1
  11 -17 -15    1870    1120  -2
   4  32   0    1870    1120   1
   5  32   0    1121    1057   1
   6  32   0   10479    1097   1
 -13 -26  -6    9380    1438  -3
   7  32   0    9380    1438   1
   8  32   0    3275    1149   1
   9  32   0    1866    1214   1
  12 -20 -13    6903    1421  -2
   1  33   0    6903    1421   1
   2  33   0  427364   10916   1
   3  33   0    1539    1177   1
   4  33   0   17612    1640   1
 -13 -25  -8    1384    1125  -3
   5  33   0    1384    1125   1
  11 -16 -17   14290    1197  -2
   6  33   0   14290    1197   1
   7  33   0    4553    1117   1
   0  34   0   56946    3722   1
   1  34   0     904    1358   1
   2  34   0  566677   15375   1
  12 -19 -15    6143    1579  -2
 -13 -24 -10    6143    1579  -3
   3  34   0    6143    1579   1
   4  34   0   82253    2804   1
   5  34   0   11680    1390   1
   1   1   1  789158   17183   1
   2   1   1    6076     397   1
   4   1   1   30614     858   1
   5   1   1  370560    5868   1
   6   1   1   18919     582   1
   7   1   1 1792073   19342   1
  -1  -8   6   80292    2354  -3
   8   1   1   80292    2354   1
  -2   6  -8  141689    1561  -2
   9   1   1  141689    1561   1
  10   1   1  156110    2643   1
  11   1   1 1034007   10415   1
  12   1   1   96919   11967   1
  13   1   1  168813    3938   1
  -3  10 -12   19782    1104  -2
  14   1   1   19782    1104   1
  15   1   1  448476    6505   1
  16   1   1    6588     591   1
  17   1   1   92621    1823   1
  18   1   1   11579     761   1
  -3 -17  15   54079    1473  -3
  19   1   1   54079    1473   1
  -4  15 -17   10883    1217  -2
  20   1   1   10883    1217   1
  21   1   1    3292     827   1
  22   1   1    9996    1021   1
  23   1   1    1688    1014   1
   0  -2  -1   32325     935  -2
   0  -2  -1   32325     935  -3
   0   2   1   32325     935   1
   1   2   1   12253     428   1
   2   2   1   27615     761   1
   3   2   1  521151    8532   1
   4   2   1   15937     645   1
  -1   2  -5  105171    1891  -2
   5   2   1  105171    1891   1
  -1  -7   4   28645    1422  -3
   6   2   1   28645    1422   1
   7   2   1  212143    2391   1
   8   2   1  101033    3412   1
   9   2   1   62866     897   1
  10   2   1   61575     881   1
  -2   7 -10  501646    5514  -2
  11   2   1  501646    5514   1
  12   2   1    4009     525   1
  13   2   1    4483     596   1
  14   2   1   39720     963   1
  15   2   1   84951    1552   1
  -3  11 -14   66331    3224  -2
  16   2   1   66331    3224   1
  -3 -16  13   27301    2168  -3
  17   2   1   27301    2168   1
  18   2   1   23800     894   1
  19   2   1   45522    1397   1
  20   2   1   92047    2364   1
  21   2   1    1341     836   1
  -4  16 -19   14022    1191  -2
  22   2   1   14022    1191   1
  -4 -21  18    8898    1194  -3
  23   2   1    8898    1194   1
   1   3   1   21733 2076904   1
   2   3   1     702     530   1
   3   3   1 1221183   18900   1
  -1  -6   2    7379     596  -3
   4   3   1    7379     596   1
   5   3   1  807979   18777   1
   6   3   1    2406     385   1
  -1   3  -7   17133     462  -2
   7   3   1   17133     462   1
   8   3   1   26030     534   1
   9   3   1   61869     940   1
  10   3   1    5790     405   1
  11   3   1  105882    1473   1
  12   3   1    2313     525   1
  -2   8 -12    3668     517  -2
  13   3   1    3668     517   1
  14   3   1    3200     488   1
  -3 -15  11   38947     891  -3
  15   3   1   38947     891   1
  16   3   1   26147     820   1
  17   3   1    7302     700   1
  18   3   1    7655     691   1
  19   3   1   29471    1155   1
  20   3   1   56569    1835   1
  -4 -20  16    4921     980  -3
  21   3   1    4921     980   1
  22   3   1   31199    1539   1
  23   3   1   14441    1643   1
   0   4   1    1168     721   1
   1   4   1   18279     678   1
  -1  -5   0    4033     652  -3
   2   4   1    4033     652   1
   3   4   1    9816     677   1
   4   4   1   11196     953   1
   5   4   1  147165    2243   1
   6   4   1   66442    1057   1
   7   4   1   79324    1083   1
   8   4   1  247788    2672   1
  -1   4  -9   11440     403  -2
   9   4   1   11440     403   1
  10   4   1   97829    1290   1
  11   4   1   53208     949   1
  12   4   1   62770    2221   1
  -3 -14   9   89714    1540  -3
  13   4   1   89714    1540   1
  14   4   1    3062     514   1
  -2   9 -14  393228    5410  -2
  15   4   1  393228    5410   1
  16   4   1     356     494   1
  17   4   1   78634    1674   1
  18   4   1   76314    2015   1
  19   4   1   52780    1537   1
  20   4   1   39102    1736   1
  21   4   1    1994    1059   1
  22   4   1   25960    1578   1
  23   4   1    1813    1322   1
   1   5   1 3598373   58671   1
   2   5   1   17819     918   1
   3   5   1  214958    3839   1
   4   5   1   26860     938   1
  -2  -8   2   78115    1620  -3
   5   5   1   78115    1620   1
   6   5   1  148864    1920   1
   7   5   1  165933    2538   1
   8   5   1   70925    1004   1
   9   5   1   10442     408   1
  10   5   1   28652     638   1
  -1   5 -11  184051    3645  -2
  -3 -13   7  184051    3645  -3
  11   5   1  184051    3645   1
  12   5   1     850     502   1
  13   5   1   26507    1268   1
  14   5   1   11026     560   1
  15   5   1   17131     878   1
  16   5   1   10632     631   1
  -2  10 -16   15663     757  -2
  17   5   1   15663     757   1
  18   5   1   60127    1643   1
  19   5   1    9761     921   1
  20   5   1   25123    1276   1
  21   5   1    3743    1081   1
  -5 -22  16   19680    1425  -3
  22   5   1   19680    1425   1
  23   5   1    3526    1227   1
   0   6   1  137070    3265   1
   1   6   1     121     544   1
   1  -3  -4  108923    1929  -2
   2   6   1  108923    1929   1
  -2  -7   0    7186     628  -3
   3   6   1    7186     628   1
   4   6   1  148932    2193   1
   5   6   1   15636     510   1
   6   6   1   57622     996   1
   7   6   1    7999     419   1
   0   2  -9   12459     445  -2
   8   6   1   12459     445   1
  -3 -12   5   76716    1085  -3
   9   6   1   76716    1085   1
  10   6   1  327332    3871   1
  11   6   1    6979     585   1
  12   6   1    2542     528   1
  13   6   1   38375     923   1
  14   6   1    4574     526   1
  15   6   1   41243     935   1
  16   6   1   16817     740   1
  17   6   1   16217     793   1
  18   6   1   87894    2133   1
  -2  11 -18     660     801  -2
  19   6   1     660     801   1
  -5 -21  14   79535    2282  -3
  20   6   1   79535    2282   1
  21   6   1    4122    1080   1
  22   6   1   87070    2895   1
  -2  -6  -2   93574    2741  -3
   1   7   1   93574    2741   1
   2   7   1   15621     719   1
   3   7   1  386181    5501   1
   1  -2  -6  104864    2292  -2
   4   7   1  104864    2292   1
   5   7   1  631058    7263   1
   6   7   1  148759    1941   1
  -3 -11   3    4326     531  -3
   7   7   1    4326     531   1
   8   7   1    9800     432   1
   9   7   1  240196    2857   1
  10   7   1   54790     986   1
  11   7   1   15853     643   1
  12   7   1   53198    1262   1
  13   7   1   74920    1388   1
  14   7   1    4513     507   1
  15   7   1   14072     791   1
  16   7   1   58283    1283   1
  17   7   1     806     630   1
  -5 -20  12   34150    1122  -3
  18   7   1   34150    1122   1
  19   7   1    4032     868   1
  20   7   1    6238     954   1
  -2  12 -20    1514    1014  -2
  21   7   1    1514    1014   1
  22   7   1   17562    1536   1
   0   8   1  132499    3378   1
   2  -5  -4   27999     923  -2
   1   8   1   27999     923   1
   2   8   1  159001    2189   1
   3   8   1    1209     393   1
   4   8   1   75319    1451   1
  -3 -10   1   19458     812  -3
   5   8   1   19458     812   1
   1  -1  -8 1088319   11689  -2
   6   8   1 1088319   11689   1
   7   8   1   12529     468   1
   8   8   1   62646     975   1
   9   8   1  187079    2557   1
  -4 -14   5  123132    1904  -3
  10   8   1  123132    1904   1
  11   8   1  118665    2645   1
   0   4 -13   17745    1083  -2
  12   8   1   17745    1083   1
  13   8   1   24458     744   1
  14   8   1   83474    1445   1
  15   8   1   94572    1627   1
  -5 -19  10  243264    3963  -3
  16   8   1  243264    3963   1
  17   8   1   16254     809   1
  18   8   1   51737    1656   1
  19   8   1   11568     838   1
  20   8   1   10158    1034   1
  21   8   1    4956     954   1
  22   8   1    6934    1152   1
   1   9   1  274794    3596   1
   2   9   1  121498    1720   1
   2  -4  -6  170893    3053  -2
  -3  -9  -1  170893    3053  -3
   3   9   1  170893    3053   1
   4   9   1  599689    6529   1
   5   9   1   77164    1136   1
   6   9   1   42854    1836   1
   7   9   1   73388    1103   1
  -4 -13   3    6588     631  -3
   8   9   1    6588     631   1
   9   9   1   27649     782   1
  10   9   1   21723    1395   1
  11   9   1   15646     721   1
  12   9   1   33299    5951   1
  13   9   1    4794     504   1
  -5 -18   8   84127    1489  -3
  14   9   1   84127    1489   1
  15   9   1    4361     543   1
  16   9   1   31675    1397   1
  17   9   1   10405     699   1
  18   9   1   29988    1048   1
  19   9   1   12115     887   1
  20   9   1  156258    3583   1
  21   9   1    2587     953   1
  22   9   1   22818    1374   1
   0  10   1    -532     532   1
  -3  -8  -3   23138     563  -3
   1  10   1   23138     563   1
   2  10   1    5249     436   1
   3  10   1  115081    1450   1
   4  10   1  238921    2666   1
   2  -3  -8   14305    1081  -2
   5  10   1   14305    1081   1
  -4 -12   1   18949     774  -3
   6  10   1   18949     774   1
   7  10   1   14203     510   1
   8  10   1   80391    1742   1
   9  10   1   43451     966   1
  10  10   1   12227     671   1
  11  10   1   19913     991   1
  -5 -17   6  150923    2288  -3
  12  10   1  150923    2288   1
  13  10   1  174645    2604   1
  14  10   1   17131     837   1
  15  10   1  117958    1970   1
   0   6 -17   23257    1330  -2
  16  10   1   23257    1330   1
  17  10   1   55550    1287   1
  18  10   1   26056    1018   1
  19  10   1    3344     756   1
  20  10   1   40376    1322   1
  21  10   1     731     928   1
  22  10   1   10146    1149   1
   3  -7  -5   62859    1767  -2
   1  11   1   62859    1767   1
   2  11   1   14063     498   1
   3  11   1  185315    2139   1
  -4 -11  -1    3192     403  -3
   4  11   1    3192     403   1
   5  11   1  166454   14315   1
   6  11   1  511616    6601   1
   2  -2 -10    5150     486  -2
   7  11   1    5150     486   1
   8  11   1    8746     579   1
   9  11   1   48881    1118   1
  -5 -16   4   51885    1782  -3
  10  11   1   51885    1782   1
  11  11   1   60528    1252   1
  12  11   1   28368    1536   1
  13  11   1     999     489   1
  14  11   1  141895    2323   1
  15  11   1     562     528   1
  16  11   1   37244    8273   1
  17  11   1   45703    1109   1
  18  11   1   53876    1312   1
  19  11   1   30333    1102   1
  20  11   1   30459    1166   1
  -7 -25  13   14837    1083  -3
  21  11   1   14837    1083   1
  22  11   1    8068    1076   1
   0  12   1  152982    2580   1
   1  12   1    8065     438   1
  -4 -10  -3  163483    1957  -3
   2  12   1  163483    1957   1
   3  -6  -7   89454    1211  -2
   3  12   1   89454    1211   1
   4  12   1   56845     901   1
   5  12   1    3783     433   1
   6  12   1   46150     910   1
   7  12   1   28308     779   1
  -5 -15   2   95038    2073  -3
   8  12   1   95038    2073   1
   2  -1 -12   47911    1100  -2
   9  12   1   47911    1100   1
  10  12   1    1570     621   1
  11  12   1   22617     684   1
  12  12   1   24781     712   1
  -6 -19   6   23434     701  -3
  13  12   1   23434     701   1
  14  12   1   28975     814   1
  15  12   1    2677     578   1
  16  12   1   47794    1139   1
  17  12   1    3259     626   1
  18  12   1   84075    1756   1
  -7 -24  11   23196    1003  -3
  19  12   1   23196    1003   1
   0   8 -21   23433    1034  -2
  20  12   1   23433    1034   1
  21  12   1   11075     965   1
   1  13   1    1113     379   1
   2  13   1   14012    1226   1
   3  13   1   21295     543   1
   4  13   1   53134     893   1
   5  13   1  102210    1522   1
  -5 -14   0    5576     596  -3
   6  13   1    5576     596   1
   7  13   1   28965     837   1
   8  13   1   37288     963   1
   9  13   1  187017    5843   1
  10  13   1   76995    1374   1
   2   0 -14  265474    4518  -2
  -6 -18   4  265474    4518  -3
  11  13   1  265474    4518   1
  12  13   1    8193     537   1
  13  13   1   32663    1113   1
  14  13   1   57482    1203   1
  15  13   1    6942     624   1
  16  13   1   49429    1148   1
  -7 -23   9    5179     738  -3
  17  13   1    5179     738   1
  18  13   1   67051    1448   1
  19  13   1   22984     962   1
  20  13   1   27177    3197   1
  21  13   1    2357     826   1
   0  14   1  396445    8276   1
   1  14   1   90060    1225   1
   4  -8  -7  222367    2447  -2
   2  14   1  222367    2447   1
   3  14   1      70     403   1
  -5 -13  -2  211526    2717  -3
   4  14   1  211526    2717   1
   5  14   1   10147     572   1
   6  14   1  105981    1886   1
   7  14   1   18276     766   1
   8  14   1   98827    1827   1
  -6 -17   2  282545   33639  -3
   9  14   1  282545   33639   1
  10  14   1  148935    2159   1
  11  14   1   64829    2273   1
  12  14   1   18839     654   1
   2   1 -16  101267    1734  -2
  13  14   1  101267    1734   1
  14  14   1   14860     672   1
  -7 -22   7   19816     757  -3
  15  14   1   19816     757   1
  16  14   1   40462    1046   1
  17  14   1   83679    1659   1
  18  14   1   43915    1122   1
  19  14   1    2150     706   1
  20  14   1    4797     771   1
  21  14   1    2172     814   1
   1  15   1   21081     578   1
  -5 -12  -4   18572    1600  -3
   2  15   1   18572    1600   1
   3  15   1   66416    1120   1
   4  -7  -9   69998    4592  -2
   4  15   1   69998    4592   1
   5  15   1   73734    1397   1
   6  15   1   35853     967   1
  -6 -16   0   56563    6605  -3
   7  15   1   56563    6605   1
   8  15   1   52823    1264   1
   9  15   1   61534    4985   1
  10  15   1   36458     829   1
  11  15   1    5124     523   1
  12  15   1   13663     608   1
  -7 -21   5   31938    2578  -3
  13  15   1   31938    2578   1
  14  15   1   22665     767   1
   2   2 -18   39126    3144  -2
  15  15   1   39126    3144   1
  16  15   1     188     605   1
  17  15   1   19829     828   1
  -8 -25   9   15538     856  -3
  18  15   1   15538     856   1
  19  15   1    5418     740   1
  20  15   1   26543    1040   1
  21  15   1   32411    1407   1
   5 -11  -6   43992    1281  -2
  -5 -11  -6   43992    1281  -3
   0  16   1   43992    1281   1
   1  16   1 1135886   12961   1
   2  16   1   48940     956   1
   3  16   1  348099    4533   1
   4  16   1   57232    1204   1
  -6 -15  -2  485294    8707  -3
   5  16   1  485294    8707   1
   4  -6 -11  138219    2359  -2
   6  16   1  138219    2359   1
   7  16   1  282212    4389   1
   8  16   1     667     513   1
   9  16   1  398321    5470   1
  10  16   1    3831     506   1
  -7 -20   3   18311     746  -3
  11  16   1   18311     746   1
  12  16   1    7918     569   1
  13  16   1   14913     680   1
  14  16   1   25089     822   1
  15  16   1   10800    1206   1
  -8 -24   7   17215     833  -3
  16  16   1   17215     833   1
   2   3 -20    7630     704  -2
  17  16   1    7630     704   1
  18  16   1   12314     762   1
  19  16   1    9612     741   1
  20  16   1    9512     815   1
   1  17   1  316989    4200   1
   5 -10  -8    3363     548  -2
   2  17   1    3363     548   1
  -6 -14  -4  127812    2151  -3
   3  17   1  127812    2151   1
   4  17   1    2015     598   1
   5  17   1   24643    1553   1
   6  17   1   28708    1263   1
   7  17   1   16913     645   1
   4  -5 -13   52986    1094  -2
   8  17   1   52986    1094   1
  -7 -19   1   74125    1267  -3
   9  17   1   74125    1267   1
  10  17   1   29654     770   1
  11  17   1   27210    1243   1
  12  17   1    3375     579   1
  13  17   1    4722     605   1
  -8 -23   5   16793    1444  -3
  14  17   1   16793    1444   1
  15  17   1   36121     993   1
  16  17   1   37512    1034   1
  17  17   1   29439    1214   1
  18  17   1   16600     800   1
   2   4 -22    5041     720  -2
  19  17   1    5041     720   1
  -9 -28  10   42702    1237  -3
  20  17   1   42702    1237   1
   0  18   1   10477     912   1
  -6 -13  -6 1928634   26359  -3
   1  18   1 1928634   26359   1
   2  18   1    6295     690   1
   3  18   1 1122014   17282   1
   4  18   1   35130    1011   1
   5  18   1  103093    1818   1
   6  18   1   39134     888   1
  -7 -18  -1  116537    2235  -3
   7  18   1  116537    2235   1
   8  18   1   17539    1015   1
   9  18   1    7166     548   1
   4  -4 -15   40641     921  -2
  10  18   1   40641     921   1
  11  18   1  206510    3051   1
  -8 -22   3     297     557  -3
  12  18   1     297     557   1
  13  18   1   25125     806   1
  14  18   1    7721     805   1
  15  18   1    1339     634   1
  16  18   1     612     648   1
  17  18   1    2048     674   1
  -9 -27   8   32212    1504  -3
  18  18   1   32212    1504   1
  19  18   1   16681     841   1
   6 -12  -8   61491    2244  -2
   1  19   1   61491    2244   1
   2  19   1     312     661   1
   3  19   1   17521     807   1
   4  19   1    8223     681   1
  -7 -17  -3    6682     722  -3
   5  19   1    6682     722   1
   6  19   1   30555     844   1
   7  19   1   17228    1281   1
   8  19   1      57     480   1
   9  19   1   16984     652   1
  -8 -21   1    8294     594  -3
  10  19   1    8294     594   1
  11  19   1   92187    1586   1
   4  -3 -17   41630     978  -2
  12  19   1   41630     978   1
  13  19   1   35387     966   1
  14  19   1    3934     643   1
  15  19   1   30093     945   1
  -9 -26   6  112812    2795  -3
  16  19   1  112812    2795   1
  17  19   1    3128     688   1
  18  19   1   22429     867   1
  19  19   1   49308    1231   1
   0  20   1   39107    1287   1
   1  20   1    1482     558   1
   2  20   1   44493    1035   1
   6 -11 -10   14428     793  -2
  -7 -16  -5   14428     793  -3
   3  20   1   14428     793   1
   4  20   1    1078     530   1
   5  20   1   26744     742   1
   6  20   1    8487     567   1
   7  20   1  185859    2638   1
  -8 -20  -1   49274    1145  -3
   8  20   1   49274    1145   1
   9  20   1   67835    1242   1
  10  20   1   76192    1620   1
  11  20   1     580     574   1
  12  20   1   32240     898   1
  13  20   1    4465     657   1
   4  -2 -19    2675     654  -2
  -9 -25   4    2675     654  -3
  14  20   1    2675     654   1
  15  20   1   16826     803   1
  16  20   1   11387    1454   1
  17  20   1    7724     723   1
  18  20   1   15974     806   1
 -10 -29   8    1324     696  -3
  19  20   1    1324     696   1
  -7 -15  -7   31018     839  -3
   1  21   1   31018     839   1
   2  21   1     517     532   1
   3  21   1    2144     514   1
   4  21   1    -229     524   1
   6 -10 -12   76261    1386  -2
   5  21   1   76261    1386   1
  -8 -19  -3   15490     665  -3
   6  21   1   15490     665   1
   7  21   1      -3     548   1
   8  21   1    7506     618   1
   9  21   1  101603    1688   1
  10  21   1    8802     650   1
  11  21   1  151320    2329   1
  -9 -24   2   19985     777  -3
  12  21   1   19985     777   1
  13  21   1   68882    1466   1
  14  21   1   33553    1586   1
  15  21   1     885     666   1
   4  -1 -21   50909    1254  -2
  16  21   1   50909    1254   1
 -10 -28   6   43519    1151  -3
  17  21   1   43519    1151   1
  18  21   1   34142    1027   1
   0  22   1   22250    1318   1
   7 -14  -9  115954    1791  -2
   1  22   1  115954    1791   1
   2  22   1   16504     851   1
   3  22   1   13393     698   1
  -8 -18  -5   47221    1385  -3
   4  22   1   47221    1385   1
   5  22   1    6050     585   1
   6  22   1    7081     615   1
   6  -9 -14   49862    1114  -2
   7  22   1   49862    1114   1
   8  22   1     165     588   1
   9  22   1    4615     611   1
  -9 -23   0   17566     738  -3
  10  22   1   17566     738   1
  11  22   1   22724     789   1
  12  22   1   24836     860   1
  13  22   1    7848     906   1
  14  22   1    3820     680   1
 -10 -27   4    9548     794  -3
  15  22   1    9548     794   1
  16  22   1    2612     696   1
  17  22   1     251     677   1
  18  22   1    1591     755   1
   1  23   1    8616     584   1
  -8 -17  -7    2981     517  -3
   2  23   1    2981     517   1
   3  23   1   16751     647   1
   4  23   1   38926    2147   1
   5  23   1     763     566   1
   6  23   1     594     576   1
   7  23   1    5952     628   1
  -9 -22  -2    3744     624  -3
   8  23   1    3744     624   1
   6  -8 -16   15060    1659  -2
   9  23   1   15060    1659   1
  10  23   1    2379     702   1
  11  23   1    5936     686   1
  12  23   1    9008     710   1
 -10 -26   2    4731     690  -3
  13  23   1    4731     690   1
  14  23   1   89058    1710   1
  15  23   1   14065     790   1
  16  23   1   39562    1083   1
  17  23   1   20143     855   1
   8 -16  -9   22836    1302  -2
  -8 -16  -9   22836    1302  -3
   0  24   1   22836    1302   1
   1  24   1  160295    2472   1
   2  24   1     765     531   1
   3  24   1   80900    1466   1
   4  24   1   13403    1065   1
   5  24   1    8839     639   1
  -9 -21  -4   18277     892  -3
   6  24   1   18277     892   1
   7  24   1   10576     971   1
   8  24   1    2304     626   1
   9  24   1    5972     702   1
  10  24   1  115404    2179   1
   6  -7 -18   78503    1686  -2
 -10 -25   0   78503    1686  -3
  11  24   1   78503    1686   1
  12  24   1   38810    1114   1
  13  24   1   14800    1193   1
  14  24   1   13424     791   1
  15  24   1    4816     763   1
  16  24   1   37141    1055   1
   1  25   1   49182    1130   1
   8 -15 -11    7419     622  -2
   2  25   1    7419     622   1
  -9 -19  -7   35622    4742  -3
   3  25   1   35622    4742   1
  -9 -20  -6    8126     644  -3
   4  25   1    8126     644   1
   5  25   1   23426     802   1
   6  25   1   35714     952   1
   7  25   1   15542     740   1
   8  25   1   47447    1152   1
 -10 -24  -2   24866     922  -3
   9  25   1   24866     922   1
  10  25   1    7485     746   1
  11  25   1   20054    1304   1
  12  25   1   14931    1012   1
   6  -6 -20   44303    1250  -2
  13  25   1   44303    1250   1
  14  25   1   45600    2496   1
 -11 -29   3    1392     705  -3
  15  25   1    1392     705   1
  16  25   1     300     698   1
   0  26   1    -180     969   1
  -9 -18  -9  203090    3236  -3
   1  26   1  203090    3236   1
  -9 -19  -8   12596     684  -3
   2  26   1   12596     684   1
   3  26   1   53638    1169   1
   8 -14 -13   22797     795  -2
   4  26   1   22797     795   1
   5  26   1   45141    1081   1
   6  26   1   83917    1597   1
 -10 -23  -4    1266     629  -3
   7  26   1    1266     629   1
   8  26   1  190071    3121   1
   9  26   1   28022     975   1
  10  26   1   13133    1253   1
  11  26   1     126     777   1
  12  26   1   45964    1332   1
 -11 -28   1    3109     798  -3
  13  26   1    3109     798   1
  14  26   1   66735    1601   1
  15  26   1   13727     871   1
   9 -17 -11   29128    2987  -2
   1  27   1   29128    2987   1
   2  27   1    5331     696   1
   3  27   1   16952     759   1
   4  27   1    4073     649   1
 -10 -22  -6    9036     737  -3
   5  27   1    9036     737   1
   8 -13 -15   24405     851  -2
   6  27   1   24405     851   1
   7  27   1   67552    1395   1
   8  27   1   28356     971   1
   9  27   1    2080     725   1
  10  27   1   34341    2252   1
 -11 -27  -1   42934    1284  -3
  11  27   1   42934    1284   1
  12  27   1    8873    1333   1
  13  27   1   13302     885   1
  14  27   1    8389     847   1
   0  28   1    3212    1018   1
   1  28   1  172487    2891   1
   2  28   1    2134     706   1
 -10 -21  -8   30772     979  -3
   3  28   1   30772     979   1
   4  28   1    1328     655   1
   5  28   1   11517     762   1
   6  28   1   24803     865   1
   7  28   1    -649     649   1
   8 -12 -17   25368    2303  -2
   8  28   1   25368    2303   1
 -11 -26  -3    3406     746  -3
   9  28   1    3406     746   1
  10  28   1   54339    4307   1
  11  28   1    1059     780   1
  12  28   1      72     782   1
  13  28   1   13334     899   1
 -10 -20 -10  134669    2493  -3
   1  29   1  134669    2493   1
   2  29   1    1051     722   1
   3  29   1   41037    1170   1
   4  29   1    3495     686   1
   5  29   1     125     666   1
 -11 -24  -6   14060    1433  -3
   6  29   1   14060    1433   1
 -11 -25  -5    5122     716  -3
   7  29   1    5122     716   1
   8  29   1    6936     772   1
   9  29   1    3423     754   1
   8 -11 -19    2016     763  -2
  10  29   1    2016     763   1
  11  29   1    6141     831   1
 -12 -29  -1    -291     782  -3
  12  29   1    -291     782   1
   0  30   1    -791    1009   1
  10 -19 -12   24550    1030  -2
   1  30   1   24550    1030   1
   2  30   1    1095     733   1
   3  30   1   35197    1116   1
 -11 -23  -8   10011    1366  -3
   4  30   1   10011    1366   1
 -11 -24  -7     243     696  -3
   5  30   1     243     696   1
   6  30   1   37181    2875   1
   9 -14 -17    2425     713  -2
   7  30   1    2425     713   1
   8  30   1     223     727   1
   9  30   1    1433     751   1
 -12 -28  -3   27959    1084  -3
  10  30   1   27959    1084   1
  11  30   1    1700     795   1
   1  31   1   75699    1829   1
 -11 -22 -10   13208    1849  -3
   2  31   1   13208    1849   1
  10 -18 -14   19300     927  -2
   3  31   1   19300     927   1
   4  31   1    6253     780   1
   5  31   1   31174    1007   1
   6  31   1    3501     741   1
   7  31   1    7669     776   1
 -12 -27  -5    5801     774  -3
   8  31   1    5801     774   1
   9 -13 -19    6746     810  -2
   9  31   1    6746     810   1
  10  31   1   12599    1875   1
  11 -21 -12    2067    1313  -2
 -11 -21 -12    2067    1313  -3
   0  32   1    2067    1313   1
   1  32   1    4758     883   1
   2  32   1    3336     857   1
   3  32   1   22837    1191   1
   4  32   1     200     775   1
  10 -17 -16    7240     899  -2
   5  32   1    7240     899   1
 -12 -26  -7    7137     781  -3
   6  32   1    7137     781   1
   7  32   1    5898     797   1
   8  32   1   10824     841   1
   9  32   1    4807     838   1
   1  33   1   52877    1580   1
  11 -20 -14    1354     872  -2
   2  33   1    1354     872   1
   3  33   1   11769     947   1
 -12 -25  -9    4851     831  -3
   4  33   1    4851     831   1
   5  33   1   66444    1696   1
   6  33   1    2897     827   1
  10 -16 -18   10385     861  -2
   7  33   1   10385     861   1
   0  34   1    3208    1391   1
   1  34   1  260271    5276   1
 -12 -24 -11    6849    1199  -3
   2  34   1    6849    1199   1
   3  34   1   50756    1510   1
  11 -19 -16    9441     900  -2
   4  34   1    9441     900   1
   5  34   1   15853    1087   1
   0   0   2  109145    3512   1
   1   0   2   19488     799   1
   3   0   2   10853     786   1
   5   0   2    2501     759   1
   6   0   2 3182195   55525   1
   7   0   2  165610    2918   1
  -3   5  -7    2217     485  -2
   8   0   2    2217     485   1
   9   0   2   33405     862   1
  10   0   2   47799    1087   1
  11   0   2     436     576   1
  12   0   2  345671    6519   1
  -4   9 -11  140546    4803  -2
  13   0   2  140546    4803   1
  14   0   2   36550    1301   1
  15   0   2   18104     929   1
  16   0   2  140494    3519   1
  17   0   2   17573    1014   1
  18   0   2   55886    1845   1
  -5  14 -16   93375    5037  -2
  19   0   2   93375    5037   1
  -2 -18  16  159803    4784  -3
  20   0   2  159803    4784   1
  21   0   2   10329    1300   1
  22   0   2   40987    2619   1
  23   0   2    2247    1363   1
   1   1   2   12039     523   1
   2   1   2   50627    1114   1
   3   1   2   37109     948   1
  -2   1  -4  151268    2550  -2
   4   1   2  151268    2550   1
   5   1   2   43321    1086   1
   6   1   2  319994    3852   1
   0  -8   5   53726    1437  -3
   7   1   2   53726    1437   1
   8   1   2  467789    4928   1
   9   1   2   11518     413   1
  -3   6  -9   50708     776  -2
  10   1   2   50708     776   1
  11   1   2  176634    6537   1
  12   1   2  168175    2458   1
  13   1   2  611285    8859   1
  14   1   2  130108    2153   1
  -4  10 -13     919     491  -2
  15   1   2     919     491   1
  16   1   2    7141     587   1
  17   1   2    5860     969   1
  -2 -17  14    4781     634  -3
  18   1   2    4781     634   1
  19   1   2   14174     792   1
  20   1   2  114864    2701   1
  -5  15 -18   13950    1684  -2
  21   1   2   13950    1684   1
  22   1   2   67830    2083   1
  23   1   2    6281    1361   1
   0   2   2 4894309  498112   1
  -1  -2  -2    1489     475  -2
   1   2   2    1489     475   1
   2   2   2  531327   12314   1
   3   2   2   29695     814   1
   4   2   2 4603476   80200   1
   5   2   2   51578    1234   1
  -2   2  -6  880110   10012  -2
   6   2   2  880110   10012   1
   7   2   2    8945     458   1
   8   2   2  482009    5039   1
   9   2   2   18160     626   1
  10   2   2    7628     402   1
  11   2   2   69037    1130   1
  -3   7 -11  471491    6390  -2
  12   2   2  471491    6390   1
  13   2   2   71836    1421   1
  14   2   2  109017    1869   1
  15   2   2   15541     873   1
  -2 -16  12   48045    3081  -3
  16   2   2   48045    3081   1
  17   2   2    6330     737   1
  18   2   2   30916    1010   1
  19   2   2    2789     691   1
  20   2   2   53152    1710   1
  21   2   2     284     899   1
  22   2   2    5973     972   1
  -5  16 -20     294    1065  -2
  23   2   2     294    1065   1
   1   3   2   11372     587   1
   2   3   2   41142    1063   1
  -1  -1  -4   14455    1097  -2
   0  -6   1   14455    1097  -3
   3   3   2   14455    1097   1
   4   3   2  336962    5587   1
   5   3   2   11261     503   1
   6   3   2   18408     511   1
   7   3   2   29363    1204   1
  -2   3  -8  250139    2739  -2
   8   3   2  250139    2739   1
   9   3   2    4352     380   1
  10   3   2    3334     380   1
  11   3   2   97609    1450   1
  12   3   2   57115    1172   1
  13   3   2  105181    2972   1
  -3   8 -13   53959    2568  -2
  -2 -15  10   53959    2568  -3
  14   3   2   53959    2568   1
  15   3   2   36781    3003   1
  16   3   2   74546    1495   1
  17   3   2    2969     610   1
  18   3   2   21920    2583   1
  19   3   2    9327    1008   1
  20   3   2   95665    2520   1
  21   3   2    6905     974   1
  22   3   2   55129    1968   1
  23   3   2    2225    1108   1
   0   4   2 3871041   84579   1
   1   4   2    6782     582   1
   2   4   2 2288520   34725   1
   3   4   2    2591     583   1
   4   4   2  546475    8688   1
  -1   0  -6   49254    1370  -2
   5   4   2   49254    1370   1
   6   4   2   71933    2381   1
   7   4   2   11132     534   1
   8   4   2   56207     850   1
   9   4   2     903     338   1
  -2   4 -10   14158     821  -2
  10   4   2   14158     821   1
  11   4   2   38471    1052   1
  -2 -14   8   16797    1899  -3
  12   4   2   16797    1899   1
  13   4   2   52426    1091   1
  14   4   2    6740     517   1
  15   4   2    9282     552   1
  -3   9 -15   65868    2247  -2
  16   4   2   65868    2247   1
  17   4   2    2365     635   1
  18   4   2   18003     915   1
  19   4   2    -210     739   1
  20   4   2  199767    4412   1
  21   4   2   15976    1070   1
  22   4   2   42920    1883   1
  -4 -23  17   11892    1362  -3
  23   4   2   11892    1362   1
   0  -4  -3   46769    1116  -2
   1   5   2   46769    1116   1
   2   5   2   91828    1686   1
   3   5   2   45685    1200   1
  -1  -8   1    4677     615  -3
   4   5   2    4677     615   1
   5   5   2    2887     387   1
   6   5   2   24782     588   1
  -1   1  -8   69967    1084  -2
   7   5   2   69967    1084   1
   8   5   2  120692    1478   1
   9   5   2  100564    1293   1
  -2 -13   6     610     396  -3
  10   5   2     610     396   1
  11   5   2  513642    7003   1
  12   5   2  198082    3092   1
  13   5   2   20884     710   1
  14   5   2     777     475   1
  15   5   2   87151    1490   1
  16   5   2   25398     858   1
  17   5   2    8364     757   1
  -3  10 -17    3722     742  -2
  18   5   2    3722     742   1
  19   5   2   58422    4497   1
  20   5   2   49752    1643   1
  -4 -22  15   19832    1223  -3
  21   5   2   19832    1223   1
  22   5   2   -1113    1113   1
  23   5   2    1322    1929   1
   0   6   2 3022712   63794   1
   1   6   2     618     566   1
  -1  -7  -1 3665449   55692  -3
   2   6   2 3665449   55692   1
   3   6   2   57773    1332   1
   4   6   2  118313    1908   1
   5   6   2   10969     701   1
   6   6   2   24982     621   1
   7   6   2   28228     733   1
  -2 -12   4  438012    4763  -3
   8   6   2  438012    4763   1
  -1   2 -10   49398     829  -2
   9   6   2   49398     829   1
  10   6   2    8237     823   1
  11   6   2  228825    3361   1
  12   6   2   21305     792   1
  13   6   2    3136     495   1
  14   6   2   10366     722   1
  15   6   2    2726     518   1
  16   6   2   12162     669   1
  17   6   2   71785    1624   1
  18   6   2    9358     887   1
  -4 -21  13  110859    2751  -3
  19   6   2  110859    2751   1
  -3  11 -19   68363    1976  -2
  20   6   2   68363    1976   1
  21   6   2    3561     936   1
  22   6   2    4301    1048   1
   1   7   2  104690    1915   1
   2   7   2  116119    2083   1
   3   7   2  535384    6612   1
   4   7   2    5287     409   1
   0  -2  -7  311990    3629  -2
   5   7   2  311990    3629   1
  -2 -11   2  115927    1548  -3
   6   7   2  115927    1548   1
   7   7   2   78910    1139   1
   8   7   2   92084    1277   1
   9   7   2    4062     418   1
  10   7   2   27978    1737   1
  -1   3 -12  671432    9510  -2
  11   7   2  671432    9510   1
  12   7   2   97812    1743   1
  13   7   2  138728    2219   1
  14   7   2   10300     579   1
  15   7   2   32800     864   1
  16   7   2    2762     646   1
  -4 -20  11   97767    2063  -3
  17   7   2   97767    2063   1
  18   7   2   12835     901   1
  19   7   2   62300    1877   1
  20   7   2    -628     837   1
  21   7   2   18727    1174   1
  -3  12 -21   35615    1699  -2
  22   7   2   35615    1699   1
   0   8   2  273378    5188   1
   1   8   2   41136     890   1
   1  -5  -5  539009    6430  -2
   2   8   2  539009    6430   1
   3   8   2 3271739   40885   1
  -2 -10   0   50828    1503  -3
   4   8   2   50828    1503   1
   5   8   2  166342    2073   1
   6   8   2  589080    6489   1
   7   8   2   31995     681   1
   8   8   2   10331    1023   1
  -3 -14   4  151052    2167  -3
   9   8   2  151052    2167   1
  10   8   2   68368    1307   1
  11   8   2 1694351   25290   1
  12   8   2   96675    1720   1
  -1   4 -14   10114     733  -2
  13   8   2   10114     733   1
  14   8   2    2196     499   1
  -4 -19   9   23926     827  -3
  15   8   2   23926     827   1
  16   8   2   28794     883   1
  17   8   2    1318     636   1
  18   8   2   16043     921   1
  19   8   2    7603    1061   1
  20   8   2    2448     854   1
  21   8   2   58025    1949   1
  22   8   2     -93     983   1
   1   9   2     236     444   1
  -2  -9  -2   46103     806  -3
   2   9   2   46103     806   1
   3   9   2   30651     647   1
   1  -4  -7   38390     880  -2
   4   9   2   38390     880   1
   5   9   2  368481    4165   1
   6   9   2  208224    3192   1
  -3 -13   2   11101    1016  -3
   7   9   2   11101    1016   1
   8   9   2   52028     963   1
   9   9   2    2935     524   1
  10   9   2   64714    1304   1
  11   9   2   43076   18077   1
  12   9   2    2043     519   1
  -4 -18   7   15788     610  -3
  13   9   2   15788     610   1
  14   9   2     243     494   1
  -1   5 -16   31973     824  -2
  15   9   2   31973     824   1
  16   9   2   10881     642   1
  17   9   2    2187     637   1
  18   9   2    5455     739   1
  19   9   2   20608    1041   1
  20   9   2     -41     866   1
  21   9   2   16547    1146   1
  22   9   2    6409    1040   1
   2  -8  -4  531759    8592  -2
  -2  -8  -4  531759    8592  -3
   0  10   2  531759    8592   1
   1  10   2   12191     547   1
   2  10   2  608252    6627   1
   3  10   2 1684004   17942   1
   4  10   2  104532    6902   1
  -3 -12   0    6971     439  -3
   5  10   2    6971     439   1
   1  -3  -9  142216    1762  -2
   6  10   2  142216    1762   1
   7  10   2    2428     443   1
   8  10   2    4897     516   1
   9  10   2   94386    1629   1
  10  10   2   42859    1054   1
  -4 -17   5  632336    9381  -3
  11  10   2  632336    9381   1
  12  10   2    6706     576   1
  13  10   2  369443    5229   1
  14  10   2   17623     657   1
  15  10   2    7077     560   1
  16  10   2     -23     559   1
  -1   6 -18   11673     751  -2
  17  10   2   11673     751   1
  18  10   2   78725    1725   1
  19  10   2   52466    1449   1
  20  10   2    6184     926   1
  21  10   2   68071    2090   1
  -6 -26  14   13431    1112  -3
  22  10   2   13431    1112   1
   1  11   2   68022    1023   1
   2  -7  -6   38922    1075  -2
   2  11   2   38922    1075   1
  -3 -11  -2  316784    4694  -3
   3  11   2  316784    4694   1
   4  11   2   43501    2320   1
   5  11   2  132806    1720   1
   6  11   2   17965     592   1
   7  11   2   83475    1363   1
   1  -2 -11  228749    3269  -2
   8  11   2  228749    3269   1
  -4 -16   3  615700    8822  -3
   9  11   2  615700    8822   1
  10  11   2   11173     706   1
  11  11   2  961553   13273   1
  12  11   2    9403     578   1
  13  11   2   11545    1432   1
  -5 -20   7    9078     572  -3
  14  11   2    9078     572   1
  15  11   2   72109    1929   1
  16  11   2    1011     561   1
  17  11   2   87902    1763   1
  18  11   2    5912     711   1
  -1   7 -20   59465    1684  -2
  19  11   2   59465    1684   1
  -6 -25  12    1817     827  -3
  20  11   2    1817     827   1
  21  11   2   12417    1059   1
  22  11   2    5481    1124   1
   0  12   2  496344    7244   1
  -3 -10  -4     913     372  -3
   1  12   2     913     372   1
   2  12   2  243598    2707   1
   3  12   2  147296    1716   1
   2  -6  -8  131626    1594  -2
   4  12   2  131626    1594   1
   5  12   2  142463    2187   1
   6  12   2   74413    6515   1
  -4 -15   1   29197     814  -3
   7  12   2   29197     814   1
   8  12   2   14550     695   1
   9  12   2    1858     623   1
   1  -1 -13   12064    1891  -2
  10  12   2   12064    1891   1
  11  12   2    5306     558   1
  -5 -19   5    8998     755  -3
  12  12   2    8998     755   1
  13  12   2   66922    1278   1
  14  12   2    5779     564   1
  15  12   2   30716     841   1
  16  12   2   14111    1413   1
  17  12   2   20642    1713   1
  -6 -24  10    7592     748  -3
  18  12   2    7592     748   1
  19  12   2     501     725   1
  20  12   2      94     794   1
  -1   8 -22   42611    1597  -2
  21  12   2   42611    1597   1
   3  -9  -6  203671    2242  -2
   1  13   2  203671    2242   1
   2  13   2    1662     382   1
   3  13   2   86956    1178   1
   4  13   2    8970     454   1
  -4 -14  -1  119885    2022  -3
   5  13   2  119885    2022   1
   6  13   2   16162     680   1
   7  13   2   58808    1250   1
   8  13   2  267714    4098   1
   9  13   2    9165    1129   1
  -5 -18   3  115964    3415  -3
  10  13   2  115964    3415   1
  11  13   2     154     477   1
  12  13   2    2322     506   1
  13  13   2   44298     977   1
  14  13   2   42739    2234   1
  15  13   2   40718     958   1
  -6 -23   8    4280     604  -3
  16  13   2    4280     604   1
  17  13   2     274     610   1
  18  13   2     903     688   1
  19  13   2    2936     981   1
  20  13   2   16756     954   1
  21  13   2   59111    1709   1
   0  14   2   42497    1031   1
   1  14   2    1001     386   1
   2  14   2    7238     434   1
   3  -8  -8  222754   29569  -2
  -4 -13  -3  222754   29569  -3
   3  14   2  222754   29569   1
   4  14   2   20842     619   1
   5  14   2   28420     785   1
   6  14   2   44641    1041   1
   7  14   2    4238     625   1
  -5 -17   1   73108    1529  -3
   8  14   2   73108    1529   1
   9  14   2    7385     957   1
  10  14   2   33284    1569   1
  11  14   2   67595    1282   1
  12  14   2     333     498   1
  13  14   2    2004     529   1
   1   1 -17  115267    1933  -2
  -6 -22   6  115267    1933  -3
  14  14   2  115267    1933   1
  15  14   2    1507     567   1
  16  14   2    3389     624   1
  17  14   2    1554     628   1
  18  14   2    1916     706   1
  19  14   2   25861    4436   1
  20  14   2    3780    1073   1
  21  14   2   12171    2429   1
  -4 -12  -5  197943    4199  -3
   1  15   2  197943    4199   1
   2  15   2   42754     834   1
   3  15   2  213619    2809   1
   4  15   2   24491     731   1
   3  -7 -10  123760    3034  -2
   5  15   2  123760    3034   1
  -5 -16  -1  405268   11914  -3
   6  15   2  405268   11914   1
   7  15   2  118741    2115   1
   8  15   2  451883    6986   1
   9  15   2   80356    1430   1
  10  15   2    4178     593   1
  11  15   2   87650    1489   1
  -6 -21   4   12651     615  -3
  12  15   2   12651     615   1
  13  15   2   70581    1327   1
  14  15   2   67970    1345   1
  15  15   2    2804     589   1
   1   2 -19    5892     648  -2
  16  15   2    5892     648   1
  -7 -25   8    3081     663  -3
  17  15   2    3081     663   1
  18  15   2     176     669   1
  19  15   2    3291     724   1
  20  15   2   22106     981   1
   0  16   2  249149    4255   1
   4 -11  -7      49     463  -2
   1  16   2      49     463   1
   2  16   2   92207    1473   1
   3  16   2   12665    1044   1
  -5 -15  -3   78140    2353  -3
   4  16   2   78140    2353   1
   5  16   2     158     604   1
   6  16   2   27496     893   1
   3  -6 -12   30903    2038  -2
   7  16   2   30903    2038   1
   8  16   2  361079    4972   1
   9  16   2    4582     521   1
  -6 -20   2   10390     571  -3
  10  16   2   10390     571   1
  11  16   2   53458    1082   1
  12  16   2   12715     727   1
  13  16   2   42598     967   1
  14  16   2   61296    2238   1
  -7 -24   6   10150    1085  -3
  15  16   2   10150    1085   1
  16  16   2   45059    1100   1
  17  16   2   13737     753   1
   1   3 -21   27409     940  -2
  18  16   2   27409     940   1
  19  16   2   23870    1067   1
  20  16   2   14347     837   1
   1  17   2     176     507   1
  -5 -14  -5  440021    6131  -3
   2  17   2  440021    6131   1
   4 -10  -9    2897     611  -2
   3  17   2    2897     611   1
   4  17   2   21107     827   1
   5  17   2    7653     691   1
   6  17   2  787661   11401   1
   7  17   2    3889     742   1
  -6 -19   0  260735    3545  -3
   8  17   2  260735    3545   1
   3  -5 -14    8778     541  -2
   9  17   2    8778     541   1
  10  17   2   39495     897   1
  11  17   2    4962     554   1
  12  17   2  100474    1677   1
  -7 -23   4    1870     558  -3
  13  17   2    1870     558   1
  14  17   2   66868    1320   1
  15  17   2    -342     598   1
  16  17   2   34238    1079   1
  17  17   2   11085    1174   1
  18  17   2   18528     832   1
  -8 -28   9     777     712  -3
  19  17   2     777     712   1
   1   4 -23   20710     920  -2
  20  17   2   20710     920   1
   5 -13  -7 2232387   41539  -2
  -5 -13  -7 2232387   41539  -3
   0  18   2 2232387   41539   1
   1  18   2    5056     787   1
   2  18   2  826403   11712   1
   3  18   2    -607     623   1
   4  18   2   33160    1028   1
   5  18   2   22410    2892   1
  -6 -18  -2  438407    5867  -3
   6  18   2  438407    5867   1
   7  18   2    3423     602   1
   8  18   2    -224     499   1
   9  18   2    3007     529   1
  10  18   2    4990     561   1
   3  -4 -16    9788     604  -2
  -7 -22   2    9788     604  -3
  11  18   2    9788     604   1
  12  18   2  146852    2392   1
  13  18   2    3455     587   1
  14  18   2  101610    1767   1
  15  18   2   23312    2099   1
  16  18   2    2944     666   1
  -8 -27   7    2869     671  -3
  17  18   2    2869     671   1
  18  18   2    2002     773   1
  19  18   2   43377    1201   1
   1  19   2   22938     849   1
   5 -12  -9   19739     959  -2
   2  19   2   19739     959   1
   3  19   2   21210    2269   1
  -6 -17  -4    4635     595  -3
   4  19   2    4635     595   1
   5  19   2   79544    1396   1
   6  19   2  102030    1653   1
   7  19   2    9216     592   1
   8  19   2    8093    1066   1
  -7 -21   0   15938    1798  -3
   9  19   2   15938    1798   1
  10  19   2   44213     979   1
  11  19   2    9750     615   1
  12  19   2   24993     776   1
   3  -3 -18    9951     651  -2
  13  19   2    9951     651   1
  14  19   2     611     602   1
  -8 -26   5    7321     830  -3
  15  19   2    7321     830   1
  16  19   2     747     657   1
  17  19   2    1305     681   1
  18  19   2     318     694   1
  19  19   2    6266     744   1
   0  20   2  156596    3607   1
   1  20   2    6649     941   1
  -6 -16  -6  189399    2905  -3
   2  20   2  189399    2905   1
   3  20   2   21997     761   1
   5 -11 -11   66845    1259  -2
   4  20   2   66845    1259   1
   5  20   2    1199     531   1
   6  20   2   18340     668   1
  -7 -20  -2    1711     536  -3
   7  20   2    1711     536   1
   8  20   2   53064    1098   1
   9  20   2   13373     668   1
  10  20   2    4384     797   1
  11  20   2    1287     566   1
  12  20   2   80454    1455   1
  -8 -25   3    1182     599  -3
  13  20   2    1182     599   1
  14  20   2    9099     706   1
   3  -2 -20   29988     940  -2
  15  20   2   29988     940   1
  16  20   2   28419     943   1
  17  20   2   11939     787   1
  -9 -29   7    8298     732  -3
  18  20   2    8298     732   1
  19  20   2    1096     884   1
   6 -14  -9   36796    1396  -2
   1  21   2   36796    1396   1
   2  21   2   21918    1862   1
   3  21   2   14119     600   1
   4  21   2  123229    1912   1
  -7 -19  -4    7944     883  -3
   5  21   2    7944     883   1
   5 -10 -13    2862     557  -2
   6  21   2    2862     557   1
   7  21   2    9542     685   1
   8  21   2   12560     652   1
   9  21   2   42558    2337   1
  10  21   2    6234     833   1
  -8 -24   1    1917     593  -3
  11  21   2    1917     593   1
  12  21   2   31848     891   1
  13  21   2    8363     663   1
  14  21   2    7875     763   1
  15  21   2    9490    1257   1
  -9 -28   5     329     678  -3
  16  21   2     329     678   1
   3  -1 -22   14135     791  -2
  17  21   2   14135     791   1
  18  21   2    9245     745   1
   0  22   2    1951     775   1
   1  22   2    4344     531   1
   2  22   2    2779     535   1
  -7 -18  -6   32121     813  -3
   3  22   2   32121     813   1
   4  22   2    5210     540   1
   5  22   2   17928     689   1
   6  22   2   76441    1422   1
   7  22   2    4400     620   1
   5  -9 -15   15832     811  -2
   8  22   2   15832     811   1
  -8 -23  -1   51075    1329  -3
   9  22   2   51075    1329   1
  10  22   2     846     610   1
  11  22   2   18050     759   1
  12  22   2   10556     674   1
  13  22   2   10122     885   1
  -9 -27   3   15856     834  -3
  14  22   2   15856     834   1
  15  22   2   74462    1581   1
  16  22   2    3793     697   1
  17  22   2   32143    1002   1
  18  22   2   29055    1372   1
  -7 -17  -8   10255     910  -3
   1  23   2   10255     910   1
   2  23   2    8296     575   1
   3  23   2   17064     659   1
   4  23   2  129872    2047   1
   5  23   2   22978    1110   1
   6  23   2    5756     610   1
  -8 -22  -3    2527     622  -3
   7  23   2    2527     622   1
   8  23   2    5041     659   1
   9  23   2    2475     664   1
   5  -8 -17    8237     681  -2
  10  23   2    8237     681   1
  11  23   2   28498     908   1
  -9 -26   1   23361    1435  -3
  12  23   2   23361    1435   1
  13  23   2    2406     674   1
  14  23   2    1734     697   1
  15  23   2    9377     740   1
  16  23   2    6458     962   1
  17  23   2   15651    1491   1
   0  24   2   15823    1008   1
   7 -16 -10   12815     645  -2
   1  24   2   12815     645   1
   2  24   2     924     557   1
   3  24   2   22494     715   1
  -8 -20  -6   61116   10335  -3
   4  24   2   61116   10335   1
  -8 -21  -5   63502    1306  -3
   5  24   2   63502    1306   1
   6  24   2   16370     737   1
   7  24   2    1978     644   1
   8  24   2   25152    1361   1
   9  24   2   23536     882   1
  -9 -25  -1    4034     709  -3
  10  24   2    4034     709   1
  11  24   2   21576     842   1
   5  -7 -19   48441    1208  -2
  12  24   2   48441    1208   1
  13  24   2  174898    3137   1
  14  24   2   14386     942   1
  15  24   2    5395     715   1
 -10 -30   4   14815     795  -3
  16  24   2   14815     795   1
   1  25   2   37999     971   1
  -8 -19  -8    2155     577  -3
   2  25   2    2155     577   1
   7 -15 -12   35201    1139  -2
  -8 -20  -7   35201    1139  -3
   3  25   2   35201    1139   1
   4  25   2   12473     678   1
   5  25   2   80636    1538   1
   6  25   2    8754    1126   1
   7  25   2    1552     657   1
  -9 -24  -3    1683     692  -3
   8  25   2    1683     692   1
   9  25   2   16562    1086   1
  10  25   2    1021     715   1
  11  25   2  193623    3332   1
  12  25   2   42689    1142   1
  13  25   2  333628    5430   1
   5  -6 -21    7310     787  -2
 -10 -29   2    7310     787  -3
  14  25   2    7310     787   1
  15  25   2    5245     768   1
  16  25   2     616     756   1
   8 -18 -10   51313    1989  -2
  -8 -18 -10   51313    1989  -3
   0  26   2   51313    1989   1
  -8 -19  -9   83832    1668  -3
   1  26   2   83832    1668   1
   2  26   2   35689     941   1
   3  26   2   52033    1138   1
   4  26   2   32819    2254   1
   7 -14 -14   98672    1772  -2
   5  26   2   98672    1772   1
  -9 -23  -5    4547     652  -3
   6  26   2    4547     652   1
   7  26   2    6282     713   1
   8  26   2    3564     720   1
   9  26   2  183087    3097   1
  10  26   2     476     711   1
   6  -9 -19   75584    1649  -2
  11  26   2   75584    1649   1
 -10 -28   0     428     760  -3
  12  26   2     428     760   1
  13  26   2   21237     946   1
  14  26   2    1161     768   1
  15  26   2   15742    1917   1
   1  27   2   34139    1049   1
   8 -17 -12   28434    1005  -2
   2  27   2   28434    1005   1
   3  27   2   20861    1390   1
  -9 -22  -7    -213     638  -3
   4  27   2    -213     638   1
   5  27   2   21319     820   1
   6  27   2   12871     735   1
   7 -13 -16   14838     800  -2
   7  27   2   14838     800   1
   8  27   2    8961     765   1
   9  27   2  259246    4297   1
 -10 -27  -2     551     724  -3
  10  27   2     551     724   1
  11  27   2   32093    1064   1
  12  27   2      93     746   1
   6  -8 -21   16184    2355  -2
  13  27   2   16184    2355   1
  14  27   2    8142     860   1
   0  28   2   28747    1401   1
   1  28   2   25809     969   1
  -9 -21  -9    6038     689  -3
   2  28   2    6038     689   1
   3  28   2   11617     766   1
   8 -16 -14   53432    1647  -2
   4  28   2   53432    1647   1
   5  28   2   17487     789   1
   6  28   2   12273    1267   1
 -10 -25  -5   21191    1282  -3
   7  28   2   21191    1282   1
 -10 -26  -4   23232     928  -3
   8  28   2   23232     928   1
   7 -12 -18  190634    3292  -2
   9  28   2  190634    3292   1
  10  28   2   73223    1642   1
  11  28   2   91000    1947   1
  12  28   2    1481     788   1
 -11 -30   0    6309     832  -3
  13  28   2    6309     832   1
   1  29   2    -563     712   1
   2  29   2   23956     954   1
   3  29   2    1726     728   1
   4  29   2   16832     892   1
 -10 -24  -7   35222    5346  -3
   5  29   2   35222    5346   1
   8 -15 -16   37205    1075  -2
 -10 -25  -6   37205    1075  -3
   6  29   2   37205    1075   1
   7  29   2    -539     709   1
   8  29   2    6138     769   1
   9  29   2   55174    1366   1
  10  29   2    1594     728   1
   7 -11 -20    7383     914  -2
 -11 -29  -2    7383     914  -3
  11  29   2    7383     914   1
  12  29   2    2279     798   1
   0  30   2   20245    1339   1
   1  30   2    3162     744   1
   9 -19 -13   35946    1435  -2
   2  30   2   35946    1435   1
 -10 -23  -9    4130     790  -3
   3  30   2    4130     790   1
   4  30   2    1274     738   1
   5  30   2    7268     728   1
   6  30   2   27872     987   1
   7  30   2   10054    1358   1
   8 -14 -18    2105     730  -2
   8  30   2    2105     730   1
 -11 -28  -4    4292     750  -3
   9  30   2    4292     750   1
  10  30   2   11939     822   1
  11  30   2   85794    1881   1
 -10 -22 -11    3247     786  -3
   1  31   2    3247     786   1
   2  31   2    8206     877   1
   3  31   2    2629     828   1
   9 -18 -15   14468     892  -2
   4  31   2   14468     892   1
   5  31   2    4379     766   1
   6  31   2    6615     784   1
 -11 -27  -6     419     746  -3
   7  31   2     419     746   1
   8  31   2    2358     742   1
   9  31   2    1378     735   1
   8 -13 -20   18983    1015  -2
  10  31   2   18983    1015   1
   0  32   2   49076    2029   1
  10 -21 -13    8937    1650  -2
   1  32   2    8937    1650   1
   2  32   2   31094    1638   1
   3  32   2    1842     825   1
   4  32   2    6253    1356   1
 -11 -26  -8     951     786  -3
   5  32   2     951     786   1
   9 -17 -17   31399    1152  -2
   6  32   2   31399    1152   1
   7  32   2     842     757   1
   8  32   2   27472    1029   1
   9  32   2   11563     945   1
   1  33   2    1686     850   1
   2  33   2    9808     924   1
  10 -20 -15    5758     897  -2
 -11 -25 -10    5758     897  -3
   3  33   2    5758     897   1
   4  33   2    6060     911   1
   5  33   2    -814     814   1
   6  33   2   12006     923   1
   7  33   2    2459     923   1
   0  34   2  459013   12619   1
 -11 -24 -12    4112     973  -3
   1  34   2    4112     973   1
   2  34   2   22515    1101   1
   3  34   2     829     904   1
   4  34   2  192087    4033   1
   2   1   3    4258     581   1
   3   1   3 1000109   15353   1
   4   1   3  103136    1916   1
  -3   1  -5  497743   26424  -2
   5   1   3  497743   26424   1
   1  -8   4  265201   51876  -3
   6   1   3  265201   51876   1
   7   1   3 2834104   31354   1
   8   1   3   33975     633   1
   9   1   3   27896     574   1
  10   1   3   41839     829   1
  -4   6 -10  101080    2505  -2
  11   1   3  101080    2505   1
  12   1   3  170888    3666   1
  13   1   3   47049    1111   1
  14   1   3   27775     787   1
  15   1   3     733     486   1
  -5  10 -14   56355    8079  -2
  16   1   3   56355    8079   1
  -1 -17  13   21213     795  -3
  17   1   3   21213     795   1
  18   1   3    7728     640   1
  19   1   3   34789    1032   1
  20   1   3   27838    1010   1
  21   1   3   78873    2474   1
  -6  15 -19   34943   10378  -2
  22   1   3   34943   10378   1
  23   1   3   34456    1790   1
   0   2   3   23149    1098   1
   1   2   3  120915    5975   1
  -2  -2  -3   29716     977  -2
   2   2   3   29716     977   1
   3   2   3   15851     765   1
   1  -7   2    9925     978  -3
   4   2   3    9925     978   1
   5   2   3   12456     510   1
   6   2   3    5410     409   1
  -3   2  -7  946277   10087  -2
   7   2   3  946277   10087   1
   8   2   3     150     330   1
   9   2   3   61295     937   1
  10   2   3   24108    1093   1
  11   2   3   17889     627   1
  12   2   3   57063    2554   1
  -4   7 -12   34304    8407  -2
  13   2   3   34304    8407   1
  14   2   3  145178    2309   1
  -1 -16  11    7385     544  -3
  15   2   3    7385     544   1
  16   2   3  130689    2241   1
  17   2   3   45257    1123   1
  18   2   3    1453     599   1
  19   2   3   25034    1030   1
  20   2   3    1083     744   1
  21   2   3  120690    3137   1
  22   2   3     859     958   1
  23   2   3   27336    1455   1
   1   3   3 1263299   18916   1
   1  -6   0    2698     601  -3
   2   3   3    2698     601   1
   3   3   3   90571    3167   1
  -2  -1  -5   22692     799  -2
   4   3   3   22692     799   1
   5   3   3 1013983   11780   1
   6   3   3    9399     453   1
   7   3   3   53192     912   1
   8   3   3    4744     484   1
  -3   3  -9   36849    4983  -2
   9   3   3   36849    4983   1
  10   3   3    1316     403   1
  11   3   3   13523     581   1
  12   3   3    1891     541   1
  -1 -15   9    6256     590  -3
  13   3   3    6256     590   1
  14   3   3   35463    2208   1
  -4   8 -14   11233    1154  -2
  15   3   3   11233    1154   1
  16   3   3   12939     640   1
  17   3   3   60669    1407   1
  18   3   3   25828    1001   1
  19   3   3    2037     732   1
  20   3   3   26905    1520   1
  21   3   3    6428     933   1
  22   3   3    1018     935   1
  23   3   3    4707    1058   1
  -1  -5  -2   10432    1070  -2
   1  -5  -2   10432    1070  -3
   0   4   3   10432    1070   1
   1   4   3     909     570   1
   2   4   3       2     582   1
   3   4   3      71     573   1
   4   4   3    2757     457   1
   5   4   3  304634    3696   1
   6   4   3  119579    2782   1
   7   4   3   29811     623   1
   8   4   3    6552     397   1
   9   4   3    -350     350   1
  10   4   3    3752     495   1
  -3   4 -11  349772    4744  -2
  -1 -14   7  349772    4744  -3
  11   4   3  349772    4744   1
  12   4   3  371985    5491   1
  13   4   3   92964    1565   1
  14   4   3  288803    4072   1
  15   4   3    1148     510   1
  16   4   3   47593    2332   1
  -4   9 -16    5144     628  -2
  17   4   3    5144     628   1
  18   4   3   22074     973   1
  19   4   3   31966    1178   1
  20   4   3   48064    1632   1
  21   4   3   38986    1418   1
  -3 -23  16   24233    1215  -3
  22   4   3   24233    1215   1
  23   4   3   47463    6829   1
   1   5   3  184389    3452   1
  -1  -4  -4    5249     610  -2
   2   5   3    5249     610   1
   0  -8   0  282255    6366  -3
   3   5   3  282255    6366   1
   4   5   3   12148    1009   1
   5   5   3  473727    5717   1
   6   5   3   17314     510   1
   7   5   3   48862     905   1
  -2   1  -9   24456     558  -2
   8   5   3   24456     558   1
  -1 -13   5   15728    1067  -3
   9   5   3   15728    1067   1
  10   5   3   32067     764   1
  11   5   3    4725     560   1
  12   5   3    7266     762   1
  13   5   3   10189     551   1
  14   5   3   47638    2019   1
  15   5   3   19211     702   1
  16   5   3    -176     537   1
  17   5   3    -549     638   1
  18   5   3   35426    1677   1
  -4  10 -18    3023     782  -2
  19   5   3    3023     782   1
  -3 -22  14    7768     901  -3
  20   5   3    7768     901   1
  21   5   3   67513    2012   1
  22   5   3    9613    1058   1
   0   6   3   74375    2171   1
   1   6   3    1435     582   1
   2   6   3  185795    3284   1
   3   6   3    -394     394   1
  -1  -3  -6   62998    1045  -2
   4   6   3   62998    1045   1
   5   6   3   21794     558   1
   6   6   3  840628    9333   1
  -1 -12   3    1740     380  -3
   7   6   3    1740     380   1
   8   6   3   65048    1104   1
   9   6   3    7706     436   1
  -2   2 -11    2351     488  -2
  10   6   3    2351     488   1
  11   6   3  174177    2817   1
  12   6   3  250692    3813   1
  13   6   3   11243     739   1
  14   6   3  127556    1956   1
  15   6   3   19326     669   1
  16   6   3   25478     867   1
  17   6   3    7522     704   1
  -3 -21  12   15574     929  -3
  18   6   3   15574     929   1
  19   6   3    4969     788   1
  20   6   3     564     884   1
  -4  11 -20    7462    1001  -2
  21   6   3    7462    1001   1
  22   6   3    2392     982   1
   0  -6  -4  428888    7386  -2
   1   7   3  428888    7386   1
   2   7   3   97976    1542   1
   3   7   3  786142    9198   1
   4   7   3   43166     787   1
  -1 -11   1  206371    2464  -3
   5   7   3  206371    2464   1
  -1  -2  -8  701992    7852  -2
   6   7   3  701992    7852   1
   7   7   3    5760     430   1
   8   7   3   52418     880   1
   9   7   3   74577    1237   1
  10   7   3   25002    1275   1
  11   7   3   25273    1040   1
  -2   3 -13   99696    8362  -2
  12   7   3   99696    8362   1
  13   7   3   53085    1125   1
  14   7   3  295387    4085   1
  15   7   3    5258     561   1
  -3 -20  10   13742    1444  -3
  16   7   3   13742    1444   1
  17   7   3    7738     696   1
  18   7   3    3805     862   1
  19   7   3   15688    1034   1
  20   7   3     294     890   1
  21   7   3   30973    1358   1
  22   7   3    2311     946   1
   0   8   3  309430    5589   1
   1   8   3     106     438   1
   2   8   3 1668807   18695   1
  -1 -10  -1    7003     456  -3
   3   8   3    7003     456   1
   4   8   3  634593    7043   1
   5   8   3   58602     965   1
   6   8   3    2279     423   1
   7   8   3   12320     503   1
  -1  -1 -10   67694    1975  -2
  -2 -14   3   67694    1975  -3
   8   8   3   67694    1975   1
   9   8   3   54826    2136   1
  10   8   3   55885    1188   1
  11   8   3   19102     801   1
  12   8   3  313556    4662   1
  13   8   3    1673     545   1
  -2   4 -15  122056    1931  -2
  -3 -19   8  122056    1931  -3
  14   8   3  122056    1931   1
  15   8   3   12710     644   1
  16   8   3   24796     833   1
  17   8   3    4674     685   1
  18   8   3   40304    1237   1
  19   8   3    9531     963   1
  20   8   3    4595     900   1
  21   8   3   12703    1052   1
  22   8   3    4333     998   1
  -1  -9  -3  230549    2826  -3
   1   9   3  230549    2826   1
   2   9   3   62656     982   1
   3   9   3    9235     440   1
   4   9   3 3364719   39535   1
   0  -4  -8   46967    1600  -2
   5   9   3   46967    1600   1
  -2 -13   1  103464    1410  -3
   6   9   3  103464    1410   1
   7   9   3  309819    4958   1
   8   9   3   10136     540   1
   9   9   3   56017    1210   1
  10   9   3  320967    5070   1
  11   9   3    3289     662   1
  -3 -18   6  209787    3174  -3
  12   9   3  209787    3174   1
  13   9   3   21935     691   1
  14   9   3  232084    3365   1
  15   9   3   27490     897   1
  -2   5 -17  231303    3715  -2
  16   9   3  231303    3715   1
  17   9   3   12675    1632   1
  18   9   3    1979     760   1
  19   9   3   39305    1369   1
  20   9   3   34596    1387   1
  21   9   3   11672    1036   1
  22   9   3   17298    1958   1
   0  10   3  670762   10305   1
   1  -8  -5   40484    5400  -2
   1  10   3   40484    5400   1
   2  10   3  597460    6280   1
   3  10   3   22574     547   1
  -2 -12  -1   62826    1773  -3
   4  10   3   62826    1773   1
   5  10   3   18999     544   1
   6  10   3     737     397   1
   7  10   3  169701    2238   1
   8  10   3    7155     572   1
   9  10   3  124565    2209   1
  -3 -17   4  213695    3566  -3
  10  10   3  213695    3566   1
  11  10   3   30580     978   1
  12  10   3   29820     756   1
  13  10   3   31831     782   1
  14  10   3   60571    1214   1
  15  10   3    3883     558   1
  16  10   3     916     572   1
  17  10   3    3885     641   1
  -2   6 -19    1576     681  -2
  18  10   3    1576     681   1
  19  10   3   12800     930   1
  20  10   3     722     843   1
  -5 -26  13   18850    1186  -3
  21  10   3   18850    1186   1
  22  10   3    1012     936   1
   1  11   3  370276    3961   1
  -2 -11  -3   29509     643  -3
   2  11   3   29509     643   1
   1  -7  -7   31808    8107  -2
   3  11   3   31808    8107   1
   4  11   3    1046     382   1
   5  11   3  102829    1356   1
   6  11   3  106632    1515   1
   7  11   3   46419     961   1
  -3 -16   2   20004     732  -3
   8  11   3   20004     732   1
   0  -2 -12   53749    2030  -2
   9  11   3   53749    2030   1
  10  11   3  342212    5474   1
  11  11   3    2914     525   1
  12  11   3     347     480   1
  -4 -20   6    3163     500  -3
  13  11   3    3163     500   1
  14  11   3   80221    1429   1
  15  11   3    8030     601   1
  16  11   3   92063    1728   1
  17  11   3      59     612   1
  18  11   3   15058     814   1
  -5 -25  11   14448    1597  -3
  19  11   3   14448    1597   1
  -2   7 -21   23651    1095  -2
  20  11   3   23651    1095   1
  21  11   3    7298     990   1
   2 -10  -5   44263    1071  -2
  -2 -10  -5   44263    1071  -3
   0  12   3   44263    1071   1
   1  12   3   15106     478   1
   2  12   3  376285    4040   1
   3  12   3     584     371   1
   4  12   3  188827    2168   1
   1  -6  -9    7176     852  -2
   5  12   3    7176     852   1
  -3 -15   0  103556    1604  -3
   6  12   3  103556    1604   1
   7  12   3   92446    1606   1
   8  12   3  103094    1923   1
   9  12   3   11973     748   1
  10  12   3    8563     884   1
  -4 -19   4   20851     660  -3
  11  12   3   20851     660   1
  12  12   3   66985    1245   1
  13  12   3    6754     543   1
  14  12   3  211388    3147   1
  15  12   3     355     553   1
  16  12   3   66055    1583   1
  -5 -24   9    4784     633  -3
  17  12   3    4784     633   1
  18  12   3    1145     686   1
  19  12   3    1788     744   1
  20  12   3    8494     917   1
  21  12   3      46     900   1
   1  13   3   54829     857   1
   2  -9  -7  128159   14945  -2
   2  13   3  128159   14945   1
   3  13   3   31213     635   1
  -3 -14  -2   57765     978  -3
   4  13   3   57765     978   1
   5  13   3  120539    1768   1
   6  13   3   96592    1643   1
   7  13   3  128699    5091   1
   8  13   3    8275     757   1
  -4 -18   2   32565    1066  -3
   9  13   3   32565    1066   1
  10  13   3    2107     526   1
  11  13   3    4106     502   1
  12  13   3   19578     655   1
   0   0 -16   28213    1850  -2
  13  13   3   28213    1850   1
  14  13   3   92205    1610   1
  -5 -23   7   26934     804  -3
  15  13   3   26934     804   1
  16  13   3    9828     646   1
  17  13   3   11002     694   1
  18  13   3   25456    1465   1
  19  13   3   11243     797   1
  20  13   3     930     752   1
  21  13   3   24998    1174   1
   0  14   3  226723    3571   1
   1  14   3    -136     383   1
  -3 -13  -4  166378    2021  -3
   2  14   3  166378    2021   1
   3  14   3   36238     891   1
   2  -8  -9  210301    4227  -2
   4  14   3  210301    4227   1
   5  14   3    1755     510   1
   6  14   3  279031    4205   1
  -4 -17   0  194110    9506  -3
   7  14   3  194110    9506   1
   8  14   3   56985    1384   1
   9  14   3  138190    3100   1
  10  14   3  107433    1697   1
  11  14   3   10266     562   1
  12  14   3   81784    1445   1
  -5 -22   5   69251   12765  -3
  13  14   3   69251   12765   1
  14  14   3    6373     704   1
  15  14   3   14956     698   1
  16  14   3    2174     600   1
  17  14   3   24567     888   1
  -6 -26   9   61352    6648  -3
  18  14   3   61352    6648   1
  19  14   3   71176    1681   1
  20  14   3   20080    1000   1
  21  14   3   78304    2090   1
   1  15   3   23947     625   1
   2  15   3     559     447   1
   3  15   3    2620     493   1
   4  15   3  115177    1829   1
  -4 -16  -2   97769    2670  -3
   5  15   3   97769    2670   1
   2  -7 -11  265232   28360  -2
   6  15   3  265232   28360   1
   7  15   3    3722     671   1
   8  15   3    4767     579   1
   9  15   3    1495     510   1
  10  15   3    7248     537   1
  -5 -21   3   17681     710  -3
  11  15   3   17681     710   1
  12  15   3    5408     556   1
  13  15   3    5736     567   1
  14  15   3   11309     628   1
  15  15   3    1978     573   1
  -6 -25   7    1835     587  -3
  16  15   3    1835     587   1
   0   2 -20   55501    8652  -2
  17  15   3   55501    8652   1
  18  15   3    8971     744   1
  19  15   3   52336    1351   1
  20  15   3   16382     942   1
   0  16   3   31637    1058   1
   1  16   3   85067    1320   1
   3 -11  -8   60601    1141  -2
   2  16   3   60601    1141   1
  -4 -15  -4    8251     891  -3
   3  16   3    8251     891   1
   4  16   3   15706    2379   1
   5  16   3  376679    5726   1
   6  16   3    1794     652   1
   7  16   3  545792    7826   1
   2  -6 -13   31888    1104  -2
   8  16   3   31888    1104   1
  -5 -20   1   22349     696  -3
   9  16   3   22349     696   1
  10  16   3    8423     559   1
  11  16   3    5309     548   1
  12  16   3   19879     696   1
  13  16   3   58957    2123   1
  -6 -24   5    5012     649  -3
  14  16   3    5012     649   1
  15  16   3     966     579   1
  16  16   3   77191    1466   1
  17  16   3    7884     712   1
  18  16   3      40     679   1
  19  16   3    9851     789   1
  -7 -29  10   31969    1758  -3
  20  16   3   31969    1758   1
  -4 -14  -6  313089    5628  -3
   1  17   3  313089    5628   1
   2  17   3   16393    1401   1
   3  17   3  276837    4149   1
   4  17   3  155847    2740   1
   5  17   3    1759     661   1
   6  17   3   70510    1392   1
  -5 -19  -1  273916    3769  -3
   7  17   3  273916    3769   1
   8  17   3   10799     584   1
   9  17   3    8155     566   1
   2  -5 -15   14707     619  -2
  10  17   3   14707     619   1
  11  17   3    1016     531   1
  -6 -23   3    6541     590  -3
  12  17   3    6541     590   1
  13  17   3     851     555   1
  14  17   3   36488     933   1
  15  17   3    6454     800   1
  16  17   3   42267    1026   1
  17  17   3   11058     754   1
  -7 -28   8    8483     743  -3
  18  17   3    8483     743   1
  19  17   3   31998    1060   1
  20  17   3   14480     871   1
   0  18   3    6248     885   1
   4 -13  -8  272590    4137  -2
   1  18   3  272590    4137   1
   2  18   3    3734     642   1
   3  18   3  541004    8120   1
   4  18   3   37262    1035   1
  -5 -18  -3  510818    7297  -3
   5  18   3  510818    7297   1
   6  18   3   14794     922   1
   7  18   3    5475     530   1
   8  18   3    1701     545   1
   9  18   3   32236     808   1
  -6 -22   1    1799     536  -3
  10  18   3    1799     536   1
  11  18   3     946     538   1
   2  -4 -17   21263     727  -2
  12  18   3   21263     727   1
  13  18   3    1064     572   1
  14  18   3    2421     607   1
  15  18   3   54156    1180   1
  -7 -27   6   35825    1404  -3
  16  18   3   35825    1404   1
  17  18   3   74103    1566   1
  18  18   3    5443     736   1
  19  18   3   57892    1438   1
   1  19   3  229838    3542   1
   2  19   3    1965     641   1
   4 -12 -10  105948    3245  -2
  -5 -17  -5  105948    3245  -3
   3  19   3  105948    3245   1
   4  19   3   43521     999   1
   5  19   3   49998    1059   1
   6  19   3   23269     733   1
   7  19   3   22070     681   1
  -6 -21  -1    5211     582  -3
   8  19   3    5211     582   1
   9  19   3   20812    1118   1
  10  19   3    -124     531   1
  11  19   3    1993     558   1
  12  19   3   36811     914   1
  13  19   3     569     578   1
   2  -3 -19   52459    1474  -2
  -7 -26   4   52459    1474  -3
  14  19   3   52459    1474   1
  15  19   3    5986     658   1
  16  19   3   11113     732   1
  17  19   3   45689    1173   1
  18  19   3    9271     770   1
  -8 -30   8   51871    1360  -3
  19  19   3   51871    1360   1
   5 -15  -8   33416    2604  -2
  -5 -15  -8   33416    2604  -3
   0  20   3   33416    2604   1
  -5 -16  -7   14729    1149  -3
   1  20   3   14729    1149   1
   2  20   3  111312    1835   1
   3  20   3   42566     971   1
   4  20   3  110731    1798   1
   4 -11 -12   13565     663  -2
   5  20   3   13565     663   1
  -6 -20  -3   21958     751  -3
   6  20   3   21958     751   1
   7  20   3  104987    1707   1
   8  20   3   14867     663   1
   9  20   3    3353     598   1
  10  20   3   27535    1145   1
  11  20   3   54368    1142   1
  -7 -25   2     365     575  -3
  12  20   3     365     575   1
  13  20   3    9966     670   1
  14  20   3    6108     651   1
  15  20   3    7774     672   1
   2  -2 -21    6447     719  -2
  16  20   3    6447     719   1
  -8 -29   6   22728     883  -3
  17  20   3   22728     883   1
  18  20   3   15908     860   1
   5 -15  -9  107189    1754  -2
   1  21   3  107189    1754   1
   5 -14 -10    3521     538  -2
   2  21   3    3521     538   1
   3  21   3   22307     748   1
  -6 -19  -5     868     502  -3
   4  21   3     868     502   1
   5  21   3   64719    1245   1
   6  21   3   17187     664   1
   4 -10 -14   23214     752  -2
   7  21   3   23214     752   1
   8  21   3    2457     611   1
   9  21   3    7739     638   1
  -7 -24   0   12463    1180  -3
  10  21   3   12463    1180   1
  11  21   3     167     603   1
  12  21   3    7152     636   1
  13  21   3   31668    1048   1
  14  21   3   38685     994   1
  -8 -28   4   14924     953  -3
  15  21   3   14924     953   1
  16  21   3    2027     688   1
  17  21   3   47176    1235   1
  18  21   3    1299     716   1
   0  22   3   64147    1710   1
   1  22   3    2823     549   1
  -6 -18  -7   21361     805  -3
   2  22   3   21361     805   1
   3  22   3    3308     532   1
   5 -13 -12    2204     557  -2
   4  22   3    2204     557   1
   5  22   3     666     550   1
   6  22   3   29849     822   1
   7  22   3   16550     747   1
  -7 -23  -2    3881     607  -3
   8  22   3    3881     607   1
   4  -9 -16    3673     628  -2
   9  22   3    3673     628   1
  10  22   3    4480     641   1
  11  22   3    5451     662   1
  12  22   3   36466    1021   1
  -8 -27   2   10331     699  -3
  13  22   3   10331     699   1
  14  22   3   51252    1195   1
   3  -4 -21     479     668  -2
  15  22   3     479     668   1
  16  22   3    5971     708   1
  17  22   3    3207     705   1
   1  23   3  161503    2541   1
   2  23   3    6251     589   1
   3  23   3   21523     713   1
   4  23   3    -384     527   1
  -7 -21  -5   42610    5103  -3
   5  23   3   42610    5103   1
   5 -12 -14   17111     694  -2
  -7 -22  -4   17111     694  -3
   6  23   3   17111     694   1
   7  23   3    2404     622   1
   8  23   3    2864     654   1
   9  23   3   44512    1071   1
  10  23   3    1665     637   1
   4  -8 -18   15884    1068  -2
  -8 -26   0   15884    1068  -3
  11  23   3   15884    1068   1
  12  23   3  100493    1825   1
  13  23   3   19326     829   1
  14  23   3    3898     678   1
  15  23   3    7863     732   1
  16  23   3   15986     819   1
   3  -3 -23    1291     678  -2
  -9 -31   5    1291     678  -3
  17  23   3    1291     678   1
   0  24   3   82488    2213   1
   1  24   3   11568     687   1
   6 -16 -11   87002    1576  -2
   2  24   3   87002    1576   1
  -7 -20  -7   24022    2463  -3
   3  24   3   24022    2463   1
  -7 -21  -6   34276    2051  -3
   4  24   3   34276    2051   1
   5  24   3     195     564   1
   6  24   3   11111     699   1
   7  24   3   18660     805   1
   5 -11 -16   10111     735  -2
   8  24   3   10111     735   1
  -8 -25  -2    3227     688  -3
   9  24   3    3227     688   1
  10  24   3    4818     906   1
  11  24   3    8901     715   1
  12  24   3  132951    2247   1
   4  -7 -20    4849     739  -2
  13  24   3    4849     739   1
  14  24   3   14927    1918   1
  -9 -30   3    4010     751  -3
  15  24   3    4010     751   1
  16  24   3   15991     817   1
  -7 -19  -9   53429    1223  -3
   1  25   3   53429    1223   1
  -7 -20  -8    8300     680  -3
   2  25   3    8300     680   1
   3  25   3   19988     735   1
   6 -15 -13   60139    1981  -2
   4  25   3   60139    1981   1
   5  25   3    1166     592   1
   6  25   3    1682     652   1
  -8 -24  -4    5288     698  -3
   7  25   3    5288     698   1
   8  25   3   41425    1124   1
   9  25   3  111187    2088   1
   5 -10 -18    2517     743  -2
  10  25   3    2517     743   1
  11  25   3    9331     743   1
  12  25   3   30490    2978   1
  -9 -29   1   13957     820  -3
  13  25   3   13957     820   1
  14  25   3   18974     887   1
  15  25   3    6456     775   1
  16  25   3   15123    1212   1
   0  26   3  250571    5940   1
   7 -18 -11   44808    7520  -2
   1  26   3   44808    7520   1
   2  26   3  243741    3910   1
   3  26   3   35613     943   1
   4  26   3  124934    2061   1
  -8 -23  -6   16637    1142  -3
   5  26   3   16637    1142   1
   6 -14 -15   19024    1121  -2
   6  26   3   19024    1121   1
   7  26   3    5049     750   1
   8  26   3   33143    1034   1
   9  26   3   12581     808   1
  10  26   3  106423    4307   1
  -9 -28  -1    5331     767  -3
  11  26   3    5331     767   1
   5  -9 -20  195463    3347  -2
  12  26   3  195463    3347   1
  13  26   3    1482     732   1
  14  26   3   12631     848   1
  15  26   3   17400     894   1
   1  27   3   33847    1049   1
   2  27   3   25933    1733   1
   7 -17 -13   24259     838  -2
  -8 -22  -8   24259     838  -3
   3  27   3   24259     838   1
   4  27   3   24770     817   1
   5  27   3   48786    1211   1
   6  27   3    6674     726   1
   7  27   3   66002    1492   1
   6 -13 -17   34134    2345  -2
  -9 -26  -4   34134    2345  -3
   8  27   3   34134    2345   1
  -9 -27  -3   39361    1112  -3
   9  27   3   39361    1112   1
  10  27   3  111340    2115   1
  11  27   3    -720     720   1
  12  27   3    7791     798   1
  13  27   3   36739    1180   1
   5  -8 -22   77594    1951  -2
 -10 -31   1   77594    1951  -3
  14  27   3   77594    1951   1
   0  28   3   42199    1723   1
  -8 -21 -10   18196    2651  -3
   1  28   3   18196    2651   1
   2  28   3   60032    1407   1
   3  28   3   18539     852   1
   4  28   3   19253     774   1
   7 -16 -15    1246     704  -2
   5  28   3    1246     704   1
  -9 -25  -6   30838    2718  -3
   6  28   3   30838    2718   1
  -9 -26  -5    1760     707  -3
   7  28   3    1760     707   1
   8  28   3    1038     726   1
   9  28   3    1277     726   1
   6 -12 -19  113921    2190  -2
  10  28   3  113921    2190   1
  11  28   3   14299     841   1
 -10 -30  -1   14855     920  -3
  12  28   3   14855     920   1
  13  28   3    2654     789   1
   8 -20 -12   13427     838  -2
   1  29   3   13427     838   1
   2  29   3    2925     755   1
   3  29   3    2289     710   1
  -9 -24  -8   50705    4865  -3
   4  29   3   50705    4865   1
   5  29   3     266     729   1
   6  29   3    8428    1226   1
   7 -15 -17     565     712  -2
   7  29   3     565     712   1
   8  29   3     857     732   1
   9  29   3   18504     922   1
 -10 -29  -3   10221     808  -3
  10  29   3   10221     808   1
  11  29   3    7201     786   1
  12  29   3   85864    1882   1
   0  30   3    7730    1146   1
   1  30   3    -719     719   1
  -9 -23 -10   15731    1641  -3
   2  30   3   15731    1641   1
   8 -19 -14    6625     764  -2
   3  30   3    6625     764   1
   4  30   3    6538     936   1
   5  30   3    1349     753   1
   6  30   3   14814     877   1
   7  30   3    3133     753   1
 -10 -28  -5   13270    1379  -3
   8  30   3   13270    1379   1
   7 -14 -19    1960     737  -2
   9  30   3    1960     737   1
  10  30   3   10377     810   1
  11  30   3   29132    1037   1
   1  31   3   27497    1038   1
   2  31   3    6749     832   1
   3  31   3   14670     940   1
   4  31   3    2892     853   1
   8 -18 -16    8862     845  -2
   5  31   3    8862     845   1
 -10 -27  -7    5460     790  -3
   6  31   3    5460     790   1
   7  31   3    6537     812   1
   8  31   3      64     766   1
   9  31   3    4468     771   1
  10  31   3    6132     794   1
   0  32   3     197    1063   1
   1  32   3    6566     978   1
   9 -21 -14    2960     803  -2
   2  32   3    2960     803   1
   3  32   3   28083    1272   1
 -10 -26  -9    1868     876  -3
   4  32   3    1868     876   1
   5  32   3    -188     805   1
   6  32   3   13545     879   1
   8 -17 -18   25076     999  -2
   7  32   3   25076     999   1
   8  32   3   12552     946   1
   1  33   3   11600     898   1
 -10 -25 -11    8695     920  -3
   2  33   3    8695     920   1
   3  33   3   57034    1661   1
   9 -20 -16    7670     993  -2
   4  33   3    7670     993   1
   5  33   3    4153     929   1
   6  33   3    8467     921   1
 -11 -29  -7    3212    4427  -3
   7  33   3    3212    4427   1
  10 -24 -13   27627    2914  -2
 -10 -24 -13   27627    2914  -3
   0  34   3   27627    2914   1
   1  34   3  137577    2885   1
   2  34   3    -518     883   1
   3  34   3  118185    2645   1
   4  34   3    3303    1073   1
   0   0   4 4234143  122050   1
   1   0   4  197541    4460   1
   3   0   4    3113     914   1
  -4   0  -4 2189839   47293  -2
   4   0   4 2189839   47293   1
   5   0   4   88668    1839   1
   6   0   4 1111371   19022   1
   2  -9   5  442373   16027  -3
   7   0   4  442373   16027   1
   8   0   4 1403458   21392   1
   9   0   4   70727    1452   1
  -5   5  -9  135147    5821  -2
  10   0   4  135147    5821   1
  11   0   4   63165    1824   1
  12   0   4   19381    2175   1
  13   0   4   25827    1201   1
  14   0   4   92204    2331   1
  -6   9 -13   16940    1127  -2
  15   0   4   16940    1127   1
  16   0   4  160968    3796   1
  17   0   4   24622    1283   1
   0 -18  14  248575    6345  -3
  18   0   4  248575    6345   1
  19   0   4    2767     897   1
  20   0   4   26971    1410   1
  -7  14 -18   89299    7298  -2
  21   0   4   89299    7298   1
  22   0   4     666    1516   1
  23   0   4    4427    3559   1
  -3  -3  -2    2888     598  -2
   1   1   4    2888     598   1
   2   1   4   51106    2489   1
   3   1   4   13497     701   1
   4   1   4   51362    1017   1
   2  -8   3  586103   15050  -3
   5   1   4  586103   15050   1
  -4   1  -6   29011    3301  -2
   6   1   4   29011    3301   1
   7   1   4  317989    3636   1
   8   1   4    7654     454   1
   9   1   4    1758     363   1
  10   1   4  266914    3370   1
  11   1   4   41434     982   1
  -5   6 -11  289338    4561  -2
  12   1   4  289338    4561   1
  13   1   4   48111    1080   1
  14   1   4   33588     846   1
  15   1   4    9777     618   1
  16   1   4    -281     523   1
  17   1   4   16943     730   1
  18   1   4    9598     662   1
  19   1   4   47037    1272   1
  20   1   4    3665     699   1
  21   1   4    2300     821   1
  22   1   4   40767    1747   1
  -7  15 -20    1041    5512  -2
  23   1   4    1041    5512   1
   0   2   4 6621938  222040   1
   1   2   4   33553     958   1
   2   2   4 4608364   75469   1
  -3  -2  -4    7863     721  -2
   2  -7   1    7863     721  -3
   3   2   4    7863     721   1
   4   2   4   74422    1236   1
   5   2   4  382105    4552   1
   6   2   4  829520    9260   1
   7   2   4  108475    1408   1
  -4   2  -8  850889    9724  -2
   8   2   4  850889    9724   1
   9   2   4     316     364   1
  10   2   4   47007     906   1
  11   2   4   55558    2172   1
  12   2   4   48616    1112   1
  13   2   4   24326     791   1
  -5   7 -13   32844    1594  -2
   0 -16  10   32844    1594  -3
  14   2   4   32844    1594   1
  15   2   4    8487     577   1
  16   2   4   30997     867   1
  17   2   4    2420     567   1
  18   2   4   22752     908   1
  19   2   4    5382     754   1
  20   2   4    9624     843   1
  21   2   4    7840     873   1
  22   2   4   92896    2819   1
   2  -6  -1   21932    1105  -3
   1   3   4   21932    1105   1
   2   3   4  121026    4721   1
   3   3   4    1181     570   1
   4   3   4   77332    1274   1
  -3  -1  -6  370208    4311  -2
   5   3   4  370208    4311   1
   6   3   4  508308    5653   1
   7   3   4  135194    1921   1
   8   3   4  526884    5595   1
   9   3   4   41623     971   1
  -4   3 -10    6136     493  -2
  10   3   4    6136     493   1
  11   3   4   99405    1592   1
  12   3   4   89893    1759   1
  13   3   4   10314     570   1
  14   3   4   23128     711   1
  15   3   4    6462     570   1
  -5   8 -15  112984    2032  -2
  16   3   4  112984    2032   1
  17   3   4    4894     635   1
  18   3   4  113738    2310   1
  19   3   4   17318     877   1
  20   3   4     582     744   1
  21   3   4    3783     845   1
  22   3   4   49691    1678   1
   0   4   4   93805    2517   1
  -2  -5  -3    1755     609  -2
   1   4   4    1755     609   1
   2   4   4  559822    9141   1
   3   4   4    5823     531   1
   1  -9   1  349121    8423  -3
   4   4   4  349121    8423   1
   5   4   4  443625    5073   1
   6   4   4   12147     461   1
  -3   0  -8   70465    2544  -2
   7   4   4   70465    2544   1
   8   4   4   35646     672   1
   9   4   4   25129     926   1
   0 -14   6   12253     894  -3
  10   4   4   12253     894   1
  11   4   4    7064     568   1
  -4   4 -12   27257     880  -2
  12   4   4   27257     880   1
  13   4   4   12032     585   1
  14   4   4    -338     488   1
  15   4   4    6995     560   1
  16   4   4     696     568   1
  17   4   4   14373     747   1
  -5   9 -17   50632    8125  -2
  18   4   4   50632    8125   1
  19   4   4   37629    1305   1
  20   4   4    5716     815   1
  -2 -23  15    1753     806  -3
  21   4   4    1753     806   1
  22   4   4   27365    1218   1
   1   5   4   42689    1123   1
   1  -8  -1    4578     658  -3
   2   5   4    4578     658   1
  -2  -4  -5   17607     599  -2
   3   5   4   17607     599   1
   4   5   4   83959    1230   1
   5   5   4  169987    2309   1
   6   5   4   93251    1327   1
   7   5   4   13209     484   1
   8   5   4    4332     402   1
  -3   1 -10   52314     957  -2
   9   5   4   52314     957   1
  10   5   4   13692     593   1
  11   5   4    6179    1099   1
  12   5   4   60545    1297   1
  13   5   4    1886     514   1
  14   5   4   12430     606   1
  15   5   4   13571     628   1
  16   5   4   45546    5535   1
  17   5   4   72764    1770   1
  18   5   4   12006     825   1
  -2 -22  13   36920    1262  -3
  19   5   4   36920    1262   1
  -5  10 -19   17835    1464  -2
  20   5   4   17835    1464   1
  21   5   4   51972    1663   1
  22   5   4   14389     994   1
  -1  -7  -3 1221751   24232  -2
   1  -7  -3 1221751   24232  -3
   0   6   4 1221751   24232   1
   1   6   4    1277     525   1
   2   6   4  162288    2206   1
   3   6   4   10303     719   1
   4   6   4  168408    2091   1
  -2  -3  -7  102625    1449  -2
   5   6   4  102625    1449   1
   0 -12   2  145633    3815  -3
   6   6   4  145633    3815   1
   7   6   4    5187     437   1
   8   6   4   79499    1648   1
   9   6   4    1819     576   1
  10   6   4     512     506   1
  -3   2 -12   44896    5439  -2
  11   6   4   44896    5439   1
  12   6   4    1486     563   1
  13   6   4    5619     565   1
  14   6   4    4738     632   1
  15   6   4   17845     673   1
  16   6   4    9983     632   1
  -2 -21  11   18536    1383  -3
  17   6   4   18536    1383   1
  18   6   4    1626     744   1
  19   6   4   10656    1301   1
  20   6   4    1681     802   1
  21   6   4   11040    1169   1
  -5  11 -21    6710     970  -2
  22   6   4    6710     970   1
   1   7   4  117681    1584   1
  -1  -6  -5    2607     401  -2
   2   7   4    2607     401   1
   3   7   4  105555    1388   1
   4   7   4  118948    1537   1
   5   7   4  102607    1382   1
   6   7   4   44392     803   1
  -2  -2  -9    1670     411  -2
   7   7   4    1670     411   1
   8   7   4    3443     465   1
  -1 -15   4   58606    1162  -3
   9   7   4   58606    1162   1
  10   7   4      83     563   1
  11   7   4  220395    3651   1
  12   7   4    7801     568   1
  -3   3 -14   21871     694  -2
  13   7   4   21871     694   1
  14   7   4    8630     545   1
  -2 -20   9  101533    1781  -3
  15   7   4  101533    1781   1
  16   7   4   27867     847   1
  17   7   4    2346     651   1
  18   7   4   21010     946   1
  19   7   4   77966    2096   1
  20   7   4    2539     866   1
  21   7   4    6552     949   1
  22   7   4    8656    1060   1
   0   8   4   67674    1572   1
   1   8   4 3568103   46108   1
   0 -10  -2   37317    1519  -3
   2   8   4   37317    1519   1
   3   8   4   45550     771   1
  -1  -5  -7  792218    8600  -2
   4   8   4  792218    8600   1
   5   8   4  590212    6536   1
   6   8   4  182020    2219   1
  -1 -14   2    3276     453  -3
   7   8   4    3276     453   1
   8   8   4    7327     526   1
  -2  -1 -11  508111    7251  -2
   9   8   4  508111    7251   1
  10   8   4   73684    2071   1
  11   8   4  416211    6545   1
  12   8   4   20202    1662   1
  -2 -19   7   17584     651  -3
  13   8   4   17584     651   1
  14   8   4   51841    1052   1
  -3   4 -16   19200     986  -2
  15   8   4   19200     986   1
  16   8   4   42565    1208   1
  17   8   4     -61     640   1
  18   8   4   25136    1027   1
  19   8   4   98232    2338   1
  20   8   4   21141    1117   1
  21   8   4   21709    1188   1
  22   8   4    6896    1022   1
   1   9   4  581635    6374   1
   2   9   4   11816     482   1
   3   9   4  310948    3430   1
   4   9   4  139080    1691   1
  -1 -13   0  581858    6487  -3
   5   9   4  581858    6487   1
  -1  -4  -9  122989    1624  -2
   6   9   4  122989    1624   1
   7   9   4   55154    1020   1
   8   9   4   43569    1247   1
   9   9   4   96986    3570   1
  10   9   4   57030    1355   1
  -2 -18   5   44804    1103  -3
  11   9   4   44804    1103   1
  12   9   4   18943     717   1
  13   9   4   12741     706   1
  14   9   4   13875     648   1
  15   9   4   34967     899   1
  16   9   4     655     578   1
  -3   5 -18   21213     887  -2
  17   9   4   21213     887   1
  18   9   4    2327     695   1
  19   9   4    4572    1180   1
  20   9   4    1499     890   1
  21   9   4    7493    1071   1
  -4 -27  14    2772     923  -3
  22   9   4    2772     923   1
   0  10   4  118695    2135   1
   1  10   4 2157487   22325   1
   0  -8  -6   20471    1381  -2
   2  10   4   20471    1381   1
  -1 -12  -2    2305     377  -3
   3  10   4    2305     377   1
   4  10   4   71319    1052   1
   5  10   4  329020    3665   1
   6  10   4   55039     955   1
   7  10   4   55983    1079   1
  -1  -3 -11   68415    9509  -2
   8  10   4   68415    9509   1
  -2 -17   3  853620   12754  -3
   9  10   4  853620   12754   1
  10  10   4    6399     718   1
  11  10   4  142150    2284   1
  12  10   4   15216     669   1
  13  10   4  101257    1647   1
  14  10   4   22184     885   1
  15  10   4   12958     642   1
  16  10   4    3088     607   1
  17  10   4     924     650   1
  18  10   4   18244     854   1
  -3   6 -20   24461    2033  -2
  19  10   4   24461    2033   1
  -4 -26  12    8767     972  -3
  20  10   4    8767     972   1
  21  10   4    8300    1011   1
  22  10   4    1068    1477   1
  -1 -11  -4    5854     415  -3
   1  11   4    5854     415   1
   2  11   4   15744     988   1
   3  11   4   20254     531   1
   4  11   4   15630     490   1
   5  11   4   69444    1097   1
   6  11   4   58487    1063   1
  -2 -16   1    2575     547  -3
   7  11   4    2575     547   1
   8  11   4   42878    1074   1
   9  11   4  533582   10234   1
  -1  -2 -13   16329     701  -2
  10  11   4   16329     701   1
  11  11   4   16232     630   1
  -3 -20   5    1337     467  -3
  12  11   4    1337     467   1
  13  11   4   22725     837   1
  14  11   4   66690    1276   1
  15  11   4   30436    1125   1
  16  11   4    2574     586   1
  17  11   4   14129     828   1
  -4 -25  10    7904     755  -3
  18  11   4    7904     755   1
  19  11   4    6417     779   1
  20  11   4    2249     827   1
  -3   7 -22   34580    1433  -2
  21  11   4   34580    1433   1
   0  12   4  104813    1845   1
   1 -10  -6  161037    1845  -2
   1  12   4  161037    1845   1
   2  12   4  131807    3629   1
   3  12   4   19678     536   1
   4  12   4   25427    1274   1
  -2 -15  -1  249002    3317  -3
   5  12   4  249002    3317   1
   0  -6 -10   28131     763  -2
   6  12   4   28131     763   1
   7  12   4   15537     998   1
   8  12   4     197     628   1
   9  12   4  134833    2484   1
  -3 -19   3   16117    1922  -3
  10  12   4   16117    1922   1
  11  12   4    1751     497   1
  -1  -1 -15   60509   21889  -2
  12  12   4   60509   21889   1
  13  12   4   75643    1343   1
  14  12   4   37303     905   1
  15  12   4   47747   10521   1
  -4 -24   8    5306     615  -3
  16  12   4    5306     615   1
  17  12   4  160182    2670   1
  18  12   4    2142     682   1
  19  12   4    9885     821   1
  20  12   4   17313     979   1
  21  12   4   22073    1210   1
   1  13   4  355518    3738   1
   2  13   4    2613     397   1
   1  -9  -8   88663    1578  -2
  -2 -14  -3   88663    1578  -3
   3  13   4   88663    1578   1
   4  13   4    9013     526   1
   5  13   4   71803   11237   1
   6  13   4   44298    1004   1
   7  13   4  229465    3787   1
  -3 -18   1  177534   11698  -3
   8  13   4  177534   11698   1
   9  13   4  233424    3594   1
  10  13   4    2411     499   1
  11  13   4   53742    1065   1
  12  13   4   14123     579   1
  13  13   4    5139     542   1
  -4 -23   6  112901    1894  -3
  14  13   4  112901    1894   1
  15  13   4   78675    1500   1
  16  13   4   19807    3393   1
  17  13   4   26581     879   1
  18  13   4   27022     936   1
  19  13   4   35163    5000   1
  20  13   4    3837     813   1
  21  13   4   21883    1222   1
   0  14   4   28957     917   1
  -2 -13  -5   18858     560  -3
   1  14   4   18858     560   1
   2  14   4   43619     828   1
   3  14   4   10868    1319   1
   4  14   4     511     502   1
   1  -8 -10  239402    4069  -2
   5  14   4  239402    4069   1
  -3 -17  -1   33691    2038  -3
   6  14   4   33691    2038   1
   7  14   4    1115     653   1
   8  14   4   53151    1572   1
   9  14   4    4275     543   1
  10  14   4    1867     496   1
  11  14   4     492     472   1
  -4 -22   4   23623     687  -3
  12  14   4   23623     687   1
  13  14   4     593     528   1
  14  14   4    3209     584   1
  15  14   4   23402     806   1
  -1   1 -19   22303    1638  -2
  16  14   4   22303    1638   1
  -5 -26   8   30010    1849  -3
  17  14   4   30010    1849   1
  18  14   4    3310     656   1
  19  14   4    8514    1775   1
  20  14   4    5599     846   1
  21  14   4     794    1230   1
   2 -12  -7   61807    1224  -2
   1  15   4   61807    1224   1
   2  15   4   24289     834   1
   3  15   4  344142    4693   1
  -3 -16  -3    2204     557  -3
   4  15   4    2204     557   1
   5  15   4  143954    2262   1
   6  15   4  193623    3163   1
   1  -7 -12   15893    1294  -2
   7  15   4   15893    1294   1
   8  15   4    6970     567   1
   9  15   4    8419     564   1
  -4 -21   2   37553    1049  -3
  10  15   4   37553    1049   1
  11  15   4    9706     547   1
  12  15   4   13758     619   1
  13  15   4   33055     857   1
  14  15   4   61754    1227   1
  -5 -25   6    9311     904  -3
  15  15   4    9311     904   1
  16  15   4    3863     634   1
  17  15   4   13806     737   1
  -1   2 -21   57975    1343  -2
  18  15   4   57975    1343   1
  19  15   4   12108     835   1
  20  15   4   26944    1117   1
   0  16   4  393676    6758   1
   1  16   4   24021    1825   1
  -3 -15  -5  345579    4901  -3
   2  16   4  345579    4901   1
   2 -11  -9   26318     822  -2
   3  16   4   26318     822   1
   2 -10 -10   20798    1626  -2
   4  16   4   20798    1626   1
   5  16   4   20688     850   1
   6  16   4    3559     703   1
   7  16   4     870     533   1
  -4 -20   0   85817    2578  -3
   8  16   4   85817    2578   1
   1  -6 -14   76015    2428  -2
   9  16   4   76015    2428   1
  10  16   4   11473     577   1
  11  16   4    1488     499   1
  12  16   4   24895     748   1
  -5 -24   4   18748    1033  -3
  13  16   4   18748    1033   1
  14  16   4  100501    1715   1
  15  16   4   39490    1002   1
  16  16   4    8776     821   1
  17  16   4   15606    1261   1
  18  16   4    7692     727   1
  -6 -29   9     206     718  -3
  19  16   4     206     718   1
  -1   3 -23   11715     869  -2
  20  16   4   11715     869   1
   1  17   4   38371     937   1
   2  17   4    1630     607   1
   3  17   4   96003    3032   1
   4  17   4  397035    6185   1
   5  17   4   17101    1003   1
  -4 -19  -2   22618     760  -3
   6  17   4   22618     760   1
   7  17   4   48788    1017   1
   8  17   4  141509    2113   1
   9  17   4   18774     631   1
  10  17   4    6538     532   1
   1  -5 -16   20542     737  -2
  -5 -23   2   20542     737  -3
  11  17   4   20542     737   1
  12  17   4   60412    1213   1
  13  17   4    1150     563   1
  14  17   4   82075    1503   1
  15  17   4     184     595   1
  16  17   4    6596     676   1
  -6 -28   7    5619     681  -3
  17  17   4    5619     681   1
  18  17   4    5244     713   1
  19  17   4   10107     818   1
  20  17   4    4163    1528   1
   0  18   4  298196    6364   1
   1  18   4   18923    3906   1
   3 -13  -9  460580    6958  -2
   2  18   4  460580    6958   1
   3  18   4   16381     730   1
  -4 -18  -4   76377    1524  -3
   4  18   4   76377    1524   1
   5  18   4    7979     598   1
   6  18   4  168195    3830   1
   7  18   4   67092    1237   1
   8  18   4  126362    1935   1
  -5 -22   0    6411     857  -3
   9  18   4    6411     857   1
  10  18   4    6207     705   1
  11  18   4    1722     552   1
  12  18   4    4321     580   1
   1  -4 -18     941     579  -2
  13  18   4     941     579   1
  14  18   4    2592     594   1
  -6 -27   5   25885     829  -3
  15  18   4   25885     829   1
  16  18   4    7191    1230   1
  17  18   4    2377     678   1
  18  18   4   25352     940   1
  19  18   4    1930     742   1
  -4 -16  -7  101844    3041  -3
   1  19   4  101844    3041   1
  -4 -17  -6    9065     745  -3
   2  19   4    9065     745   1
   3  19   4   11819     624   1
   3 -12 -11    6033     672  -2
   4  19   4    6033     672   1
   5  19   4   72766    1312   1
   6  19   4  148013    2228   1
  -5 -21  -2   36623     865  -3
   7  19   4   36623     865   1
   8  19   4    5014     553   1
   9  19   4   22762     734   1
  10  19   4   12906    1453   1
  11  19   4    9581     618   1
  12  19   4  115418    1896   1
  -6 -26   3    4823     609  -3
  13  19   4    4823     609   1
  14  19   4     568     597   1
   1  -3 -20   13236     711  -2
  15  19   4   13236     711   1
  16  19   4   74020    1460   1
  17  19   4    1393     670   1
  -7 -30   7   23544     920  -3
  18  19   4   23544     920   1
  19  19   4   10437     800   1
   4 -16  -8  117428    3210  -2
  -4 -16  -8  117428    3210  -3
   0  20   4  117428    3210   1
   4 -15  -9   15132     669  -2
   1  20   4   15132     669   1
   2  20   4   29069     790   1
   3  20   4   11580     623   1
   4  20   4   13146     617   1
  -5 -20  -4    7818     570  -3
   5  20   4    7818     570   1
   3 -11 -13   18998    1089  -2
   6  20   4   18998    1089   1
   7  20   4   21317     707   1
   8  20   4    2569     555   1
   9  20   4    2359     580   1
  10  20   4   10369     658   1
  -6 -25   1    8251     662  -3
  11  20   4    8251     662   1
   2  -6 -18  132899    2123  -2
  12  20   4  132899    2123   1
  13  20   4   13065     702   1
  14  20   4    6372     666   1
  15  20   4   14503     734   1
  -7 -29   5     244     641  -3
  16  20   4     244     641   1
   1  -2 -22    1926     685  -2
  17  20   4    1926     685   1
  18  20   4   28863     978   1
   1  21   4   13020     619   1
   2  21   4   46261    1012   1
   4 -14 -11   73095    1843  -2
  -5 -19  -6   73095    1843  -3
   3  21   4   73095    1843   1
   4  21   4   16236     654   1
   5  21   4    3543     637   1
   6  21   4    2784     557   1
   7  21   4    -471     559   1
   3 -10 -15    6493     592  -2
   8  21   4    6493     592   1
  -6 -24  -1    3887     617  -3
   9  21   4    3887     617   1
  10  21   4     796     598   1
  11  21   4    7755     666   1
  12  21   4   14782     747   1
  13  21   4    8581     671   1
   2  -5 -20    4558     647  -2
  -7 -28   3    4558     647  -3
  14  21   4    4558     647   1
  15  21   4    8295     684   1
  16  21   4    2171     670   1
  17  21   4   29614     996   1
  18  21   4   13372     816   1
   0  22   4    1159     764   1
  -5 -18  -8    9771     606  -3
   1  22   4    9771     606   1
   2  22   4    1370     574   1
   3  22   4    2585     529   1
   4  22   4   14382     652   1
   4 -13 -13   41202     981  -2
   5  22   4   41202     981   1
  -6 -22  -4   57647    1368  -3
   6  22   4   57647    1368   1
  -6 -23  -3    1163     574  -3
   7  22   4    1163     574   1
   8  22   4     884     618   1
   9  22   4    2149     720   1
   3  -9 -17    3939     643  -2
  10  22   4    3939     643   1
  11  22   4   22031     817   1
  -7 -27   1   22980    1422  -3
  12  22   4   22980    1422   1
  13  22   4    7256     821   1
  14  22   4   49672    1154   1
  15  22   4   62662    1310   1
   2  -4 -22   22319     870  -2
  16  22   4   22319     870   1
  17  22   4    4184     741   1
   5 -17 -10    1816     578  -2
   1  23   4    1816     578   1
   2  23   4   64038    1339   1
   3  23   4    4085     562   1
  -6 -21  -6   36947    2476  -3
   4  23   4   36947    2476   1
  -6 -22  -5   11749     661  -3
   5  23   4   11749     661   1
   6  23   4    4903     606   1
   4 -12 -15   22975    1505  -2
   7  23   4   22975    1505   1
   8  23   4   20127     791   1
   9  23   4    3239     664   1
  -7 -26  -1   10201     784  -3
  10  23   4   10201     784   1
  11  23   4   22074     833   1
   3  -8 -19    4322     693  -2
  12  23   4    4322     693   1
  13  23   4    4673     692   1
  14  23   4    3569     699   1
  15  23   4    9774     718   1
  -8 -31   4    -550     671  -3
  16  23   4    -550     671   1
  17  23   4    1218     759   1
   0  24   4   24841    1154   1
   1  24   4    3074     612   1
  -6 -20  -8    1205     594  -3
   2  24   4    1205     594   1
   5 -16 -12   43747    1031  -2
  -6 -21  -7   43747    1031  -3
   3  24   4   43747    1031   1
   4  24   4    2065     582   1
   5  24   4   35928     946   1
   6  24   4   34041     987   1
   7  24   4   39357    1009   1
  -7 -25  -3     647     658  -3
   8  24   4     647     658   1
   4 -11 -17   13001    1370  -2
   9  24   4   13001    1370   1
  10  24   4    7833    1163   1
  11  24   4  113368    1994   1
  12  24   4     696     677   1
  13  24   4    6176     724   1
   3  -7 -21   25874     927  -2
  -8 -30   2   25874     927  -3
  14  24   4   25874     927   1
  15  24   4    1212     715   1
  16  24   4     -42     747   1
   1  25   4   79801    1599   1
   2  25   4    8441     685   1
   3  25   4  186157    3023   1
   4  25   4    -580     580   1
   5 -15 -14    7184     647  -2
   5  25   4    7184     647   1
  -7 -24  -5    3686     633  -3
   6  25   4    3686     633   1
   7  25   4  107151    1977   1
   8  25   4   10238    1205   1
   9  25   4   11930     772   1
  10  25   4   31797     999   1
   4 -10 -19  164448    2789  -2
  11  25   4  164448    2789   1
  -8 -29   0   69754    1517  -3
  12  25   4   69754    1517   1
  13  25   4    3896     705   1
  14  25   4    3951     710   1
  15  25   4   22228     930   1
   0  26   4    3932     982   1
   1  26   4    3092     672   1
   6 -18 -12   30837    3284  -2
   2  26   4   30837    3284   1
   3  26   4  167716    2778   1
  -7 -23  -7   22462     852  -3
   4  26   4   22462     852   1
   5  26   4   25188     844   1
   6  26   4    7671     685   1
   5 -14 -16  145269    2660  -2
   7  26   4  145269    2660   1
   8  26   4    1024     688   1
  -8 -27  -3   64948    1471  -3
   9  26   4   64948    1471   1
  -8 -28  -2    1699     719  -3
  10  26   4    1699     719   1
  11  26   4   79750    1690   1
  12  26   4    3564     741   1
   4  -9 -21   24067     983  -2
  13  26   4   24067     983   1
  14  26   4    3723     787   1
  -9 -32   2    6151     964  -3
  15  26   4    6151     964   1
   1  27   4   86207    5250   1
  -7 -22  -9     350     663  -3
   2  27   4     350     663   1
   3  27   4   11155     748   1
   6 -17 -14   34205    5886  -2
   4  27   4   34205    5886   1
   5  27   4   74714    1572   1
   6  27   4   15358     836   1
  -8 -26  -5   17702    2587  -3
   7  27   4   17702    2587   1
  -8 -27  -4     696     715  -3
   8  27   4     696     715   1
   5 -13 -18  226047    3812  -2
   9  27   4  226047    3812   1
  10  27   4   10923     807   1
  11  27   4   15107     856   1
  12  27   4   25729    1011   1
  -9 -31   0   31710    1101  -3
  13  27   4   31710    1101   1
  14  27   4    1679     794   1
   7 -21 -11   38497    2689  -2
  -7 -21 -11   38497    2689  -3
   0  28   4   38497    2689   1
   1  28   4    2669     729   1
   2  28   4   23956     912   1
   3  28   4   22376     932   1
   4  28   4    6535     761   1
  -8 -25  -7    -657     657  -3
   5  28   4    -657     657   1
   6 -16 -16   10876    1522  -2
   6  28   4   10876    1522   1
   7  28   4    -707     707   1
   8  28   4   32553    1041   1
   9  28   4   63584    1475   1
  10  28   4   37658    1101   1
  -9 -30  -2    2643     726  -3
  11  28   4    2643     726   1
  12  28   4     256     742   1
  13  28   4    2316     761   1
   1  29   4    2022     742   1
   7 -20 -13   12339     802  -2
   2  29   4   12339     802   1
  -8 -24  -9   14789    2114  -3
   3  29   4   14789    2114   1
   4  29   4    1205     738   1
   5  29   4   20089     899   1
   6  29   4   29084    1039   1
   7  29   4    4261     780   1
   6 -15 -18    6776     815  -2
   8  29   4    6776     815   1
  -9 -29  -4   10331     792  -3
   9  29   4   10331     792   1
  10  29   4    1073     730   1
  11  29   4   10388     804   1
  12  29   4    5423     791   1
   0  30   4    6213    1129   1
  -8 -23 -11   11716    1486  -3
   1  30   4   11716    1486   1
   2  30   4     -45     745   1
   3  30   4   12079     870   1
   7 -19 -15    3090     779  -2
   4  30   4    3090     779   1
   5  30   4    3307     861   1
   6  30   4   20062    1268   1
  -9 -28  -6   15452     968  -3
   7  30   4   15452     968   1
   8  30   4    6178     800   1
   9  30   4    2428     759   1
   6 -14 -20   21547     955  -2
  10  30   4   21547     955   1
  11  30   4    2668     841   1
   8 -22 -13   10906     980  -2
   1  31   4   10906     980   1
   2  31   4   15854    1548   1
   3  31   4   21203     998   1
   4  31   4    2930     859   1
  -9 -27  -8    5197     949  -3
   5  31   4    5197     949   1
   7 -18 -17   13718     958  -2
   6  31   4   13718     958   1
   7  31   4    1208     741   1
   8  31   4    1133     744   1
   9  31   4    5986     776   1
   0  32   4   12812    1245   1
   1  32   4    2346     789   1
   2  32   4    1617     792   1
   8 -21 -15    5570     874  -2
  -9 -26 -10    5570     874  -3
   3  32   4    5570     874   1
   4  32   4    1997     858   1
   5  32   4    3080     902   1
   6  32   4     168     842   1
   7  32   4   14169     911   1
 -10 -30  -6    2304     761  -3
   8  32   4    2304     761   1
  -9 -25 -12    2247     795  -3
   1  33   4    2247     795   1
   2  33   4    6328     894   1
   3  33   4   33041    1322   1
   4  33   4   26281    1202   1
   8 -20 -17    1624     969  -2
   5  33   4    1624     969   1
 -10 -29  -8    3891     927  -3
   6  33   4    3891     927   1
   0  34   4  116279    3348   1
   9 -24 -14   13259    1799  -2
   1  34   4   13259    1799   1
   2  34   4   35373    1290   1
   3  34   4    5265    1086   1
   1   1   5 1050304   15354   1
  -4  -3  -3    1722     597  -2
   2   1   5    1722     597   1
   3   1   5 2292707   28324   1
   3  -8   2  198291   15563  -3
   4   1   5  198291   15563   1
   5   1   5 2871973   33184   1
   6   1   5   83092    1242   1
  -5   1  -7 1540668   17030  -2
   7   1   5 1540668   17030   1
   8   1   5   69891    1896   1
   9   1   5  936675   10754   1
  10   1   5    7995     600   1
  11   1   5    -191     595   1
  12   1   5    8531     691   1
  -6   6 -12  398827    5992  -2
  13   1   5  398827    5992   1
  14   1   5   56685    2226   1
   1 -17  11    8508    1045  -3
  15   1   5    8508    1045   1
  16   1   5   14107     701   1
  17   1   5    6919     621   1
  18   1   5    5698     648   1
  19   1   5   17029    2154   1
  20   1   5    3885     719   1
  21   1   5   14656     895   1
  22   1   5    5498     955   1
   0   2   5    5092     912   1
   1   2   5   29830    1713   1
   3  -7   0   28575    1280  -3
   2   2   5   28575    1280   1
   3   2   5   31110     691   1
  -4  -2  -5   17089     570  -2
   4   2   5   17089     570   1
   5   2   5  146722    1809   1
   6   2   5   61577     984   1
   7   2   5  337174    4152   1
   8   2   5     873     384   1
  -5   2  -9   88380    1420  -2
   9   2   5   88380    1420   1
  10   2   5   38868    2016   1
  11   2   5    1359     594   1
  12   2   5  345921    5601   1
   1 -16   9  207606    3209  -3
  13   2   5  207606    3209   1
  14   2   5   19541     687   1
  -6   7 -14   51254    1162  -2
  15   2   5   51254    1162   1
  16   2   5   18172     774   1
  17   2   5    6871     660   1
  18   2   5    8104    1077   1
  19   2   5     921     662   1
  20   2   5   11635     779   1
  21   2   5  121084    2680   1
  22   2   5   13306    1002   1
   1   3   5  884415   17993   1
   2   3   5    8568     615   1
   3   3   5 1207094   13601   1
   4   3   5   12910     490   1
   5   3   5   80841   42994   1
  -4  -1  -7   92713    1415  -2
   6   3   5   92713    1415   1
   7   3   5   13898     503   1
   8   3   5    4245     416   1
   9   3   5  282761    3747   1
  10   3   5   24310    1361   1
  -5   3 -11    9755     669  -2
   1 -15   7    9755     669  -3
  11   3   5    9755     669   1
  12   3   5   13872    1508   1
  13   3   5   78410    1435   1
  14   3   5     -62     518   1
  15   3   5   15680     706   1
  16   3   5    2124     597   1
  -6   8 -16    6213     642  -2
  17   3   5    6213     642   1
  18   3   5    1368     641   1
  19   3   5   12300     784   1
  20   3   5   26181    1006   1
  21   3   5  203536    4172   1
  -1 -24  16   31530    1353  -3
  22   3   5   31530    1353   1
   0   4   5    5508     820   1
   1   4   5   14239     632   1
  -3  -5  -4   10383     511  -2
   2   4   5   10383     511   1
   2  -9   0  161382    3802  -3
   3   4   5  161382    3802   1
   4   4   5    4322     420   1
   5   4   5   60542     977   1
   6   4   5  152418    1898   1
   7   4   5    -201     388   1
   8   4   5  110666    1511   1
   1 -14   5  213895    2897  -3
   9   4   5  213895    2897   1
  10   4   5    6580     574   1
  11   4   5   32378     929   1
  12   4   5  348060    5165   1
  -5   4 -13   87999    1557  -2
  13   4   5   87999    1557   1
  14   4   5   29430    2982   1
  15   4   5   50709    1192   1
  16   4   5    5297     610   1
  17   4   5   40975    1121   1
  18   4   5    8983     706   1
  -6   9 -18   26220    4308  -2
  19   4   5   26220    4308   1
  -1 -23  14    6582     903  -3
  20   4   5    6582     903   1
  21   4   5   30837    1219   1
  22   4   5    6655     875   1
   2  -8  -2  170700    5369  -3
   1   5   5  170700    5369   1
   2   5   5  104221    1471   1
   3   5   5  862468    9470   1
  -3  -4  -6   20639     769  -2
   4   5   5   20639     769   1
   5   5   5  183045    3078   1
   6   5   5   24897     834   1
   1 -13   3   56380     975  -3
   7   5   5   56380     975   1
   8   5   5   25385     661   1
   9   5   5  137786    2012   1
  -4   1 -11   61445    1195  -2
  10   5   5   61445    1195   1
  11   5   5      13     611   1
  12   5   5   58462   18559   1
  13   5   5     853     488   1
  14   5   5    -498     498   1
  15   5   5   36321    1655   1
  16   5   5    7186     650   1
  17   5   5   38544    1085   1
  -1 -22  12   27317     972  -3
  18   5   5   27317     972   1
  19   5   5   16997     867   1
  20   5   5   37704    1387   1
  -6  10 -20    4506     829  -2
  21   5   5    4506     829   1
  22   5   5    5507     874   1
   0   6   5  182934    3249   1
  -2  -7  -4    2424     443  -2
   1   6   5    2424     443   1
   2   6   5   31721     668   1
   3   6   5   17936     527   1
   4   6   5  101258    1349   1
   1 -12   1    1456     394  -3
   5   6   5    1456     394   1
  -3  -3  -8  405951    4519  -2
   6   6   5  405951    4519   1
   7   6   5   90644    1304   1
   8   6   5  310055    4029   1
   9   6   5    8156     646   1
  10   6   5  676011    9637   1
  11   6   5   19015     826   1
  -4   2 -13  201565    3188  -2
  12   6   5  201565    3188   1
  13   6   5    4293     506   1
  14   6   5   13662     622   1
  15   6   5   32276     889   1
  -1 -21  10   12029    1452  -3
  16   6   5   12029    1452   1
  17   6   5    1270     616   1
  18   6   5  118406    4492   1
  19   6   5    2700     799   1
  20   6   5    1685     787   1
  21   6   5    9785    2846   1
  22   6   5   24961    1187   1
   1   7   5  536096    6018   1
   2   7   5   96290    1440   1
  -2  -6  -6  201918    3532  -2
   1 -11  -1  201918    3532  -3
   3   7   5  201918    3532   1
   4   7   5  124264    1547   1
   5   7   5    8633     442   1
   6   7   5  130808    1683   1
   7   7   5  299256    3574   1
  -3  -2 -10  468507    6144  -2
   8   7   5  468507    6144   1
   9   7   5   86357    4092   1
  10   7   5  501740    7463   1
  11   7   5   26314     905   1
  12   7   5    7317     577   1
  13   7   5   15803     632   1
  -4   3 -15   55754    2195  -2
  -1 -20   8   55754    2195  -3
  14   7   5   55754    2195   1
  15   7   5   24015     865   1
  16   7   5     354     549   1
  17   7   5   59032    1306   1
  18   7   5   34781    1119   1
  19   7   5   16854     938   1
  20   7   5    3233     821   1
  21   7   5     234     874   1
  22   7   5    9839    1017   1
   0   8   5  106129    2542   1
   1 -10  -3    1748     411  -3
   1   8   5    1748     411   1
   2   8   5  880335    9423   1
   3   8   5   13223     473   1
   4   8   5   17745     538   1
  -2  -5  -8   16511    1002  -2
   5   8   5   16511    1002   1
   0 -14   1  498397    5518  -3
   6   8   5  498397    5518   1
   7   8   5  182884    2562   1
   8   8   5   30883     810   1
   9   8   5  285987    4249   1
  -3  -1 -12   74903    1558  -2
  10   8   5   74903    1558   1
  11   8   5   44732    1013   1
  -1 -19   6  228203    3358  -3
  12   8   5  228203    3358   1
  13   8   5   21953     687   1
  14   8   5   54347    1141   1
  15   8   5   16732     693   1
  -4   4 -17    5124     592  -2
  16   8   5    5124     592   1
  17   8   5    7764     663   1
  18   8   5    4079     715   1
  19   8   5    8466     883   1
  20   8   5   20205    1070   1
  21   8   5    1234     848   1
  22   8   5   24347    1304   1
  -1  -9  -5   72285    1088  -2
   1   9   5   72285    1088   1
   2   9   5 1770535   18207   1
   3   9   5   29293     617   1
   4   9   5   43340     787   1
   5   9   5   87590    1254   1
   6   9   5   10253     528   1
  -2  -4 -10   25418    3493  -2
   7   9   5   25418    3493   1
   8   9   5  718711    9635   1
   9   9   5    5277     701   1
  -1 -18   4 1562490   24466  -3
  10   9   5 1562490   24466   1
  11   9   5   28935     798   1
  12   9   5   26728     772   1
  13   9   5    9966     740   1
  14   9   5   82627    1460   1
  15   9   5    9525     605   1
  16   9   5    5357     583   1
  17   9   5    1216     655   1
  -4   5 -19   41478    1552  -2
  18   9   5   41478    1552   1
  19   9   5     458     802   1
  20   9   5   36752    1309   1
  -3 -27  13    1430     862  -3
  21   9   5    1430     862   1
  22   9   5   23863    2077   1
   0  10   5  474242    7112   1
   1  10   5    3654     528   1
   0 -12  -3   20742    1010  -3
   2  10   5   20742    1010   1
  -1  -8  -7    2107     387  -2
   3  10   5    2107     387   1
   4  10   5   51551    1062   1
   5  10   5    9687     496   1
   6  10   5   90481    1501   1
   7  10   5  104936    2869   1
  -1 -17   2   20700     738  -3
   8  10   5   20700     738   1
  -2  -3 -12   90476    1792  -2
   9  10   5   90476    1792   1
  10  10   5  529971    7870   1
  11  10   5   98034    1688   1
  12  10   5    6380     501   1
  -2 -21   6    1395     476  -3
  13  10   5    1395     476   1
  14  10   5     962     498   1
  15  10   5    3136     529   1
  16  10   5   10342     671   1
  17  10   5    1080     672   1
  18  10   5  114964    2306   1
  -3 -26  11    7360     858  -3
  19  10   5    7360     858   1
  -4   6 -21    2983     824  -2
  20  10   5    2983     824   1
  21  10   5     943     861   1
   1  11   5  154984    5213   1
   2  11   5  185393    2150   1
   3  11   5   67555    1002   1
   4  11   5     453     390   1
  -1  -7  -9   42520    3124  -2
   5  11   5   42520    3124   1
  -1  -6 -10   61820    1840  -2
  -1 -16   0   61820    1840  -3
   6  11   5   61820    1840   1
   7  11   5   16204     677   1
   8  11   5   89920    1711   1
   9  11   5   82134    1720   1
  10  11   5  151109    2425   1
  -2  -2 -14   22713     909  -2
  -2 -20   4   22713     909  -3
  11  11   5   22713     909   1
  12  11   5  340069    4586   1
  13  11   5    7344     534   1
  14  11   5   28896     777   1
  15  11   5   28080     788   1
  16  11   5    1997     618   1
  -3 -25   9   10911     743  -3
  17  11   5   10911     743   1
  18  11   5   43751    1216   1
  19  11   5   19841     910   1
  20  11   5   49075    1576   1
  21  11   5    8115     964   1
   0  12   5   25327     809   1
   1  12   5     113     384   1
   0 -10  -7  218474    2480  -2
   2  12   5  218474    2480   1
   3  12   5   14629     942   1
  -1 -15  -2  256748    3263  -3
   4  12   5  256748    3263   1
   5  12   5   10120     577   1
   6  12   5   17488     686   1
  -1  -6 -11   99810    1777  -2
   7  12   5   99810    1777   1
   8  12   5  104879    5361   1
  -2 -19   2    5452     631  -3
   9  12   5    5452     631   1
  10  12   5  270174    3846   1
  11  12   5   23433     680   1
  12  12   5   14932     596   1
  -2  -1 -16   27067     757  -2
  13  12   5   27067     757   1
  14  12   5    3466     541   1
  -3 -24   7    1836     542  -3
  15  12   5    1836     542   1
  16  12   5    8281     647   1
  17  12   5    -282     684   1
  18  12   5   56799    1417   1
  19  12   5    2705     738   1
  20  12   5   23051    1031   1
  21  12   5   12195    1132   1
   1  13   5  127540    1656   1
  -1 -14  -4   20537     587  -3
   2  13   5   20537     587   1
   3  13   5   69908    1172   1
   4  13   5     464     484   1
   5  13   5   11849     626   1
   6  13   5  149575    2400   1
  -2 -18   0   32487    1249  -3
   7  13   5   32487    1249   1
   8  13   5    5639     701   1
   9  13   5   55105    1121   1
  10  13   5   32494     801   1
  11  13   5    7864     534   1
  12  13   5   13359     592   1
  -3 -23   5    8478     683  -3
  13  13   5    8478     683   1
  14  13   5    4431     558   1
  -2   0 -18   50622    2359  -2
  15  13   5   50622    2359   1
  16  13   5   24443    2006   1
  17  13   5   15800     770   1
  18  13   5   13197     983   1
  19  13   5    4047     762   1
  20  13   5   31354    1162   1
  -3   5 -23   12384    1499  -2
  21  13   5   12384    1499   1
   1 -13  -6  588972    9705  -2
  -1 -13  -6  588972    9705  -3
   0  14   5  588972    9705   1
   1  14   5   12878    1736   1
   2  14   5   85160    1382   1
   3  14   5   18470     669   1
   4  14   5   47021    1645   1
  -2 -17  -2   68832    7001  -3
   5  14   5   68832    7001   1
   0  -8 -11  378418    7979  -2
   6  14   5  378418    7979   1
   7  14   5  155334    3288   1
   8  14   5     932     522   1
   9  14   5   32916     830   1
  10  14   5   11039    1158   1
  -3 -22   3   21252     660  -3
  11  14   5   21252     660   1
  12  14   5    6689     594   1
  13  14   5   11726     598   1
  14  14   5    5140     591   1
  15  14   5    5372     616   1
  -4 -26   7   19972    2525  -3
  16  14   5   19972    2525   1
  -2   1 -20   43288    1116  -2
  17  14   5   43288    1116   1
  18  14   5   12507    1473   1
  19  14   5     477     729   1
  20  14   5   19050     966   1
   1  15   5    2011     503   1
   1 -12  -8  127666    1988  -2
   2  15   5  127666    1988   1
   1 -11  -9   50340    5544  -2
  -2 -16  -4   50340    5544  -3
   3  15   5   50340    5544   1
   4  15   5    1271     575   1
   5  15   5   26570     849   1
   6  15   5  167922    2856   1
   7  15   5    7692     599   1
   8  15   5   16672     644   1
  -3 -21   1    7931     694  -3
   9  15   5    7931     694   1
  10  15   5    8742     530   1
  11  15   5    1675     500   1
  12  15   5   16067     634   1
  13  15   5    9871     927   1
  -1  -2 -18    3826     696  -2
  -4 -25   5    3826     696  -3
  14  15   5    3826     696   1
  15  15   5   16282     732   1
  16  15   5     772     613   1
  17  15   5    6019     674   1
  18  15   5   10637     739   1
  -2   2 -22   20960    1520  -2
  19  15   5   20960    1520   1
  -5 -30  10    4458    1000  -3
  20  15   5    4458    1000   1
   0  16   5  214035    5382   1
  -2 -15  -6   29286    1002  -3
   1  16   5   29286    1002   1
   2  16   5  103835    1904   1
   3  16   5  295467    4579   1
   1 -11 -10   73639    1489  -2
   4  16   5   73639    1489   1
   1 -10 -11  620965    9283  -2
   5  16   5  620965    9283   1
   6  16   5   55155    1396   1
  -3 -20  -1  243773    3504  -3
   7  16   5  243773    3504   1
   8  16   5  201502    2845   1
   9  16   5  175633    2541   1
   0  -6 -15   63749    1161  -2
  10  16   5   63749    1161   1
  11  16   5   24944    1320   1
  -4 -24   3   98791    1606  -3
  12  16   5   98791    1606   1
  13  16   5   38380     921   1
  14  16   5   15045     708   1
  15  16   5   45745    1096   1
  -1  -1 -20   11330     768  -2
  16  16   5   11330     768   1
  17  16   5   18758    1535   1
  -5 -29   8    -422     663  -3
  18  16   5    -422     663   1
  19  16   5    1112     699   1
  20  16   5    7944     928   1
   2 -14  -8  567310    8196  -2
   1  17   5  567310    8196   1
   2  17   5   90118    1743   1
   3  17   5  102875    1923   1
   4  17   5   41006    9549   1
  -3 -19  -3  193269    3124  -3
   5  17   5  193269    3124   1
   6  17   5    8568     706   1
   1  -9 -13  511745    6756  -2
   7  17   5  511745    6756   1
   8  17   5   19877     663   1
   9  17   5    4812     514   1
  -4 -23   1   85903    1434  -3
  10  17   5   85903    1434   1
  11  17   5    5268     568   1
  12  17   5   31189     831   1
  13  17   5   41103     973   1
  14  17   5     -39     590   1
  15  17   5   43808    1066   1
  -5 -28   6    4915     667  -3
  16  17   5    4915     667   1
  17  17   5     607     649   1
  -1   0 -22   30637    4407  -2
  18  17   5   30637    4407   1
  19  17   5    1841     694   1
   0  18   5   31770    1403   1
   1  18   5    4685     656   1
  -3 -17  -6   32926    1056  -3
   2  18   5   32926    1056   1
   2 -13 -10  636432    9060  -2
  -3 -18  -5  636432    9060  -3
   3  18   5  636432    9060   1
   4  18   5    5437     781   1
   5  18   5  377512    5389   1
   6  18   5   48779    1054   1
   7  18   5   24034     730   1
  -4 -22  -1   56684    1122  -3
   8  18   5   56684    1122   1
   1  -8 -15   12371     609  -2
   9  18   5   12371     609   1
  10  18   5   40602     899   1
  11  18   5   14347     630   1
  12  18   5   10384     631   1
  13  18   5   17297     709   1
   0  -4 -19    3777     624  -2
  -5 -27   4    3777     624  -3
  14  18   5    3777     624   1
  15  18   5   77890    1524   1
  16  18   5    -359     630   1
  17  18   5   22298     847   1
  18  18   5     -33     668   1
  -6 -31   8    5327     749  -3
  19  18   5    5327     749   1
  -3 -17  -7   48502    1083  -3
   1  19   5   48502    1083   1
   2  19   5   77559    1435   1
   3  19   5   84204    1463   1
   4  19   5   10012     595   1
   2 -12 -12   24066     732  -2
   5  19   5   24066     732   1
  -4 -21  -3    1478     563  -3
   6  19   5    1478     563   1
   7  19   5   38705     934   1
   8  19   5   69995    1299   1
   9  19   5  178442    2633   1
  10  19   5   15500     657   1
   1  -7 -17   14398    1140  -2
  11  19   5   14398    1140   1
  -5 -26   2    4341     611  -3
  12  19   5    4341     611   1
  13  19   5   50125    1114   1
  14  19   5   23902     807   1
  15  19   5   40652    1044   1
  16  19   5    5119     678   1
  -6 -30   6   11203    1026  -3
  17  19   5   11203    1026   1
  18  19   5    3750     699   1
   0  20   5   25112    1233   1
   1  20   5     643     564   1
   3 -15 -10   97648   12093  -2
   2  20   5   97648   12093   1
   3  20   5    4634     564   1
  -4 -20  -5   73782    1786  -3
   4  20   5   73782    1786   1
   5  20   5  122569    1962   1
   6  20   5    1226     549   1
   2 -11 -14    3935     580  -2
   7  20   5    3935     580   1
   8  20   5    4255     576   1
   9  20   5   10072     615   1
  -5 -25   0   23926     814  -3
  10  20   5   23926     814   1
  11  20   5    2964     634   1
  12  20   5    9759     654   1
   1  -6 -19   32084     893  -2
  13  20   5   32084     893   1
  14  20   5   13385     702   1
  -6 -29   4    5490     772  -3
  15  20   5    5490     772   1
  16  20   5    1095     665   1
  17  20   5   10638     740   1
  18  20   5    2040     708   1
   1  21   5  203580    3629   1
  -4 -19  -7   13202     683  -3
   2  21   5   13202     683   1
   3  21   5  120155    1959   1
   3 -14 -12   14981    1251  -2
   4  21   5   14981    1251   1
   5  21   5   10670     621   1
   6  21   5    1430     571   1
  -5 -23  -3  112453    1895  -3
   7  21   5  112453    1895   1
  -5 -24  -2   18544     733  -3
   8  21   5   18544     733   1
   2 -10 -16   13243     666  -2
   9  21   5   13243     666   1
  10  21   5    9201     663   1
  11  21   5    1361     636   1
  12  21   5    8980    1203   1
  -6 -28   2   54910    1198  -3
  13  21   5   54910    1198   1
  14  21   5    8555     676   1
   1  -5 -21   13154     739  -2
  15  21   5   13154     739   1
  16  21   5    1160     668   1
  17  21   5    3515     686   1
   4 -18  -9  211161    4655  -2
  -4 -18  -9  211161    4655  -3
   0  22   5  211161    4655   1
   1  22   5   10953    1246   1
   2  22   5     300     567   1
   3  22   5     594     555   1
   4  22   5    3135     587   1
  -5 -22  -5   70823    1960  -3
   5  22   5   70823    1960   1
   3 -13 -14   10416     677  -2
  -5 -23  -4   10416     677  -3
   6  22   5   10416     677   1
   7  22   5     965     585   1
   8  22   5   47466    1092   1
   9  22   5    5690     664   1
  10  22   5   31089    1149   1
   2  -9 -18    2619     661  -2
  -6 -27   0    2619     661  -3
  11  22   5    2619     661   1
  12  22   5   13080     769   1
  13  22   5    2418     667   1
  14  22   5   23854     865   1
  15  22   5   19078     811   1
  16  22   5    3679     865   1
   1  -4 -23    1163     688  -2
  -7 -32   5    1163     688  -3
  17  22   5    1163     688   1
   1  23   5   24533     811   1
   4 -17 -11     564     601  -2
   2  23   5     564     601   1
  -5 -21  -7   72050    2280  -3
   3  23   5   72050    2280   1
  -5 -22  -6    -555     580  -3
   4  23   5    -555     580   1
   5  23   5    6494     618   1
   6  23   5    1469     595   1
   7  23   5    3953     626   1
   3 -12 -16   34181     929  -2
   8  23   5   34181     929   1
  -6 -26  -2    6408     684  -3
   9  23   5    6408     684   1
  10  23   5     546     666   1
  11  23   5    1226     695   1
  12  23   5   29042     933   1
   2  -8 -20   55227    1281  -2
  13  23   5   55227    1281   1
  14  23   5   55325    1267   1
  -7 -31   3     192     691  -3
  15  23   5     192     691   1
  16  23   5    1124     690   1
   0  24   5  152737    3556   1
  -5 -20  -9   20590    2639  -3
   1  24   5   20590    2639   1
   2  24   5   18634     823   1
   3  24   5    1503     639   1
   4 -16 -13   17145     727  -2
   4  24   5   17145     727   1
   5  24   5    9990     928   1
   6  24   5   22984     877   1
  -6 -25  -4   17304     750  -3
   7  24   5   17304     750   1
   8  24   5  109818    1929   1
   9  24   5    1063     681   1
   3 -11 -18    4695     699  -2
  10  24   5    4695     699   1
  11  24   5    5542     730   1
  12  24   5  249833    3985   1
  -7 -30   1    2950     723  -3
  13  24   5    2950     723   1
  14  24   5    1305     690   1
  15  24   5   11203     789   1
  16  24   5     841     758   1
   5 -19 -11    7582    1293  -2
   1  25   5    7582    1293   1
   2  25   5   48400    1617   1
   3  25   5    1656     671   1
   4  25   5    3755     664   1
  -6 -24  -6   14536     749  -3
   5  25   5   14536     749   1
   4 -15 -15     705     636  -2
   6  25   5     705     636   1
   7  25   5    9851     701   1
   8  25   5    1960     643   1
   9  25   5   15520     812   1
  -7 -28  -2   33747    1021  -3
  10  25   5   33747    1021   1
  -7 -29  -1    4917     749  -3
  11  25   5    4917     749   1
   3 -10 -20  157968    2692  -2
  12  25   5  157968    2692   1
  13  25   5   20227    1062   1
  14  25   5     341     713   1
  15  25   5    4593     773   1
   0  26   5  122386    3251   1
   1  26   5    5954     704   1
   2  26   5   33541    2221   1
   5 -18 -13    8924    1116  -2
  -6 -23  -8    8924    1116  -3
   3  26   5    8924    1116   1
   4  26   5  105281    1985   1
   5  26   5     497     638   1
   6  26   5  274232    4287   1
   7  26   5   40758    1083   1
   4 -14 -17   72812    1571  -2
  -7 -27  -4   72812    1571  -3
   8  26   5   72812    1571   1
  -7 -28  -3    8975    1494  -3
   9  26   5    8975    1494   1
  10  26   5   28185     980   1
  11  26   5     352     716   1
  12  26   5  213778    3546   1
  13  26   5   15267     847   1
   3  -9 -22   30260    1017  -2
  -8 -32   1   30260    1017  -3
  14  26   5   30260    1017   1
  -6 -22 -10   19995     863  -3
   1  27   5   19995     863   1
   2  27   5    5468     754   1
   3  27   5   29092    1028   1
   4  27   5   92544    1958   1
   5 -17 -15   69481    2142  -2
   5  27   5   69481    2142   1
  -7 -26  -6  103634    7423  -3
   6  27   5  103634    7423   1
   7  27   5    2296     697   1
   8  27   5   33739    1077   1
   9  27   5    2506     752   1
   4 -13 -19  164955    2863  -2
  10  27   5  164955    2863   1
  11  27   5   16582    1547   1
  -8 -31  -1   13024     827  -3
  12  27   5   13024     827   1
  13  27   5   22096     984   1
   0  28   5   45538    1802   1
   6 -21 -12      42     694  -2
   1  28   5      42     694   1
   2  28   5   18739    1975   1
   3  28   5    7668     809   1
  -7 -25  -8    3677     754  -3
   4  28   5    3677     754   1
   5  28   5     501     722   1
   6  28   5   44362    1159   1
   5 -16 -17    9188     794  -2
   7  28   5    9188     794   1
   8  28   5  215069    3656   1
   9  28   5     834     742   1
  -8 -30  -3   69449    1630  -3
  10  28   5   69449    1630   1
  11  28   5   13878     890   1
  12  28   5    3516     789   1
  13  28   5    4154    1012   1
   1  29   5   35560    1141   1
  -7 -24 -10   64755   16447  -3
   2  29   5   64755   16447   1
   6 -20 -14    8680     810  -2
   3  29   5    8680     810   1
   4  29   5   14278     891   1
   5  29   5    3481     772   1
   6  29   5   29355    1011   1
   7  29   5    6120     839   1
  -8 -29  -5   35781    1103  -3
   8  29   5   35781    1103   1
   5 -15 -19   25163     972  -2
   9  29   5   25163     972   1
  10  29   5     427     731   1
  11  29   5    4756     791   1
  12  29   5   22370    2277   1
   7 -23 -12   67649    2667  -2
  -7 -23 -12   67649    2667  -3
   0  30   5   67649    2667   1
   1  30   5    1829     776   1
   2  30   5     992     777   1
   3  30   5     491     761   1
   4  30   5    1373     759   1
   6 -19 -16    5310     813  -2
   5  30   5    5310     813   1
  -8 -28  -7    5635     830  -3
   6  30   5    5635     830   1
   7  30   5    -350     752   1
   8  30   5    9660     817   1
   9  30   5    3223     745   1
  10  30   5   58072    1405   1
   1  31   5    2536     788   1
   7 -22 -14    1931     805  -2
   2  31   5    1931     805   1
   3  31   5    7812    1030   1
  -8 -27  -9    1555     774  -3
   4  31   5    1555     774   1
   5  31   5     841     797   1
   6  31   5    7630     919   1
   6 -18 -18    8631     836  -2
   7  31   5    8631     836   1
   8  31   5    8505    1190   1
  -9 -31  -5    8000     817  -3
   9  31   5    8000     817   1
   0  32   5    9293    1229   1
   1  32   5    4571     841   1
  -8 -26 -11    1796     811  -3
   2  32   5    1796     811   1
   3  32   5    1349     797   1
   7 -21 -16     806     814  -2
   4  32   5     806     814   1
   5  32   5   23877    1106   1
   6  32   5   14351     987   1
  -9 -30  -7     255     830  -3
   7  32   5     255     830   1
   1  33   5    5284     929   1
   2  33   5     370     815   1
   3  33   5     679     867   1
   4  33   5    2808     914   1
  -9 -29  -9    8744     966  -3
   5  33   5    8744     966   1
   0  34   5    7009    1366   1
   1  34   5   31997    1409   1
   0   0   6  584106   14160   1
  -5  -4  -2  309610    5494  -2
   1   0   6  309610    5494   1
   2   0   6  784905   12960   1
   3   0   6  405776    6432   1
   4   0   6 6030610  142181   1
   4  -9   3  614439   23582  -3
   5   0   6  614439   23582   1
  -6   0  -6 1912455   33885  -2
   6   0   6 1912455   33885   1
   7   0   6    -487     558   1
   8   0   6   40532    1159   1
   9   0   6  150131    3193   1
  10   0   6    9663    1179   1
  11   0   6   80950    2426   1
  -7   5 -11  424769    8805  -2
  12   0   6  424769    8805   1
  13   0   6   72733    2011   1
  14   0   6   59289    1900   1
  15   0   6    1107     738   1
   2 -18  12   42187    1474  -3
  16   0   6   42187    1474   1
  -8   9 -15   33723    1824  -2
  17   0   6   33723    1824   1
  18   0   6   32450    1346   1
  19   0   6    5667    1095   1
  20   0   6   28083    1578   1
  21   0   6   60355    2369   1
  22   0   6   22087    1470   1
   1   1   6    5089     614   1
   2   1   6    3236     453   1
  -5  -3  -4   89417    1996  -2
   4  -8   1   89417    1996  -3
   3   1   6   89417    1996   1
   4   1   6  474737    5339   1
   5   1   6   46360     828   1
   6   1   6    9779     494   1
   7   1   6   57270     962   1
  -6   1  -8   13899     531  -2
   8   1   6   13899     531   1
   9   1   6   14331     630   1
  10   1   6   72235    2903   1
  11   1   6  433626    6985   1
  12   1   6  107738    1922   1
  13   1   6  313559    4593   1
  -7   6 -13   10185     583  -2
   2 -17  10   10185     583  -3
  14   1   6   10185     583   1
  15   1   6   61129    2814   1
  16   1   6   22380     793   1
  17   1   6    -329     599   1
  18   1   6   97323    1976   1
  19   1   6     679     668   1
  20   1   6   10074     801   1
  21   1   6    6898     810   1
  22   1   6   12531     940   1
   0   2   6  235539    4277   1
   4  -7  -1  267273    3512  -3
   1   2   6  267273    3512   1
   2   2   6  148473    9295   1
   3   2   6  235114    2732   1
   4   2   6   73724    1121   1
  -5  -2  -6   64311    1081  -2
   5   2   6   64311    1081   1
   6   2   6 1634990   17816   1
   7   2   6   13668     518   1
   8   2   6  149123    2301   1
   9   2   6    1912     506   1
  -6   2 -10   95056    1709  -2
  10   2   6   95056    1709   1
  11   2   6   12801     779   1
   2 -16   8  309531    4628  -3
  12   2   6  309531    4628   1
  13   2   6    2954     529   1
  14   2   6   16498     665   1
  15   2   6    1844     546   1
  -7   7 -15   56873    1309  -2
  16   2   6   56873    1309   1
  17   2   6    1431     624   1
  18   2   6  291688    4947   1
  19   2   6   15335    2582   1
  20   2   6   81998    1852   1
  21   2   6    8772     809   1
  22   2   6    8430     837   1
  -4  -6  -3   45133     917  -2
   1   3   6   45133     917   1
   2   3   6   30873     687   1
   3   3   6  117796    1573   1
   4   3   6   10190     927   1
   5   3   6   30746     787   1
   6   3   6  468243    6558   1
  -5  -1  -8    2027     412  -2
   7   3   6    2027     412   1
   8   3   6   36195     813   1
   9   3   6   32930     824   1
   2 -15   6   42289     984  -3
  10   3   6   42289     984   1
  11   3   6  375191    8758   1
  -6   3 -12   89354    1593  -2
  12   3   6   89354    1593   1
  13   3   6   47709    1081   1
  14   3   6   46802    1065   1
  15   3   6    4523     588   1
  16   3   6   68184    1462   1
  17   3   6   10644    1171   1
  -7   8 -17   30231    1011  -2
  18   3   6   30231    1011   1
  19   3   6     769     651   1
  20   3   6  113533    2401   1
   0 -24  15    8542     990  -3
  21   3   6    8542     990   1
  22   3   6    3313     861   1
   0   4   6   43843    1265   1
   1   4   6  361445    4304   1
   3  -9  -1  199537    2500  -3
   2   4   6  199537    2500   1
  -4  -5  -5  297048    3476  -2
   3   4   6  297048    3476   1
   4   4   6  228029    4618   1
   5   4   6   31241     676   1
   6   4   6   60923     971   1
   7   4   6     793     403   1
   2 -14   4   70619    1751  -3
   8   4   6   70619    1751   1
  -5   0 -10   17707    1426  -2
   9   4   6   17707    1426   1
  10   4   6   37341     934   1
  11   4   6   21683     841   1
  12   4   6    8342     535   1
  13   4   6     457     498   1
  -6   4 -14   12595     661  -2
  14   4   6   12595     661   1
  15   4   6    3892     651   1
  16   4   6     643     588   1
  17   4   6    -591     591   1
  18   4   6    -246     617   1
  19   4   6    1877     688   1
  -7   9 -19    9421    1132  -2
  20   4   6    9421    1132   1
  21   4   6   11319     876   1
  22   4   6    3387     820   1
   1   5   6  121558    1904   1
   2   5   6   30261     636   1
   3   5   6   94283    1307   1
   4   5   6   24835    1269   1
  -4  -4  -7    2091     421  -2
   5   5   6    2091     421   1
   2 -13   2    2645     443  -3
   6   5   6    2645     443   1
   7   5   6   56029    1841   1
   8   5   6  237982    3178   1
   9   5   6   91403    1584   1
  10   5   6  108595    1892   1
  -5   1 -12   49981    4960  -2
  11   5   6   49981    4960   1
  12   5   6   82914    1494   1
  13   5   6  192896    2897   1
  14   5   6   16820     681   1
  15   5   6   45546    2528   1
  16   5   6     169     575   1
   0 -22  11   12729     848  -3
  17   5   6   12729     848   1
  18   5   6    6510     701   1
  19   5   6    -657     657   1
  20   5   6    7092     777   1
  21   5   6   58069    1659   1
  -7  10 -21   18630    1465  -2
  22   5   6   18630    1465   1
   0   6   6  278426    5623   1
   1   6   6  246647    2874   1
  -3  -7  -5  125369    1837  -2
   2   6   6  125369    1837   1
   3   6   6  290342    3287   1
   2 -12   0  203064    2443  -3
   4   6   6  203064    2443   1
   5   6   6    9165     455   1
   6   6   6  282506    4455   1
  -4  -3  -9   45189     910  -2
   7   6   6   45189     910   1
   8   6   6   89696    1552   1
   9   6   6  149037    2361   1
  10   6   6   51787    1239   1
  11   6   6  106873    4366   1
  12   6   6    4199     517   1
  -5   2 -14  191227    2870  -2
  13   6   6  191227    2870   1
  14   6   6    2527     552   1
  15   6   6   27377     834   1
  16   6   6    8827     649   1
  17   6   6   14906     743   1
  18   6   6    2788     647   1
  19   6   6    4815     962   1
  20   6   6   50944    1465   1
  21   6   6     480     807   1
  22   6   6     889     796   1
   1   7   6    1607     438   1
   2 -11  -2   35964    1030  -3
   2   7   6   35964    1030   1
   3   7   6  380314    4128   1
  -3  -6  -7    4278     480  -2
   4   7   6    4278     480   1
   5   7   6   57491     953   1
   6   7   6    1014     424   1
   1 -15   2  409507    5480  -3
   7   7   6  409507    5480   1
   8   7   6  231617    3416   1
  -4  -2 -11 1858675   27135  -2
   9   7   6 1858675   27135   1
  -4  -1 -12  112127    2126  -2
  10   7   6  112127    2126   1
  11   7   6   17183     685   1
  12   7   6  114110    1838   1
   0 -20   7  138130    2151  -3
  13   7   6  138130    2151   1
  14   7   6   10814     611   1
  -5   3 -16  106654    2092  -2
  15   7   6  106654    2092   1
  16   7   6    2095     582   1
  17   7   6   17617     781   1
  18   7   6   11564     856   1
  19   7   6    3549     701   1
  20   7   6   23966    1061   1
  21   7   6   11796    1070   1
  22   7   6   30439    1380   1
  -2 -10  -4 1128079   17359  -2
   2 -10  -4 1128079   17359  -3
   0   8   6 1128079   17359   1
   1   8   6  239121    2991   1
   2   8   6  970565   10399   1
   3   8   6  594152    6446   1
   4   8   6  236074    2701   1
   1 -14   0   35756     720  -3
   5   8   6   35756     720   1
  -3  -5  -9   12076    1071  -2
   6   8   6   12076    1071   1
   7   8   6  931689   12080   1
   8   8   6  169758    2624   1
   9   8   6  471476    6883   1
  10   8   6  183142    4745   1
  -4  -1 -13   16303     678  -2
  11   8   6   16303     678   1
  -4   0 -14    3483     644  -2
  12   8   6    3483     644   1
  13   8   6  259015    3655   1
  14   8   6   69884    1352   1
  15   8   6    2085     558   1
  16   8   6    7730     627   1
  -5   4 -18   12250     703  -2
  17   8   6   12250     703   1
  18   8   6    2518     644   1
  19   8   6    -671     671   1
  20   8   6   34728    1280   1
  21   8   6   26103    1174   1
   1   9   6   13874     488   1
  -2  -9  -6   38173     712  -2
   2   9   6   38173     712   1
   1 -13  -2   32597    2875  -3
   3   9   6   32597    2875   1
   4   9   6   25712     615   1
   5   9   6   48224     894   1
   6   9   6  139157    2069   1
   7   9   6  700769    9398   1
  -3  -4 -11   31537     892  -2
   8   9   6   31537     892   1
   0 -18   3   56374    1256  -3
   9   9   6   56374    1256   1
  10   9   6   36194     986   1
  11   9   6   38807     920   1
  12   9   6     961     490   1
  13   9   6     926     503   1
  -4   1 -16    8114     566  -2
  14   9   6    8114     566   1
  15   9   6    3548     600   1
  16   9   6    3761     594   1
  17   9   6    8335     661   1
  18   9   6   31719    1340   1
  -5   5 -20    3595     995  -2
  19   9   6    3595     995   1
  -2 -27  12    1046     816  -3
  20   9   6    1046     816   1
  21   9   6     257     823   1
   0  10   6  200000    3257   1
   1 -12  -4   36997    1680  -3
   1  10   6   36997    1680   1
   2  10   6  178883    2064   1
   3  10   6  144984    1733   1
  -2  -8  -8  158636    2021  -2
   4  10   6  158636    2021   1
  -2  -7  -9  102159    3123  -2
   5  10   6  102159    3123   1
   6  10   6   39055    2368   1
   7  10   6  297611    4177   1
   8  10   6   71252    1456   1
   9  10   6   39367    1093   1
  -3  -3 -13   51112    1105  -2
  10  10   6   51112    1105   1
  11  10   6    2333     507   1
  -1 -21   5   66970    2704  -3
  12  10   6   66970    2704   1
  13  10   6  285492    3965   1
  14  10   6   12789     609   1
  15  10   6   38586     949   1
  -4   2 -18   12058    1492  -2
  16  10   6   12058    1492   1
  17  10   6    8606     680   1
  -2 -26  10   21017     909  -3
  18  10   6   21017     909   1
  19  10   6    7214     865   1
  20  10   6    1440     821   1
  -5   6 -22   11718    1721  -2
  21  10   6   11718    1721   1
  -1 -11  -6  174427    2683  -2
   1  11   6  174427    2683   1
   2  11   6    1075     401   1
   3  11   6      33     409   1
   4  11   6   38028     829   1
   0 -16  -1   16475    1275  -3
   5  11   6   16475    1275   1
  -2  -7 -10  146896    2266  -2
   6  11   6  146896    2266   1
  -2  -6 -11   12759     662  -2
   7  11   6   12759     662   1
   8  11   6  292659    4388   1
   9  11   6   22052     807   1
  -1 -20   3   30121     761  -3
  10  11   6   30121     761   1
  11  11   6    5668     503   1
  -3  -2 -15     991     473  -2
  12  11   6     991     473   1
  13  11   6  184908    2656   1
  14  11   6   39189     921   1
  15  11   6   68053    1327   1
  -2 -25   8   10633     910  -3
  16  11   6   10633     910   1
  17  11   6   29228     951   1
  -4   3 -20   19950    1871  -2
  18  11   6   19950    1871   1
  19  11   6    3373     732   1
  20  11   6   13892     924   1
  21  11   6    6401     913   1
   0  12   6    -305     590   1
   1  12   6  168865    2065   1
   2  12   6   17575    1326   1
  -1 -10  -8   28312     900  -2
   3  12   6   28312     900   1
   4  12   6  217860    2964   1
   5  12   6    1044     537   1
   6  12   6    3205     580   1
   7  12   6   41962    1025   1
  -2  -6 -12  146142    2984  -2
  -1 -19   1  146142    2984  -3
   8  12   6  146142    2984   1
  -2  -5 -13  141907    7755  -2
   9  12   6  141907    7755   1
  10  12   6    9281     525   1
  11  12   6    7309     524   1
  12  12   6    4236     522   1
  13  12   6   12203     672   1
  -3  -1 -17   37832     936  -2
  -2 -24   6   37832     936  -3
  14  12   6   37832     936   1
  15  12   6    2921     561   1
  16  12   6     416     582   1
  17  12   6    7344     734   1
  18  12   6    8204     766   1
  19  12   6   10198    1641   1
  -4   4 -22    3372     815  -2
  20  12   6    3372     815   1
  21  12   6   12416    1103   1
   0 -14  -5  207219    2870  -3
   1  13   6  207219    2870   1
   2  13   6     683     472   1
   3  13   6  262682    3577   1
   4  13   6  109471    1796   1
  -1  -9 -10  232910    3471  -2
   5  13   6  232910    3471   1
  -1 -18  -1  177562   39566  -3
   6  13   6  177562   39566   1
   7  13   6  475810    7157   1
   8  13   6  626231    8754   1
   9  13   6  317328    4378   1
  10  13   6   12456     566   1
  -2  -4 -15  213412    3002  -2
  11  13   6  213412    3002   1
  -2 -23   4    3652     553  -3
  12  13   6    3652     553   1
  13  13   6  100870    1700   1
  14  13   6   51072    1089   1
  15  13   6   46018    1213   1
  16  13   6    -419     570   1
  -3 -27   8    6297    1246  -3
  17  13   6    6297    1246   1
  18  13   6    1540     718   1
  19  13   6    1189     742   1
  20  13   6   46504    1326   1
   0  14   6   39890    1168   1
   1  14   6  131830    1919   1
   0 -12  -8   89099    3310  -2
   2  14   6   89099    3310   1
   3  14   6  106701    1801   1
  -1 -17  -3  381864    7104  -3
   4  14   6  381864    7104   1
   5  14   6    5916    1655   1
   6  14   6   94424    2588   1
  -1  -8 -12  302527    6200  -2
   7  14   6  302527    6200   1
   8  14   6   20600     649   1
   9  14   6    1188     497   1
  -2 -22   2   56542    1056  -3
  10  14   6   56542    1056   1
  11  14   6    9747     570   1
  12  14   6  135721    2095   1
  -2  -3 -17   39674    1647  -2
  13  14   6   39674    1647   1
  14  14   6    9276     606   1
  -3 -26   6   28791    2291  -3
  15  14   6   28791    2291   1
  16  14   6   25993    1048   1
  17  14   6   14024    1185   1
  -3   1 -21    8429     794  -2
  18  14   6    8429     794   1
  19  14   6    1165     735   1
  20  14   6   41507    1281   1
   1  15   6   16717     681   1
  -1 -16  -5   50498    1128  -3
   2  15   6   50498    1128   1
   0 -12  -9  200662    6603  -2
   3  15   6  200662    6603   1
   4  15   6  448237    6685   1
   5  15   6   17269     832   1
   6  15   6     612     609   1
   7  15   6   38908    1125   1
  -2 -21   0  174081    2602  -3
   8  15   6  174081    2602   1
  -1  -7 -14   33466    2110  -2
   9  15   6   33466    2110   1
  10  15   6  134993    2026   1
  11  15   6   18511     662   1
  12  15   6   64638    1229   1
  -3 -25   4   31343    3035  -3
  13  15   6   31343    3035   1
  14  15   6   12966     848   1
  -2  -2 -19   22194     814  -2
  15  15   6   22194     814   1
  16  15   6   12869     737   1
  17  15   6   15326     759   1
  18  15   6     274     701   1
  -4 -30   9    8693    1375  -3
  19  15   6    8693    1375   1
  -3   2 -23   24256    1046  -2
  20  15   6   24256    1046   1
   1 -15  -7  380228    8144  -2
  -1 -15  -7  380228    8144  -3
   0  16   6  380228    8144   1
   1  16   6   14705     703   1
   2  16   6  328590    5054   1
   3  16   6   54311    1250   1
   4  16   6  533200    8549   1
   5  16   6     660     587   1
   0 -10 -12  160279    2493  -2
  -2 -20  -2  160279    2493  -3
   6  16   6  160279    2493   1
   7  16   6   35049     837   1
   8  16   6   12778     589   1
   9  16   6   49817     987   1
  10  16   6    2266     513   1
  -1  -6 -16   46887    1369  -2
  -3 -24   2   46887    1369  -3
  11  16   6   46887    1369   1
  12  16   6   38645     921   1
  13  16   6   59112    1217   1
  14  16   6    3186     582   1
  15  16   6   28947     882   1
  16  16   6   23275     839   1
  -2  -1 -21    2026     651  -2
  -4 -29   7    2026     651  -3
  17  16   6    2026     651   1
  18  16   6   34757    1191   1
  19  16   6     306     737   1
   1  17   6   67812    1453   1
   1 -14  -9  124956    4838  -2
   2  17   6  124956    4838   1
  -2 -18  -5   29431     966  -3
   3  17   6   29431     966   1
  -2 -19  -4   26545     833  -3
   4  17   6   26545     833   1
   5  17   6   51800    1962   1
   6  17   6  360386    5045   1
   7  17   6   73853    1359   1
   8  17   6  336966    4566   1
  -3 -23   0  112003    1778  -3
   9  17   6  112003    1778   1
  10  17   6  462985    6304   1
  11  17   6   43742     978   1
  12  17   6   39271     930   1
  -1  -5 -18    1170     566  -2
  13  17   6    1170     566   1
  14  17   6   18072     764   1
  -4 -28   5    4686     648  -3
  15  17   6    4686     648   1
  16  17   6    2105     709   1
  17  17   6    1168     655   1
  18  17   6    3395     715   1
  19  17   6    1809     743   1
   0  18   6   16838    1005   1
  -2 -17  -7   13820     679  -3
   1  18   6   13820     679   1
  -2 -18  -6   71219    1319  -3
   2  18   6   71219    1319   1
   3  18   6   15330    1719   1
   1 -13 -11  299317    4240  -2
   4  18   6  299317    4240   1
   5  18   6   23263     761   1
   6  18   6  248452    3635   1
  -3 -22  -2   23468     736  -3
   7  18   6   23468     736   1
   8  18   6   60033    1198   1
   9  18   6    9592     599   1
   0  -8 -16   27751     790  -2
  10  18   6   27751     790   1
  11  18   6   50837    1057   1
  12  18   6  190033    2746   1
  -4 -27   3    1472     608  -3
  13  18   6    1472     608   1
  14  18   6   41691    1044   1
  -1  -4 -20    3525     654  -2
  15  18   6    3525     654   1
  16  18   6   14736     767   1
  17  18   6   13636     764   1
  -5 -31   7   48747    1212  -3
  18  18   6   48747    1212   1
  19  18   6    1926     802   1
   2 -16  -9  110867    3216  -2
   1  19   6  110867    3216   1
   2  19   6    -225     537   1
   3  19   6    1676     553   1
   4  19   6    2624     555   1
  -3 -21  -4   33817    1186  -3
   5  19   6   33817    1186   1
   1 -12 -13   12334     644  -2
   6  19   6   12334     644   1
   7  19   6   54478    1148   1
   8  19   6   89778    1586   1
   9  19   6  131234    2060   1
  10  19   6   69847    1338   1
  -4 -26   1   11098     645  -3
  11  19   6   11098     645   1
  12  19   6   50194    1391   1
  13  19   6    7970     665   1
  14  19   6    3311     653   1
  15  19   6   12500     728   1
  -5 -30   5   21203    1367  -3
  16  19   6   21203    1367   1
  -1  -3 -22    -194     659  -2
  17  19   6    -194     659   1
  18  19   6   72079    1517   1
   0  20   6   62642    1863   1
   1  20   6   26396     804   1
   2  20   6   39910     997   1
   2 -15 -11   11712     627  -2
  -3 -20  -6   11712     627  -3
   3  20   6   11712     627   1
   4  20   6    8437     588   1
   5  20   6    6050     603   1
   6  20   6    6238     609   1
   7  20   6   16592     701   1
   1 -11 -15  215863    3248  -2
  -4 -24  -2  215863    3248  -3
   8  20   6  215863    3248   1
  -4 -25  -1    7112     640  -3
   9  20   6    7112     640   1
  10  20   6  194479    2907   1
  11  20   6   15503     706   1
  12  20   6     757     617   1
  13  20   6   13958     703   1
   0  -6 -20   18125    1683  -2
  -5 -29   3   18125    1683  -3
  14  20   6   18125    1683   1
  15  20   6    9429     715   1
  16  20   6   10010     739   1
  17  20   6     560     680   1
  18  20   6   31992    1029   1
  -3 -19  -8   12426     676  -3
   1  21   6   12426     676   1
   2  21   6    -568     568   1
   3  21   6   62292    1234   1
   4  21   6    9472     618   1
   2 -14 -13   45369    5211  -2
   5  21   6   45369    5211   1
  -4 -23  -4   91633    1673  -3
   6  21   6   91633    1673   1
  -4 -24  -3    3452     596  -3
   7  21   6    3452     596   1
   8  21   6   63848    1305   1
   9  21   6   32588     907   1
   1 -10 -17     296     618  -2
  10  21   6     296     618   1
  11  21   6    5259     910   1
  -5 -28   1   14212     744  -3
  12  21   6   14212     744   1
  13  21   6    3199     673   1
  14  21   6    1100     663   1
  15  21   6    6836     704   1
  16  21   6   30812     971   1
  17  21   6    7789     745   1
   0  22   6   71525    2005   1
   3 -18 -10   23429    1574  -2
   1  22   6   23429    1574   1
   2  22   6   92883    1894   1
   3  22   6   11338     699   1
  -4 -22  -6   88172    2242  -3
   4  22   6   88172    2242   1
  -4 -23  -5    5308     641  -3
   5  22   6    5308     641   1
   6  22   6    6419     914   1
   2 -13 -15   15163     980  -2
   7  22   6   15163     980   1
   8  22   6   64107    1316   1
   9  22   6    6346     837   1
  -5 -27  -1   47674    1136  -3
  10  22   6   47674    1136   1
  11  22   6   94271    1819   1
   1  -9 -19   12410     784  -2
  12  22   6   12410     784   1
  13  22   6   73854    1513   1
  14  22   6   10346     748   1
  15  22   6   19792     866   1
  -6 -32   4    8407     766  -3
  16  22   6    8407     766   1
  17  22   6    2776     807   1
   1  23   6     426     610   1
  -4 -21  -8    2039     651  -3
   2  23   6    2039     651   1
   3 -17 -12     386     615  -2
   3  23   6     386     615   1
   4  23   6   19729    1390   1
   5  23   6     349     589   1
   6  23   6   86737    1653   1
   7  23   6   43735    1080   1
  -5 -26  -3   77591    1525  -3
   8  23   6   77591    1525   1
   2 -12 -17   96547    1731  -2
   9  23   6   96547    1731   1
  10  23   6     918     643   1
  11  23   6   59952    1368   1
  12  23   6    4093     723   1
  13  23   6  102548    2238   1
  -6 -31   2    3011     737  -3
  14  23   6    3011     737   1
  15  23   6   36296    1144   1
  16  23   6    6296     828   1
   4 -20 -10   12969     995  -2
  -4 -20 -10   12969     995  -3
   0  24   6   12969     995   1
   1  24   6    1088     632   1
   2  24   6    1361     670   1
   3  24   6    1515     749   1
   4  24   6   38847    1073   1
   3 -16 -14    3765     624  -2
   5  24   6    3765     624   1
  -5 -25  -5    4788     633  -3
   6  24   6    4788     633   1
   7  24   6   30213     929   1
   8  24   6    1413     662   1
   9  24   6   88029    1667   1
  10  24   6   94792    1951   1
   2 -11 -19   59431    1371  -2
  -6 -29  -1   59431    1371  -3
  11  24   6   59431    1371   1
  -6 -30   0    6681     745  -3
  12  24   6    6681     745   1
  13  24   6   17615     878   1
  14  24   6   13193     859   1
  15  24   6    5982     832   1
   1  25   6   20240     841   1
   4 -19 -12     814     695  -2
   2  25   6     814     695   1
   3  25   6   20511     888   1
  -5 -24  -7    2807     687  -3
   4  25   6    2807     687   1
   5  25   6    1329     680   1
   6  25   6   13148     731   1
   3 -15 -16  104369    1871  -2
   7  25   6  104369    1871   1
   8  25   6    5588     695   1
  -6 -28  -3  135001    2320  -3
   9  25   6  135001    2320   1
  -6 -29  -2    5792     751  -3
  10  25   6    5792     751   1
  11  25   6  101726    1978   1
  12  25   6    2263     734   1
   2 -10 -21    7977     791  -2
  13  25   6    7977     791   1
  14  25   6    1121     753   1
  -7 -33   2   33324    1299  -3
  15  25   6   33324    1299   1
   0  26   6   76795    2162   1
   1  26   6   63898    1529   1
  -5 -23  -9   36589    1119  -3
   2  26   6   36589    1119   1
   3  26   6   99572    2775   1
   4 -18 -14   25462    4238  -2
   4  26   6   25462    4238   1
   5  26   6   70508    1594   1
   6  26   6    4384     672   1
  -6 -27  -5  160692    2640  -3
   7  26   6  160692    2640   1
   8  26   6    3058     675   1
   3 -14 -18  145917    3046  -2
   9  26   6  145917    3046   1
  10  26   6     480     728   1
  11  26   6   69875    1600   1
  12  26   6    4746     776   1
  -7 -32   0   38838    1143  -3
  13  26   6   38838    1143   1
  14  26   6    3013     745   1
   1  27   6  114536    2280   1
   2  27   6    1128     717   1
   3  27   6   19878     918   1
   4  27   6   22956     973   1
  -6 -26  -7    4305     835  -3
   5  27   6    4305     835   1
   4 -17 -16    3704     707  -2
   6  27   6    3704     707   1
   7  27   6  178061    2900   1
   8  27   6    1919     687   1
   9  27   6   93956    1868   1
  10  27   6   10837     803   1
  -7 -31  -2    3534     751  -3
  11  27   6    3534     751   1
  12  27   6    1333     726   1
  13  27   6   35645    1092   1
   0  28   6    2538    1054   1
   1  28   6    9642    1054   1
   5 -21 -13   18877     904  -2
   2  28   6   18877     904   1
  -6 -25  -9    8500     793  -3
   3  28   6    8500     793   1
   4  28   6   12574     863   1
   5  28   6    4945     759   1
   6  28   6   62918    1500   1
   7  28   6  113601    2158   1
   4 -16 -18   29097    1551  -2
   8  28   6   29097    1551   1
  -7 -30  -4   24272     938  -3
   9  28   6   24272     938   1
  10  28   6   11378    1223   1
  11  28   6    7700     787   1
  12  28   6   20159     914   1
  -6 -24 -11   12870     877  -3
   1  29   6   12870     877   1
   2  29   6   19001     920   1
   3  29   6     288     739   1
   5 -20 -15   40901    1243  -2
   4  29   6   40901    1243   1
   5  29   6   20660    1436   1
   6  29   6    2445     755   1
  -7 -29  -6    5888     774  -3
   7  29   6    5888     774   1
   8  29   6   10236     971   1
   9  29   6   24523     980   1
   4 -15 -20   10582     833  -2
  10  29   6   10582     833   1
  11  29   6  114563    2249   1
   0  30   6    2418    1207   1
   6 -23 -13    4587    1114  -2
   1  30   6    4587    1114   1
   2  30   6    1022     759   1
   3  30   6    4034     795   1
   4  30   6    9804     840   1
  -7 -28  -8    5397     807  -3
   5  30   6    5397     807   1
   5 -19 -17   22934    1021  -2
   6  30   6   22934    1021   1
   7  30   6   10259     895   1
   8  30   6    1129     784   1
   9  30   6    7170     819   1
  -8 -32  -4    4333     799  -3
  10  30   6    4333     799   1
   1  31   6   10297     920   1
   2  31   6   16966     967   1
   6 -22 -15    9902    1011  -2
  -7 -27 -10    9902    1011  -3
   3  31   6    9902    1011   1
   4  31   6   11763     867   1
   5  31   6    6393     819   1
   6  31   6    -121     789   1
   7  31   6   10314     912   1
  -8 -31  -6    5054     881  -3
   8  31   6    5054     881   1
   0  32   6   34430    1869   1
  -7 -26 -12    1479     824  -3
   1  32   6    1479     824   1
   2  32   6   11735     924   1
   3  32   6    8501     890   1
   4  32   6    1182     780   1
   6 -21 -17   12979     919  -2
   5  32   6   12979     919   1
  -8 -30  -8   19850    1587  -3
   6  32   6   19850    1587   1
   7  32   6    1825     958   1
   7 -25 -14   20621    1059  -2
   1  33   6   20621    1059   1
   2  33   6    -123     842   1
   3  33   6   19589    1152   1
  -8 -29 -10     488     850  -3
   4  33   6     488     850   1
   1   1   7 4245239   54781   1
   5  -8   0   88277   17094  -3
   2   1   7   88277   17094   1
   3   1   7    2413     398   1
  -6  -3  -5    9974     887  -2
   4   1   7    9974     887   1
   5   1   7  697855   14439   1
   6   1   7   57502    2985   1
   7   1   7  316254    3825   1
   8   1   7     898     501   1
  -7   1  -9 1162903   17525  -2
   9   1   7 1162903   17525   1
  10   1   7   27666     983   1
  11   1   7  107962    2049   1
  12   1   7   23886     778   1
   3 -17   9   89689    7150  -3
  13   1   7   89689    7150   1
  14   1   7   24133     736   1
  -8   6 -14   19336    2786  -2
  15   1   7   19336    2786   1
  16   1   7    4001     615   1
  17   1   7  156058    2800   1
  18   1   7    2955     651   1
  19   1   7   16591     851   1
  20   1   7   16906     960   1
  21   1   7      94     731   1
  22   1   7    9032    1705   1
  -5  -7  -2   16398    3026  -2
   5  -7  -2   16398    3026  -3
   0   2   7   16398    3026   1
   1   2   7    4665     460   1
   2   2   7   36577     688   1
   3   2   7   64888    9819   1
   4   2   7   37786     746   1
   5   2   7  258679    2962   1
  -6  -2  -7    3753     454  -2
   6   2   7    3753     454   1
   7   2   7   21486     614   1
   8   2   7   74314    1374   1
   9   2   7  585114    8757   1
  10   2   7    5089     656   1
  -7   2 -11    4394     621  -2
   3 -16   7    4394     621  -3
  11   2   7    4394     621   1
  -7   3 -12   58779    1239  -2
  12   2   7   58779    1239   1
  13   2   7    3628     578   1
  14   2   7   12575     638   1
  15   2   7    1919     558   1
  16   2   7   16665     790   1
  -8   7 -16   46414    1209  -2
  17   2   7   46414    1209   1
  18   2   7   27068     960   1
  19   2   7   32471    1063   1
  20   2   7    4316    1044   1
  21   2   7    9362     816   1
   1 -25  16    5525     818  -3
  22   2   7    5525     818   1
   1   3   7   12262     491   1
  -5  -6  -4  198418    2316  -2
   2   3   7  198418    2316   1
   4 -10   0   21737    1003  -3
   3   3   7   21737    1003   1
   4   3   7   34410    1234   1
   5   3   7  263192    3075   1
   6   3   7    3315     428   1
   7   3   7  233392    3560   1
  -6  -1  -9   34405    1047  -2
   8   3   7   34405    1047   1
   3 -15   5    8767     658  -3
   9   3   7    8767     658   1
  10   3   7   11605    1432   1
  11   3   7    9833     605   1
  12   3   7   27561    2506   1
  -7   3 -13    8042     578  -2
  13   3   7    8042     578   1
  -7   4 -14    7679     965  -2
  14   3   7    7679     965   1
  15   3   7   16526    1047   1
  16   3   7    3676     615   1
  17   3   7    3676     668   1
  18   3   7    4879     761   1
  -8   8 -18   38107    1354  -2
  19   3   7   38107    1354   1
   1 -24  14   11719    1123  -3
  20   3   7   11719    1123   1
  21   3   7    5395     774   1
  22   3   7    1167     745   1
   0   4   7    8878     634   1
   4  -9  -2   45305    1359  -3
   1   4   7   45305    1359   1
   2   4   7   60273     947   1
   3   4   7    8383     468   1
  -5  -5  -6   48902     836  -2
   4   4   7   48902     836   1
   5   4   7   73314    1125   1
   6   4   7   21011     896   1
   3 -14   3  111062    1688  -3
   7   4   7  111062    1688   1
   8   4   7  167222    2460   1
   9   4   7   12158     785   1
  10   4   7   84062    2641   1
  11   4   7  104224    1805   1
  12   4   7    5189     519   1
  13   4   7   81695    1552   1
  14   4   7  102113    1901   1
  -7   4 -15    5335     620  -2
  15   4   7    5335     620   1
  -7   5 -16   38168    1023  -2
  16   4   7   38168    1023   1
  17   4   7  152674    2746   1
   1 -23  12      61     637  -3
  18   4   7      61     637   1
  19   4   7   18914     869   1
  20   4   7   29613    1066   1
  -8   9 -20     696     706  -2
  21   4   7     696     706   1
  22   4   7    2236     782   1
  -4  -8  -4  363227    6383  -2
   1   5   7  363227    6383   1
   2   5   7  543942    5721   1
   3   5   7   10153     698   1
   4   5   7   83885    1241   1
   3 -13   1   30846     689  -3
   5   5   7   30846     689   1
  -5  -4  -8   13831     541  -2
   6   5   7   13831     541   1
   7   5   7   39678     941   1
   8   5   7   77795    1710   1
   9   5   7   74070    1483   1
  10   5   7   46165    1733   1
  11   5   7   31003     836   1
  -6   1 -13   31829     808  -2
  12   5   7   31829     808   1
  13   5   7    2580     543   1
  14   5   7   49868   15934   1
  15   5   7    5034     607   1
   1 -22  10   36731    1011  -3
  16   5   7   36731    1011   1
  17   5   7   43551    1115   1
  -7   6 -18   20633    1109  -2
  18   5   7   20633    1109   1
  19   5   7    5324     716   1
  20   5   7    1154     693   1
  21   5   7    3074     768   1
  22   5   7     140     840   1
   0   6   7  123464    2179   1
   1   6   7    4538     458   1
   2   6   7   11115     510   1
  -4  -7  -6   18695     565  -2
   3 -12  -1   18695     565  -3
   3   6   7   18695     565   1
   4   6   7   10119     477   1
   5   6   7   16175    1215   1
   6   6   7   41953    1122   1
   7   6   7    -209     524   1
  -5  -3 -10   15971    1535  -2
   2 -16   3   15971    1535  -3
   8   6   7   15971    1535   1
  -5  -2 -11   39480    1043  -2
   9   6   7   39480    1043   1
  10   6   7   21878     967   1
  11   6   7   33920     894   1
  12   6   7   17368    1019   1
  13   6   7     106     512   1
  -6   2 -15   24538     792  -2
   1 -21   8   24538     792  -3
  14   6   7   24538     792   1
  15   6   7   28679     855   1
  16   6   7   49280    1846   1
  17   6   7   21085     823   1
  18   6   7   72031    1618   1
  19   6   7     494     672   1
  -7   7 -20    3127     751  -2
  20   6   7    3127     751   1
  21   6   7   11388     845   1
   3 -11  -3    5183     519  -3
   1   7   7    5183     519   1
   2   7   7  846482    8679   1
   3   7   7   39347     725   1
   4   7   7   28693     633   1
  -4  -6  -8   21437    1197  -2
   5   7   7   21437    1197   1
   2 -15   1   92580    1498  -3
   6   7   7   92580    1498   1
   7   7   7  292693    5803   1
   8   7   7   58608    1266   1
   9   7   7    9566     715   1
  -5  -2 -12  196943    4953  -2
  10   7   7  196943    4953   1
  -5  -1 -13   53786    1207  -2
  11   7   7   53786    1207   1
   1 -20   6   33698     839  -3
  12   7   7   33698     839   1
  13   7   7    7416     579   1
  14   7   7   24821     791   1
  15   7   7    5774     672   1
  -6   3 -17   11079     988  -2
  16   7   7   11079     988   1
  17   7   7   26602     901   1
  18   7   7   57389    1352   1
  19   7   7    3115     701   1
  20   7   7     257     673   1
  21   7   7    7528    1824   1
   0   8   7  495391    7256   1
  -3 -10  -5     299     383  -2
   1   8   7     299     383   1
   2   8   7   67465    1414   1
   3   8   7   12672     668   1
   2 -14  -1   40797    2876  -3
   4   8   7   40797    2876   1
   5   8   7   28533     725   1
   6   8   7   34054     851   1
  -4  -5 -10   76519    1480  -2
   7   8   7   76519    1480   1
   8   8   7  192820    5275   1
   9   8   7  102435    2154   1
   1 -19   4  236292    3492  -3
  10   8   7  236292    3492   1
  11   8   7   16206     624   1
  12   8   7   22793     713   1
  13   8   7   56716    1159   1
  14   8   7   51514    1154   1
  15   8   7    6669     618   1
  16   8   7    3406     602   1
  17   8   7    7132     680   1
  -6   4 -19   74475    1724  -2
  18   8   7   74475    1724   1
  19   8   7   12135     794   1
  20   8   7    7729    1016   1
  -1 -28  13    5624     927  -3
  21   8   7    5624     927   1
   1   9   7   88497    1211   1
   2 -13  -3  423478    4438  -3
   2   9   7  423478    4438   1
  -3  -9  -7   87617    1262  -2
   3   9   7   87617    1262   1
  -3  -8  -8  136473    2414  -2
   4   9   7  136473    2414   1
   5   9   7  331247    4342   1
   6   9   7   87476    1561   1
   7   9   7    3978     738   1
   1 -18   2   50919    1208  -3
   8   9   7   50919    1208   1
  -4  -4 -12    6880     887  -2
   9   9   7    6880     887   1
  10   9   7  358632    4918   1
  11   9   7   24603     765   1
  12   9   7   21793     721   1
   0 -22   6   29151    1582  -3
  13   9   7   29151    1582   1
  14   9   7   60850    1271   1
  -5   1 -17   29768    1418  -2
  15   9   7   29768    1418   1
  16   9   7   19145     794   1
  17   9   7    3714     797   1
  18   9   7   51669    1263   1
  -1 -27  11    9854     750  -3
  19   9   7    9854     750   1
  -6   5 -21   11516     911  -2
  20   9   7   11516     911   1
  21   9   7    1526     840   1
  -2 -12  -5  169502    3854  -2
   2 -12  -5  169502    3854  -3
   0  10   7  169502    3854   1
   1  10   7     544     398   1
   2  10   7     240     407   1
   3  10   7    7775     493   1
   4  10   7    1419     492   1
  -3  -8  -9  167582    4990  -2
   5  10   7  167582    4990   1
  -3  -7 -10  139461    2246  -2
   1 -17   0  139461    2246  -3
   6  10   7  139461    2246   1
   7  10   7   65501    1435   1
   8  10   7  269733    5362   1
   9  10   7    7849     806   1
  10  10   7  268542    3762   1
  -4  -3 -14  168710    2439  -2
  11  10   7  168710    2439   1
  12  10   7   12396     587   1
  13  10   7   19401     681   1
  14  10   7    8322     624   1
  15  10   7    8719     752   1
  16  10   7   61201    1322   1
  -5   2 -19   21679     798  -2
  -1 -26   9   21679     798  -3
  17  10   7   21679     798   1
  18  10   7   23686     869   1
  19  10   7   21870     911   1
  20  10   7     781     767   1
  21  10   7    -337     797   1
   1  11   7   54703     942   1
  -2 -11  -7  154815    3296  -2
   2  11   7  154815    3296   1
   3  11   7   41687     912   1
   1 -16  -2    9264     605  -3
   4  11   7    9264     605   1
   5  11   7  169166    2623   1
   6  11   7   45084    1052   1
  -3  -7 -11   12467     907  -2
   7  11   7   12467     907   1
  -3  -6 -12   70845    2038  -2
   8  11   7   70845    2038   1
   0 -20   2   47482    3409  -3
   9  11   7   47482    3409   1
  10  11   7   98753    1652   1
  11  11   7    5257     507   1
  12  11   7   49171    1008   1
  -4  -2 -16   39011    1629  -2
  13  11   7   39011    1629   1
  14  11   7     776     538   1
  -1 -25   7    8805     624  -3
  15  11   7    8805     624   1
  16  11   7   75385    1564   1
  17  11   7     256     627   1
  18  11   7   32709    1013   1
  -5   3 -21   43749    1306  -2
  19  11   7   43749    1306   1
  20  11   7    4291     818   1
  21  11   7     -18     958   1
   0  12   7   73356    1795   1
   1  12   7    5767     856   1
   1 -15  -4  125873    1875  -3
   2  12   7  125873    1875   1
   3  12   7   15045     660   1
  -2 -10  -9   69447    3531  -2
   4  12   7   69447    3531   1
   5  12   7   11459     678   1
   6  12   7  113155    3003   1
   7  12   7   53741    1222   1
   8  12   7  143614    2237   1
   9  12   7   70529    1290   1
  -3  -5 -14   37840     866  -2
  10  12   7   37840     866   1
  11  12   7   19667     640   1
  12  12   7   15030     960   1
  -1 -24   5    -493     493  -3
  13  12   7    -493     493   1
  14  12   7   78786    1451   1
  -4  -1 -18    2960     612  -2
  15  12   7    2960     612   1
  16  12   7   20374    1510   1
  17  12   7    1176     641   1
  -2 -28   9   15424    1321  -3
  18  12   7   15424    1321   1
  19  12   7     515     714   1
  20  12   7   11403     887   1
  -1 -13  -7   11790     608  -2
   1  13   7   11790     608   1
   2  13   7   45397    1032   1
   3  13   7   77151    3110   1
   4  13   7     794     594   1
   0 -18  -2  383607   24838  -3
   5  13   7  383607   24838   1
  -2  -9 -11  135802   13580  -2
   6  13   7  135802   13580   1
   7  13   7   59149    1220   1
   8  13   7   11608    1400   1
   9  13   7   93103    1513   1
  10  13   7    1615     473   1
  -1 -23   3   16011     823  -3
  11  13   7   16011     823   1
  -3  -4 -16    2268     583  -2
  12  13   7    2268     583   1
  13  13   7     199     530   1
  14  13   7   39681    1046   1
  15  13   7     360     594   1
  -2 -27   7   74290    2142  -3
  16  13   7   74290    2142   1
  -4   0 -20  105260    3502  -2
  17  13   7  105260    3502   1
  18  13   7     697     717   1
  19  13   7    3727    1051   1
  20  13   7    2704     797   1
   0  14   7  295037    5775   1
   1  14   7   80621    4319   1
  -1 -13  -8   92076    1706  -2
   2  14   7   92076    1706   1
  -1 -12  -9   10027     888  -2
   3  14   7   10027     888   1
   4  14   7  170321    2874   1
   5  14   7  109010    2004   1
   6  14   7   69845    1402   1
   7  14   7   30765     818   1
  -2  -8 -13   32129     787  -2
   8  14   7   32129     787   1
  -1 -22   1   44112     945  -3
   9  14   7   44112     945   1
  10  14   7   64306    1190   1
  11  14   7  104296    1697   1
  12  14   7   50113    2141   1
  13  14   7    1858     554   1
  -3  -3 -18   75447    1407  -2
  -2 -26   5   75447    1407  -3
  14  14   7   75447    1407   1
  15  14   7   35097     921   1
  16  14   7    8621     681   1
  17  14   7    4983     736   1
  18  14   7     -76     737   1
  -4   1 -22    7468     800  -2
  19  14   7    7468     800   1
  -3 -31  10    3889     798  -3
  20  14   7    3889     798   1
   0 -16  -6   48023    7039  -3
   1  15   7   48023    7039   1
   2  15   7     654     639   1
   3  15   7  127055    2216   1
   4  15   7    9954     957   1
  -1 -11 -11   58217    1287  -2
   5  15   7   58217    1287   1
   6  15   7   36227     889   1
  -1 -21  -1   63380    1739  -3
   7  15   7   63380    1739   1
   8  15   7    1210     501   1
   9  15   7   23704     696   1
  -2  -7 -15   16253    1715  -2
  10  15   7   16253    1715   1
  11  15   7    8057     582   1
  -2 -25   3    7295     873  -3
  12  15   7    7295     873   1
  13  15   7    2151     561   1
  14  15   7   14415     684   1
  15  15   7   16330     717   1
  -3  -2 -20   50616    1150  -2
  16  15   7   50616    1150   1
  17  15   7   24190     971   1
  -3 -30   8   10655     817  -3
  18  15   7   10655     817   1
  19  15   7    2392     752   1
   0  16   7   17593    1185   1
   1  16   7  363256    5832   1
   2  16   7   70322    2957   1
   3  16   7    7462     624   1
  -1 -19  -4   30518    1420  -3
   4  16   7   30518    1420   1
  -1 -20  -3  126160    2030  -3
   5  16   7  126160    2030   1
   6  16   7   27522     787   1
  -1 -10 -13  154752    2369  -2
   7  16   7  154752    2369   1
   8  16   7   58920    1180   1
   9  16   7  112178    1853   1
  -2 -24   1     291     515  -3
  10  16   7     291     515   1
  11  16   7     -84     523   1
  -2  -6 -17    6707     590  -2
  12  16   7    6707     590   1
  13  16   7   51437    1121   1
  14  16   7   42384    1247   1
  15  16   7   32786     926   1
  -3 -29   6   13649     760  -3
  16  16   7   13649     760   1
  17  16   7   14321     788   1
  -3  -1 -22    2851     732  -2
  18  16   7    2851     732   1
  19  16   7    4689     769   1
   1  17   7  725275   10307   1
  -1 -18  -6    3450     591  -3
   2  17   7    3450     591   1
   0 -14 -10    8863     604  -2
  -1 -19  -5    8863     604  -3
   3  17   7    8863     604   1
   4  17   7   10904     645   1
   5  17   7   48912    3352   1
   6  17   7   22568    1576   1
   7  17   7    2667     559   1
  -2 -23  -1    4775     576  -3
   8  17   7    4775     576   1
  -1  -9 -15   84315    1472  -2
   9  17   7   84315    1472   1
  10  17   7   48432    1065   1
  11  17   7    1953     545   1
  12  17   7    9238     627   1
  13  17   7    6197     606   1
  -2  -5 -19    3259     619  -2
  -3 -28   4    3259     619  -3
  14  17   7    3259     619   1
  15  17   7    2914     624   1
  16  17   7    1060     656   1
  17  17   7   19767     826   1
  18  17   7    2268     725   1
  -4 -32   8    3453     786  -3
  19  17   7    3453     786   1
   1 -17  -8   19120    1013  -2
  -1 -17  -8   19120    1013  -3
   0  18   7   19120    1013   1
   1  18   7  506170    7271   1
   2  18   7    4949     598   1
   3  18   7  103937    1709   1
   4  18   7    1767     547   1
   5  18   7    1470     528   1
  -2 -22  -3   13881     792  -3
   6  18   7   13881     792   1
   7  18   7   72810    1389   1
   8  18   7   19247     732   1
   9  18   7  162134    2536   1
  10  18   7    1800     572   1
  -1  -8 -17   15467    1396  -2
  11  18   7   15467    1396   1
  -3 -27   2    1958     580  -3
  12  18   7    1958     580   1
  13  18   7   38735     988   1
  14  18   7   21587     838   1
  15  18   7    3828     684   1
  -2  -4 -21   55000    1267  -2
  16  18   7   55000    1267   1
  -4 -31   6    2140     669  -3
  17  18   7    2140     669   1
  18  18   7    3613     710   1
   1  19   7    1789     577   1
   1 -16 -10   13025    1365  -2
   2  19   7   13025    1365   1
   3  19   7   22940     755   1
  -2 -21  -5    2051     558  -3
   4  19   7    2051     558   1
   5  19   7   56976    1155   1
   6  19   7   33387     881   1
   0 -12 -14  116726    2479  -2
   7  19   7  116726    2479   1
   8  19   7   58602    1258   1
  -3 -25  -1  112294    1932  -3
   9  19   7  112294    1932   1
  -3 -26   0   22631     874  -3
  10  19   7   22631     874   1
  11  19   7  119360    1960   1
  12  19   7   13619     726   1
  -1  -7 -19   16341     867  -2
  13  19   7   16341     867   1
  14  19   7   37623    1050   1
  -4 -30   4   12314     759  -3
  15  19   7   12314     759   1
  16  19   7     810     647   1
  17  19   7   10397     731   1
  18  19   7    3559     703   1
   0  20   7   21462    1550   1
   1  20   7    5014     582   1
  -2 -20  -7   37543     952  -3
   2  20   7   37543     952   1
   3  20   7   58947    1202   1
   1 -15 -12   37105    3163  -2
   4  20   7   37105    3163   1
   5  20   7    6539     602   1
   6  20   7    4142     631   1
  -3 -24  -3  106056    1817  -3
   7  20   7  106056    1817   1
  -3 -25  -2   13534     702  -3
   8  20   7   13534     702   1
   9  20   7    1963     628   1
  10  20   7    4057     644   1
  11  20   7    3772     649   1
  12  20   7   12656     770   1
  -4 -29   2   33936    1002  -3
  13  20   7   33936    1002   1
  14  20   7     338     679   1
  -1  -6 -21    9597     747  -2
  15  20   7    9597     747   1
  16  20   7    4683     682   1
  17  20   7    4183     682   1
   1  21   7   28963    1395   1
   2  21   7    7780     643   1
   3  21   7    7114     642   1
   4  21   7    8980     656   1
  -3 -23  -5   18401    2208  -3
   5  21   7   18401    2208   1
   1 -14 -14   37249    2245  -2
  -3 -24  -4   37249    2245  -3
   6  21   7   37249    2245   1
   7  21   7   66673    1343   1
   8  21   7  100226    1764   1
   9  21   7  136856    2313   1
  10  21   7     554     649   1
   0 -10 -18   24806     870  -2
  -4 -28   0   24806     870  -3
  11  21   7   24806     870   1
  12  21   7   12623     746   1
  13  21   7    4960     774   1
  14  21   7   11262     850   1
  15  21   7    5112     704   1
  16  21   7    3793     686   1
  -1  -5 -23    8512     933  -2
  -5 -33   5    8512     933  -3
  17  21   7    8512     933   1
   0  22   7   36574    1508   1
   1  22   7   13422     727   1
   2 -18 -11    8707     671  -2
   2  22   7    8707     671   1
  -3 -22  -7    2339     612  -3
   3  22   7    2339     612   1
   4  22   7   14662    1345   1
   5  22   7    -147     609   1
   6  22   7   43801    1042   1
   7  22   7   41062    1012   1
   1 -13 -16  118694    2139  -2
   8  22   7  118694    2139   1
  -4 -27  -2    5356     655  -3
   9  22   7    5356     655   1
  10  22   7   74575    1525   1
  11  22   7   28540     927   1
  12  22   7    9799    1034   1
  13  22   7    1092     761   1
  14  22   7   10087     825   1
  -5 -32   3    1028     741  -3
  15  22   7    1028     741   1
  16  22   7   12964     845   1
  -3 -21  -9   15167    1716  -3
   1  23   7   15167    1716   1
   2  23   7    1381     655   1
   3  23   7   10688     739   1
   2 -17 -13    6539     693  -2
   4  23   7    6539     693   1
   5  23   7   32394     955   1
   6  23   7    2509     622   1
  -4 -26  -4   11166     685  -3
   7  23   7   11166     685   1
   8  23   7   65494    1341   1
   9  23   7    6864     678   1
   1 -12 -18   12786    1323  -2
  10  23   7   12786    1323   1
  11  23   7   21834     843   1
  -5 -30   0   44709    1173  -3
  12  23   7   44709    1173   1
  -5 -31   1   15791     876  -3
  13  23   7   15791     876   1
  14  23   7   14708     887   1
  15  23   7    2218     772   1
  16  23   7   23686    1106   1
   0  24   7    6048     983   1
   3 -20 -11     312     637  -2
   1  24   7     312     637   1
   2  24   7   12743     824   1
   3  24   7   15092    1232   1
   4  24   7    1465     662   1
  -4 -25  -6    -651     651  -3
   5  24   7    -651     651   1
   2 -16 -15   21250     819  -2
   6  24   7   21250     819   1
   7  24   7      -3     628   1
   8  24   7   16224     868   1
   9  24   7   62392    1368   1
  -5 -29  -2  128170    2181  -3
  10  24   7  128170    2181   1
  -5 -30  -1   15322     800  -3
  11  24   7   15322     800   1
   1 -11 -20   30076     997  -2
  12  24   7   30076     997   1
  13  24   7    8090     781   1
  14  24   7   15540    1295   1
  15  24   7    -566     734   1
   1  25   7    2080     673   1
   2  25   7   30399    1024   1
   3 -19 -13   10499    1541  -2
  -4 -24  -8   10499    1541  -3
   3  25   7   10499    1541   1
   4  25   7   33984    1052   1
   5  25   7   18490     861   1
   6  25   7    2760     699   1
   7  25   7   15767     781   1
   2 -15 -17    2886     662  -2
  -5 -28  -4    2886     662  -3
   8  25   7    2886     662   1
   9  25   7   21424     844   1
  10  25   7   90590    1709   1
  11  25   7   44616    1177   1
  12  25   7    4797     739   1
  13  25   7    1292     725   1
   1 -10 -22   31433    1643  -2
  -6 -33   1   31433    1643  -3
  14  25   7   31433    1643   1
   0  26   7  372902    8742   1
  -4 -23 -10    4333     793  -3
   1  26   7    4333     793   1
   2  26   7    3481     738   1
   3  26   7    2124     739   1
   4  26   7  111088    2278   1
   3 -18 -15   20928    1697  -2
   5  26   7   20928    1697   1
  -5 -27  -6   16616     850  -3
   6  26   7   16616     850   1
   7  26   7   38377    1066   1
   8  26   7  260816    4039   1
   9  26   7    5254     702   1
   2 -14 -19   10810     763  -2
  10  26   7   10810     763   1
  11  26   7     670     737   1
  -6 -32  -1    4314     745  -3
  12  26   7    4314     745   1
  13  26   7    2877     759   1
   4 -22 -12   45646    1427  -2
   1  27   7   45646    1427   1
   2  27   7   85810    2064   1
   3  27   7   77660    1790   1
  -5 -26  -8   26679    3295  -3
   4  27   7   26679    3295   1
   5  27   7   22425     934   1
   6  27   7   19464     898   1
   3 -17 -17    1143     730  -2
   7  27   7    1143     730   1
   8  27   7   24875     908   1
   9  27   7   52983    1304   1
  -6 -31  -3     720     727  -3
  10  27   7     720     727   1
  11  27   7    9671     791   1
  12  27   7    6016     763   1
  13  27   7   18193    1651   1
   0  28   7    1436    1177   1
   1  28   7    3925     802   1
  -5 -25 -10   86675   19792  -3
   2  28   7   86675   19792   1
   4 -21 -14    1930     765  -2
   3  28   7    1930     765   1
   4  28   7   22304    2649   1
   5  28   7   21330     972   1
   6  28   7   10710     807   1
   7  28   7   11127     819   1
  -6 -30  -5   30051     995  -3
   8  28   7   30051     995   1
   3 -16 -19    5861     773  -2
   9  28   7    5861     773   1
  10  28   7     403     738   1
  11  28   7    3530     765   1
  12  28   7     486     867   1
   1  29   7      45     797   1
   2  29   7   22281     964   1
   3  29   7   15091     895   1
   4  29   7   11431     871   1
   4 -20 -16    6642     922  -2
   5  29   7    6642     922   1
  -6 -29  -7    9304     810  -3
   6  29   7    9304     810   1
   7  29   7     175     718   1
   8  29   7    6550     807   1
   9  29   7    3996     805   1
  10  29   7    1816     756   1
   0  30   7   -1190    1190   1
   1  30   7    3501     867   1
   5 -23 -14    3041     813  -2
   2  30   7    3041     813   1
   3  30   7   12735     990   1
  -6 -28  -9   12429    1422  -3
   4  30   7   12429    1422   1
   5  30   7     628     764   1
   6  30   7    1725     784   1
   4 -19 -18    8701     828  -2
   7  30   7    8701     828   1
   8  30   7   11646    2367   1
  -7 -32  -5    5248     840  -3
   9  30   7    5248     840   1
   1  31   7    8201     938   1
  -6 -27 -11    4280     853  -3
   2  31   7    4280     853   1
   3  31   7   12476     919   1
   5 -22 -16    8165     831  -2
   4  31   7    8165     831   1
   5  31   7   19857    1711   1
   6  31   7    9950    1630   1
  -7 -31  -7   26418    1180  -3
   7  31   7   26418    1180   1
   8  31   7    4647     987   1
   6 -26 -13    6460    1571  -2
  -6 -26 -13    6460    1571  -3
   0  32   7    6460    1571   1
   1  32   7    7356    1417   1
   2  32   7     649     886   1
   3  32   7   30414    1169   1
   4  32   7    4046     915   1
  -7 -30  -9    2574     794  -3
   5  32   7    2574     794   1
   5 -21 -18    3996     926  -2
   6  32   7    3996     926   1
   1  33   7   23037    1798   1
   6 -25 -15    3985     932  -2
   2  33   7    3985     932   1
  -7 -29 -11    6649    3450  -3
   3  33   7    6649    3450   1
   0   0   8 2172048   44388   1
   1   0   8  213635    3598   1
   2   0   8 5365633  101363   1
  -7  -4  -4  381073    5792  -2
   6  -9   1  381073    5792  -3
   3   0   8  381073    5792   1
   4   0   8 1794199   27402   1
   5   0   8   20672     853   1
   6   0   8  587058    9997   1
   7   0   8   66800    1764   1
  -8   0  -8   20927    1084  -2
   8   0   8   20927    1084   1
   9   0   8   46506    1740   1
  10   0   8  707627   16713   1
  11   0   8   61047    1865   1
  12   0   8  190242    4432   1
  13   0   8   36587    1271   1
  -9   5 -13  193999    9771  -2
   4 -18  10  193999    9771  -3
  14   0   8  193999    9771   1
  15   0   8     597     765   1
  16   0   8   15512    1052   1
  17   0   8   39287    1617   1
  18   0   8   22894    1400   1
  19   0   8   61639    4755   1
 -10  10 -18   10234    1164  -2
  20   0   8   10234    1164   1
  21   0   8    4167    1092   1
   6  -8  -1   91341   15255  -3
   1   1   8   91341   15255   1
   2   1   8    8743     481   1
   3   1   8   46068     816   1
   4   1   8    3812     415   1
  -7  -3  -6     -98     420  -2
   5   1   8     -98     420   1
   6   1   8   50213     980   1
   7   1   8    3530     537   1
   8   1   8   12657     683   1
   9   1   8  147405    2529   1
  -8   1 -10   20718    1492  -2
  10   1   8   20718    1492   1
  -8   2 -11    4647     584  -2
  11   1   8    4647     584   1
   4 -17   8  117828    5022  -3
  12   1   8  117828    5022   1
  13   1   8   84182    1498   1
  14   1   8   15114     679   1
  15   1   8   41182    1055   1
  -9   6 -15   26124     880  -2
  16   1   8   26124     880   1
  17   1   8   24545    1553   1
  18   1   8   11944     794   1
  19   1   8   12440     840   1
  20   1   8   23943    1030   1
  21   1   8   35361    1239   1
   0   2   8  644183    9772   1
  -6  -7  -3  247502    9146  -2
   1   2   8  247502    9146   1
   2   2   8 3180788   33188   1
   3   2   8  161322    1898   1
   5 -11   1 1343724   14140  -3
   4   2   8 1343724   14140   1
   5   2   8    1486     409   1
   6   2   8  133651    1927   1
  -7  -2  -8   16568    1023  -2
   7   2   8   16568    1023   1
   8   2   8    4979     624   1
   9   2   8    8713     680   1
   4 -16   6  627020   12162  -3
  10   2   8  627020   12162   1
  11   2   8    8464     611   1
  -8   2 -12   77429    1429  -2
  12   2   8   77429    1429   1
  -8   3 -13    5284     567  -2
  13   2   8    5284     567   1
  14   2   8   39988    1006   1
  15   2   8   21400    1209   1
  16   2   8   62371    1412   1
  17   2   8    5445     678   1
  -9   7 -17   14884    1975  -2
  18   2   8   14884    1975   1
  19   2   8   37041    1133   1
  20   2   8    9831     778   1
   2 -25  15    7007     850  -3
  21   2   8    7007     850   1
   1   3   8   26647     615   1
   5 -10  -1  130691    3418  -3
   2   3   8  130691    3418   1
  -6  -6  -5   31466     878  -2
   3   3   8   31466     878   1
   4   3   8  243495    2688   1
   5   3   8   10847     496   1
   6   3   8    9074     542   1
   7   3   8   72531    1353   1
   4 -15   4   98007   49519  -3
   8   3   8   98007   49519   1
  -7  -1 -10  237239    3741  -2
   9   3   8  237239    3741   1
  10   3   8  192924    3220   1
  11   3   8   72801    1424   1
  12   3   8   85585    1563   1
  13   3   8   15152     666   1
  -8   3 -14   73898    1830  -2
  14   3   8   73898    1830   1
  -8   4 -15    7000     628  -2
  15   3   8    7000     628   1
  16   3   8   12118     700   1
  17   3   8   22128     890   1
  18   3   8   21218     870   1
   2 -24  13    2070     666  -3
  19   3   8    2070     666   1
  -9   8 -19    5862     806  -2
  20   3   8    5862     806   1
  21   3   8    3866     777   1
  -5  -9  -3  119781    2091  -2
   5  -9  -3  119781    2091  -3
   0   4   8  119781    2091   1
   1   4   8   37026     692   1
   2   4   8  467342    4856   1
   3   4   8     212     378   1
   4   4   8  160483    1898   1
  -6  -5  -7    3165     433  -2
   5   4   8    3165     433   1
   4 -14   2   44451   34969  -3
   6   4   8   44451   34969   1
   7   4   8   89311    1557   1
   8   4   8   34719     937   1
   9   4   8   15829     772   1
  10   4   8    1286     556   1
  -7   0 -12  107235   18384  -2
  11   4   8  107235   18384   1
  12   4   8   25969     789   1
  13   4   8    1439     545   1
  14   4   8   44527    1088   1
  15   4   8    2816     597   1
  16   4   8    5540     654   1
  -8   5 -17   33252    1601  -2
   2 -23  11   33252    1601  -3
  17   4   8   33252    1601   1
  18   4   8     239     656   1
  19   4   8    3023     669   1
  20   4   8   18035     887   1
  21   4   8   20047     951   1
   1   5   8   43605     748   1
  -5  -8  -5   37379    1245  -2
   2   5   8   37379    1245   1
   3   5   8   11628     473   1
   4 -13   0    5928     443  -3
   4   5   8    5928     443   1
   5   5   8   68700    1145   1
   6   5   8   26549     762   1
  -6  -4  -9  133776    7135  -2
   7   5   8  133776    7135   1
  -6  -3 -10   34225    1042  -2
   8   5   8   34225    1042   1
   3 -17   4  104005    2601  -3
   9   5   8  104005    2601   1
  10   5   8  216990    3281   1
  11   5   8  132278    2076   1
  12   5   8   44551    1000   1
  -7   1 -14   61555    2683  -2
  13   5   8   61555    2683   1
  14   5   8    5428     600   1
   2 -22   9   21901    1354  -3
  15   5   8   21901    1354   1
  16   5   8    3730     627   1
  17   5   8   69841    1493   1
  18   5   8    9171     709   1
  -8   6 -19    7631     746  -2
  19   5   8    7631     746   1
  20   5   8   17296     872   1
  21   5   8    2279     731   1
   0   6   8  711650   10299   1
   1   6   8    2095     386   1
   4 -12  -2  102604    2640  -3
   2   6   8  102604    2640   1
   3   6   8   18147     532   1
  -5  -7  -7   59924    1132  -2
   4   6   8   59924    1132   1
   5   6   8   66639    1167   1
   6   6   8   61158    1236   1
   3 -16   2   66833    1359  -3
   7   6   8   66833    1359   1
   8   6   8   51573    1173   1
  -6  -3 -11   11979    3732  -2
   9   6   8   11979    3732   1
  -6  -2 -12  111050    2186  -2
  10   6   8  111050    2186   1
  11   6   8   34237     845   1
  12   6   8   13827     730   1
   2 -21   7   10369     610  -3
  13   6   8   10369     610   1
  14   6   8   22079     771   1
  -7   2 -16   17908     762  -2
  15   6   8   17908     762   1
  16   6   8     806     600   1
  17   6   8    7516     678   1
  18   6   8    2649     657   1
  19   6   8   17859     873   1
  20   6   8   35402    1170   1
  -8   7 -21   10256    2172  -2
  21   6   8   10256    2172   1
   1   7   8  112311    1408   1
   2   7   8   22048     545   1
   3   7   8    3306     422   1
   4   7   8   13832     539   1
   3 -15   0   60764    1275  -3
   5   7   8   60764    1275   1
  -5  -6  -9   45013    2301  -2
   6   7   8   45013    2301   1
   7   7   8    2468     635   1
   8   7   8   33063     979   1
   9   7   8   22735     890   1
  10   7   8  326138    4421   1
   2 -20   5  585234   12546  -3
  11   7   8  585234   12546   1
  -6  -1 -14   84010    1510  -2
  12   7   8   84010    1510   1
  13   7   8   11109     623   1
  14   7   8     340     557   1
  15   7   8   65120    1367   1
  16   7   8    3315     632   1
  -7   3 -18    4492     656  -2
  17   7   8    4492     656   1
  18   7   8   21200     846   1
  19   7   8   17933     867   1
  20   7   8    -448     679   1
  21   7   8   20497     988   1
   0   8   8   12907     674   1
   1   8   8   28780     632   1
  -4 -10  -6   50114     834  -2
   2   8   8   50114     834   1
  -4  -9  -7  830834    9186  -2
   3 -14  -2  830834    9186  -3
   3   8   8  830834    9186   1
   4   8   8   57583    1063   1
   5   8   8   91301    1632   1
   6   8   8   26265     839   1
   7   8   8 1449684   21668   1
  -5  -5 -11   58788    2886  -2
   8   8   8   58788    2886   1
   2 -19   3  114201    1990  -3
   9   8   8  114201    1990   1
  10   8   8    2493     499   1
  11   8   8    2638     497   1
  12   8   8    1142     513   1
  13   8   8  225870    3412   1
  -6   0 -16   44221   17490  -2
  14   8   8   44221   17490   1
  15   8   8   70818    1472   1
  16   8   8    8445     664   1
  17   8   8   74541    1585   1
  18   8   8   12614     768   1
  -7   4 -20   28694    1094  -2
  19   8   8   28694    1094   1
   0 -28  12   12097     786  -3
  20   8   8   12097     786   1
  21   8   8   19418     964   1
   3 -13  -4   72461    1225  -3
   1   9   8   72461    1225   1
   2   9   8   62010    1028   1
   3   9   8   65014    1154   1
  -4  -9  -8    4126     582  -2
   4   9   8    4126     582   1
  -4  -8  -9   80075    4603  -2
   5   9   8   80075    4603   1
   6   9   8   59352    5063   1
   2 -18   1  132801    2367  -3
   7   9   8  132801    2367   1
   8   9   8    1263     658   1
   9   9   8  474671    6429   1
  -5  -4 -13   36368     808  -2
  10   9   8   36368     808   1
  11   9   8    -472     472   1
   1 -22   5   53507    1419  -3
  12   9   8   53507    1419   1
  13   9   8   36774     939   1
  14   9   8   10863     653   1
  15   9   8    4652     676   1
  -6   1 -18    9350    1361  -2
  16   9   8    9350    1361   1
  17   9   8   15237     758   1
  18   9   8    7411     686   1
  19   9   8    8868     711   1
  20   9   8     510     694   1
  -7   5 -22   28333    2785  -2
  21   9   8   28333    2785   1
   0  10   8  118251    2309   1
  -3 -12  -6   44521     866  -2
   1  10   8   44521     866   1
   2  10   8   12287     546   1
   3  10   8   83967    1435   1
   4  10   8   15356     948   1
   2 -17  -1   65286    1320  -3
   5  10   8   65286    1320   1
  -4  -8 -10    4533     634  -2
   6  10   8    4533     634   1
  -4  -7 -11 1626212   24289  -2
   7  10   8 1626212   24289   1
   8  10   8    8719     650   1
   9  10   8   10720     571   1
   1 -21   3   24955    2201  -3
  10  10   8   24955    2201   1
  11  10   8   87209    1444   1
  -5  -3 -15   53329    2167  -2
  12  10   8   53329    2167   1
  13  10   8  130192    2146   1
  14  10   8    6839     612   1
  15  10   8  150913    2471   1
   0 -26   8   40078    1032  -3
  16  10   8   40078    1032   1
  17  10   8    7592     653   1
  -6   2 -20    6091     964  -2
  18  10   8    6091     964   1
  19  10   8   26257     969   1
  20  10   8    7806     778   1
   1  11   8   12730     591   1
   2  11   8   80835    3163   1
  -3 -11  -8  136212    2797  -2
   2 -16  -3  136212    2797  -3
   3  11   8  136212    2797   1
   4  11   8    5035     607   1
   5  11   8  119579    2038   1
   6  11   8   42673    1082   1
   7  11   8  407564    6184   1
   1 -20   1   11316     665  -3
   8  11   8   11316     665   1
  -4  -6 -13    5530     725  -2
   9  11   8    5530     725   1
  10  11   8   24396     668   1
  11  11   8   23914     688   1
  12  11   8   19186     675   1
  13  11   8  121264    2341   1
  -5  -2 -17    5653     575  -2
  14  11   8    5653     575   1
  15  11   8   28228     859   1
  16  11   8     466     595   1
  17  11   8   43225    1095   1
  18  11   8    1008     643   1
  19  11   8    1536     707   1
  -6   3 -22    8452    1109  -2
  20  11   8    8452    1109   1
  -2 -14  -6  434089    7928  -2
   2 -14  -6  434089    7928  -3
   0  12   8  434089    7928   1
   2 -15  -5   79783    1429  -3
   1  12   8   79783    1429   1
   2  12   8    7788     611   1
   3  12   8  259817    3887   1
   4  12   8       5     594   1
  -3 -10 -10   84224    1837  -2
   5  12   8   84224    1837   1
   1 -19  -1   11460    1185  -3
   6  12   8   11460    1185   1
   7  12   8   46253    1030   1
   8  12   8    3340     528   1
   9  12   8    1298     466   1
  10  12   8    7585     526   1
  -4  -5 -15  199497    4174  -2
  11  12   8  199497    4174   1
   0 -24   4    8565     559  -3
  12  12   8    8565     559   1
  13  12   8   48347    1037   1
  14  12   8     433     551   1
  15  12   8    6237     612   1
  -5  -1 -19   14941    2195  -2
  16  12   8   14941    2195   1
  -1 -28   8   43332    1143  -3
  17  12   8   43332    1143   1
  18  12   8    8076     712   1
  19  12   8   54340    1411   1
  20  12   8   15606     984   1
  -2 -14  -7   92597    1724  -2
   1  13   8   92597    1724   1
  -2 -13  -8    5684     666  -2
   2  13   8    5684     666   1
   3  13   8   16855     755   1
   1 -18  -3  114244   12438  -3
   4  13   8  114244   12438   1
   5  13   8   48207    1154   1
   6  13   8    2358     567   1
  -3  -9 -12  277059    8318  -2
   7  13   8  277059    8318   1
   8  13   8    5014     538   1
   9  13   8   71478    1240   1
  10  13   8   17257     626   1
  11  13   8    8387     556   1
  12  13   8  116836    1827   1
  -4  -4 -17   13196     615  -2
  13  13   8   13196     615   1
  14  13   8    9084     629   1
  -1 -27   6   24765    2730  -3
  15  13   8   24765    2730   1
  16  13   8    2013     644   1
  17  13   8   40286    1102   1
  18  13   8   19990     866   1
  19  13   8   22060    1002   1
  20  13   8    1708     786   1
   0  14   8  590760   12260   1
   1  14   8   33747     999   1
   1 -17  -5   89030   14859  -3
   2  14   8   89030   14859   1
   3  14   8  196715    3138   1
  -2 -12 -10   82461   35418  -2
   4  14   8   82461   35418   1
   5  14   8   31505     901   1
   6  14   8   31272     841   1
   7  14   8   27162     758   1
   0 -22   0    6292     695  -3
   8  14   8    6292     695   1
  -3  -8 -14    5530     535  -2
   9  14   8    5530     535   1
  10  14   8   49357    1017   1
  11  14   8   25319     747   1
  12  14   8    3715     551   1
  -1 -26   4   16628     792  -3
  13  14   8   16628     792   1
  14  14   8   30957     856   1
  -4  -3 -19    9048    1209  -2
  15  14   8    9048    1209   1
  16  14   8    9843     696   1
  17  14   8    9800     722   1
  18  14   8   31313    1003   1
  -2 -31   9   12017     911  -3
  19  14   8   12017     911   1
   1  15   8  221718    3733   1
   2  15   8   13322     831   1
   3  15   8  160458    2646   1
   4  15   8    1812     575   1
   0 -20  -3  107459    5618  -3
   5  15   8  107459    5618   1
  -2 -11 -12    2592     548  -2
   6  15   8    2592     548   1
   7  15   8   22138     716   1
   8  15   8   54201    1092   1
   9  15   8     105     517   1
  10  15   8   10321     607   1
  -3  -7 -16   27265    1053  -2
  -1 -25   2   27265    1053  -3
  11  15   8   27265    1053   1
  12  15   8    6437     584   1
  13  15   8   11865     649   1
  14  15   8   20710     740   1
  15  15   8   18689     767   1
  16  15   8   10797     700   1
  -4  -2 -21    4583     682  -2
  -2 -30   7    4583     682  -3
  17  15   8    4583     682   1
  18  15   8   75419    1738   1
  19  15   8    1468     734   1
   0  16   8  109256    2777   1
   1  16   8    -511     595   1
  -1 -15  -9   90564    4919  -2
   2  16   8   90564    4919   1
   3  16   8   17617     722   1
   0 -20  -4  288720    4310  -3
   4  16   8  288720    4310   1
   5  16   8   10321     623   1
   6  16   8    2685     523   1
   7  16   8    9600     591   1
  -2 -10 -14    8640     749  -2
   8  16   8    8640     749   1
  -1 -24   0   30076    2238  -3
   9  16   8   30076    2238   1
  10  16   8   16028     691   1
  11  16   8    1624     559   1
  12  16   8   41774     982   1
  -3  -6 -18    8852     767  -2
  13  16   8    8852     767   1
  14  16   8    7319     619   1
  -2 -29   5   11769     677  -3
  15  16   8   11769     677   1
  16  16   8    2036     646   1
  17  16   8    -220     651   1
  18  16   8   29159    1036   1
  -4  -1 -23   34489    1156  -2
  19  16   8   34489    1156   1
   0 -18  -7   12810     661  -3
   1  17   8   12810     661   1
   2  17   8  413339    5886   1
   3  17   8     544     583   1
  -1 -14 -11  373868    5334  -2
   4  17   8  373868    5334   1
   5  17   8   13517     614   1
   6  17   8   30853     805   1
  -1 -23  -2   29112     798  -3
   7  17   8   29112     798   1
   8  17   8   36322     906   1
   9  17   8   93971    1707   1
  -2  -9 -16    1210     642  -2
  10  17   8    1210     642   1
  11  17   8   40455    1020   1
  12  17   8   33785     906   1
  -2 -28   3   44339    1048  -3
  13  17   8   44339    1048   1
  14  17   8   36561     940   1
  -3  -5 -20    3446     615  -2
  15  17   8    3446     615   1
  16  17   8   45849    1119   1
  17  17   8    3843     718   1
  -3 -32   7   33163    1977  -3
  18  17   8   33163    1977   1
   0  18   8    1545     813   1
   1  18   8    -329     572   1
   2  18   8  586127    8245   1
   3  18   8    1059     559   1
   4  18   8  304727    4350   1
  -1 -22  -4   36348    1786  -3
   5  18   8   36348    1786   1
  -1 -13 -13   12463     648  -2
   6  18   8   12463     648   1
   7  18   8    1535     570   1
   8  18   8    1172     570   1
   9  18   8    4093     600   1
  -2 -26   0   80399   15225  -3
  10  18   8   80399   15225   1
  -2 -27   1   24696     986  -3
  11  18   8   24696     986   1
  -2  -8 -18   26185    1494  -2
  12  18   8   26185    1494   1
  13  18   8    8309     669   1
  14  18   8    2135     638   1
  15  18   8    4649     658   1
  -3 -31   5   36233     995  -3
  16  18   8   36233     995   1
  -3  -4 -22    1792     705  -2
  17  18   8    1792     705   1
  18  18   8    8383     787   1
   1  19   8     713     577   1
   2  19   8   26692     768   1
   0 -16 -11   33709    3480  -2
  -1 -21  -6   33709    3480  -3
   3  19   8   33709    3480   1
   4  19   8     175     568   1
   5  19   8   33013     895   1
   6  19   8   32223     877   1
   7  19   8   64526    1300   1
  -1 -12 -15    4859     619  -2
  -2 -25  -2    4859     619  -3
   8  19   8    4859     619   1
  -2 -26  -1   76579    1460  -3
   9  19   8   76579    1460   1
  10  19   8  104782    1870   1
  11  19   8  126126    2235   1
  12  19   8   27842     926   1
  13  19   8   35653    1022   1
  -2  -7 -20   16573     756  -2
  -3 -30   3   16573     756  -3
  14  19   8   16573     756   1
  15  19   8   20047     809   1
  16  19   8   81704    1629   1
  17  19   8   13294     806   1
   0  20   8   97809    2674   1
  -1 -20  -8    6004     760  -3
   1  20   8    6004     760   1
   2  20   8   27332     835   1
   3  20   8    4194     603   1
   4  20   8    3816     612   1
   5  20   8    8298     646   1
  -2 -24  -4    3605     599  -3
   6  20   8    3605     599   1
  -2 -25  -3    4775     618  -3
   7  20   8    4775     618   1
   8  20   8   13714     703   1
   9  20   8   19298     775   1
  -1 -11 -17   25978     858  -2
  10  20   8   25978     858   1
  11  20   8   27468     953   1
  -3 -29   1   32857     987  -3
  12  20   8   32857     987   1
  13  20   8     374     667   1
  14  20   8   11403     771   1
  15  20   8    8955     756   1
  -2  -6 -22   58347    1357  -2
  16  20   8   58347    1357   1
  17  20   8    9903     801   1
   1 -19 -10   14038     735  -2
   1  21   8   14038     735   1
   2  21   8   30448     905   1
   3  21   8   37191     979   1
  -2 -23  -6    2429     621  -3
   4  21   8    2429     621   1
   5  21   8    2821     625   1
   6  21   8     334     597   1
   0 -14 -15    6317    1100  -2
   7  21   8    6317    1100   1
   8  21   8   60225    1295   1
   9  21   8   24137     835   1
  -3 -28  -1    7894     965  -3
  10  21   8    7894     965   1
  11  21   8   44665    1177   1
  -1 -10 -19    3602     708  -2
  12  21   8    3602     708   1
  13  21   8    4724     702   1
  14  21   8   19183     857   1
  15  21   8    1129     727   1
  -4 -33   4   17054     843  -3
  16  21   8   17054     843   1
   0  22   8    6263     989   1
   1  22   8     794     645   1
  -2 -22  -8    7544     677  -3
   2  22   8    7544     677   1
   1 -18 -12    3848     670  -2
   3  22   8    3848     670   1
   4  22   8    5865     689   1
   5  22   8     957     635   1
   6  22   8    1470     642   1
   7  22   8    5337    1000   1
  -3 -27  -3   80450    3293  -3
   8  22   8   80450    3293   1
   9  22   8    5118     664   1
  10  22   8   41148    1056   1
  11  22   8    6496     746   1
  12  22   8   13542     798   1
  -4 -31   1    7523     771  -3
  13  22   8    7523     771   1
  -4 -32   2   25077     973  -3
  14  22   8   25077     973   1
  15  22   8   35262    1091   1
  16  22   8   22104     940   1
   1  23   8    4711     709   1
   2  23   8   21469     833   1
   3  23   8    6104     703   1
   4  23   8    1189     657   1
   1 -17 -14    2985     665  -2
   5  23   8    2985     665   1
  -3 -26  -5   11444     976  -3
   6  23   8   11444     976   1
   7  23   8    8258     683   1
   8  23   8   24327     842   1
   9  23   8    4161     671   1
  10  23   8     444     668   1
   0 -12 -19   57229    1328  -2
  -4 -30  -1   57229    1328  -3
  11  23   8   57229    1328   1
  -4 -31   0    1232     770  -3
  12  23   8    1232     770   1
  13  23   8   13858     865   1
  14  23   8    -305     742   1
  15  23   8    2610     755   1
   0  24   8   56851    2008   1
   1  24   8   25172     942   1
   2 -20 -12   72362    7306  -2
   2  24   8   72362    7306   1
   3  24   8    9637     787   1
  -3 -25  -7   22543     887  -3
   4  24   8   22543     887   1
   5  24   8   34394    1040   1
   6  24   8    2108     690   1
   1 -16 -16    6213     688  -2
   7  24   8    6213     688   1
   8  24   8   44315    1098   1
  -4 -29  -3  247571    3777  -3
   9  24   8  247571    3777   1
  10  24   8    4849     701   1
  11  24   8   11444     764   1
  12  24   8   38847    1147   1
  13  24   8   16477     889   1
  14  24   8   39149    1593   1
   1  25   8   13279     822   1
  -3 -24  -9    8371     805  -3
   2  25   8    8371     805   1
   3  25   8    1254     728   1
   2 -19 -14    5030     761  -2
   4  25   8    5030     761   1
   5  25   8     756     698   1
   6  25   8     723     706   1
  -4 -28  -5   12685     808  -3
   7  25   8   12685     808   1
   8  25   8     -65     672   1
   1 -15 -18  397544    6199  -2
   9  25   8  397544    6199   1
  10  25   8   15606     798   1
  11  25   8   30987    1026   1
  12  25   8    9147     825   1
  -5 -33   0    3878     775  -3
  13  25   8    3878     775   1
  14  25   8   13275     908   1
   3 -23 -11   26745    1626  -2
  -3 -23 -11   26745    1626  -3
   0  26   8   26745    1626   1
   1  26   8   33049    1390   1
   2  26   8   14230     924   1
   3  26   8   37867    1176   1
   4  26   8    1920     755   1
  -4 -27  -7   76270    1688  -3
   5  26   8   76270    1688   1
   2 -18 -16    4518     831  -2
   6  26   8    4518     831   1
   7  26   8   20835     906   1
   8  26   8     738     696   1
   9  26   8   48821    1235   1
  10  26   8    2818     714   1
  -5 -32  -2    6134     751  -3
  11  26   8    6134     751   1
  12  26   8    6083     774   1
  13  26   8   55091    1401   1
   1  27   8    1874     818   1
   3 -22 -13    4471     821  -2
   2  27   8    4471     821   1
  -4 -26  -9  146502   39641  -3
   3  27   8  146502   39641   1
   4  27   8     -46     746   1
   5  27   8   26579    1046   1
   6  27   8     382     720   1
   7  27   8  146889    2711   1
   2 -17 -18   22389    1371  -2
   8  27   8   22389    1371   1
  -5 -31  -4   71991    1595  -3
   9  27   8   71991    1595   1
  10  27   8    -614     703   1
  11  27   8   83864    1802   1
  12  27   8    2320     769   1
   0  28   8   52510    2050   1
  -4 -25 -11   40630    1884  -3
   1  28   8   40630    1884   1
   2  28   8   61087    1663   1
   3  28   8     566     780   1
   3 -21 -15   29409    1078  -2
   4  28   8   29409    1078   1
   5  28   8   95179    2067   1
   6  28   8   25171    1001   1
  -5 -30  -6   47416    1280  -3
   7  28   8   47416    1280   1
   8  28   8    2389     748   1
   9  28   8    2417     753   1
   2 -16 -20   29168    1466  -2
  10  28   8   29168    1466   1
  11  28   8   13428     864   1
   4 -24 -13   50405    2312  -2
   1  29   8   50405    2312   1
   2  29   8    4573     836   1
   3  29   8    2306     803   1
   4  29   8    -137     762   1
  -5 -29  -8    8034     833  -3
   5  29   8    8034     833   1
   3 -20 -17    4339     801  -2
   6  29   8    4339     801   1
   7  29   8    2057     738   1
   8  29   8   10207     823   1
   9  29   8     193     771   1
  -6 -33  -4    2929     810  -3
  10  29   8    2929     810   1
   0  30   8    1177    1216   1
   1  30   8     236     843   1
   2  30   8    3373     824   1
   4 -23 -15    7911     973  -2
  -5 -28 -10    7911     973  -3
   3  30   8    7911     973   1
   4  30   8    -497     779   1
   5  30   8    7821     829   1
   6  30   8    4782     803   1
   7  30   8    5721     790   1
   3 -19 -19   50484    1699  -2
  -6 -32  -6   50484    1699  -3
   8  30   8   50484    1699   1
  -5 -27 -12   19880    1113  -3
   1  31   8   19880    1113   1
   2  31   8    8346     928   1
   3  31   8    3358     836   1
   4  31   8    1173     786   1
   4 -22 -17     964     766  -2
   5  31   8     964     766   1
  -6 -31  -8    8445     840  -3
   6  31   8    8445     840   1
   7  31   8    -908     908   1
   0  32   8    6409    1357   1
   5 -26 -14    4794     934  -2
   1  32   8    4794     934   1
   2  32   8   14644    1330   1
   3  32   8    4574     874   1
  -6 -30 -10    4427     817  -3
   4  32   8    4427     817   1
   1   1   9   21976     566   1
   2   1   9    2893     410   1
   3   1   9    7935     472   1
   4   1   9   17241     549   1
   6 -12   2  423793    5397  -3
   5   1   9  423793    5397   1
  -8  -3  -7   38491     917  -2
   6   1   9   38491     917   1
   7   1   9  189850   13077   1
   8   1   9   17239     781   1
   9   1   9  150206    2684   1
  10   1   9   36455     961   1
  -9   1 -11  359510    5205  -2
   5 -17   7  359510    5205  -3
  11   1   9  359510    5205   1
  -9   2 -12    1167     537  -2
  12   1   9    1167     537   1
  13   1   9  283528    4222   1
  14   1   9   14559     681   1
  15   1   9   34645     969   1
  16   1   9     863     638   1
 -10   6 -16   15739    1046  -2
  17   1   9   15739    1046   1
  18   1   9    7399     808   1
  19   1   9     100     709   1
  20   1   9   13186     861   1
  21   1   9   21340    1020   1
   0   2   9    8884     607   1
   1   2   9    1109     399   1
  -7  -7  -4    6785     458  -2
   2   2   9    6785     458   1
   6 -11   0    7842     472  -3
   3   2   9    7842     472   1
   4   2   9    2451     431   1
   5   2   9   14172     831   1
   6   2   9     779     525   1
   7   2   9   17577     734   1
  -8  -2  -9   45832    1557  -2
   8   2   9   45832    1557   1
   5 -16   5   26557    2996  -3
   9   2   9   26557    2996   1
  10   2   9   93776    1725   1
  11   2   9   22436    1057   1
  12   2   9  142997    2243   1
  -9   2 -13   45255    1047  -2
  13   2   9   45255    1047   1
  -9   3 -14   37468    1563  -2
  14   2   9   37468    1563   1
  15   2   9    2309     612   1
  16   2   9   31973     947   1
  17   2   9   16327     848   1
  18   2   9   40900    1191   1
 -10   7 -18   31218    1077  -2
  19   2   9   31218    1077   1
   3 -25  14   46445    2158  -3
  20   2   9   46445    2158   1
  21   2   9   65816    1736   1
   6 -10  -2   45984    1592  -3
   1   3   9   45984    1592   1
   2   3   9     812     394   1
   3   3   9  468619    5090   1
  -7  -6  -6   51594     920  -2
   4   3   9   51594     920   1
   5   3   9  184707    2545   1
   6   3   9   19724     685   1
   5 -15   3  128313    2235  -3
   7   3   9  128313    2235   1
   8   3   9   28616    1040   1
   9   3   9  153932   45153   1
  -8  -1 -11    6166     569  -2
  10   3   9    6166     569   1
  11   3   9  163967    2587   1
  12   3   9    5519     609   1
  13   3   9    3137     561   1
  14   3   9    5860     613   1
  15   3   9    6910     645   1
  -9   4 -16   11000     716  -2
  16   3   9   11000     716   1
  17   3   9    5740     683   1
   3 -24  12   18530     836  -3
  18   3   9   18530     836   1
  19   3   9   78487    1811   1
  20   3   9   94409    2059   1
 -10   8 -20   27273    1251  -2
  21   3   9   27273    1251   1
   0   4   9     383     539   1
  -6  -9  -4   23498    1498  -2
   1   4   9   23498    1498   1
   2   4   9     963     391   1
   3   4   9   18718     549   1
   4   4   9   54225    1118   1
   5   4   9   54967    1059   1
  -7  -5  -8   12698     662  -2
   6   4   9   12698     662   1
  -7  -4  -9  252031    4781  -2
   7   4   9  252031    4781   1
   8   4   9  143298    2522   1
   9   4   9   24239     969   1
  10   4   9   60038    2675   1
  11   4   9  284660    4135   1
  12   4   9  171560    2701   1
  13   4   9  211783    3311   1
  14   4   9    1879     587   1
  15   4   9   55020    1254   1
   3 -23  10   10805     699  -3
  16   4   9   10805     699   1
  17   4   9   13529     749   1
  -9   5 -18   22071    2724  -2
  18   4   9   22071    2724   1
  19   4   9    2212     666   1
  20   4   9   33577    1138   1
  21   4   9   21670     978   1
   1   5   9   23678     582   1
   2   5   9   39337     756   1
  -6  -8  -6   33788     706  -2
   3   5   9   33788     706   1
   4   5   9   44538     902   1
   5   5   9  162080    3018   1
   6   5   9    8123    1301   1
   7   5   9  119393    2146   1
  -7  -4 -10   33629    2621  -2
   4 -17   3   33629    2621  -3
   8   5   9   33629    2621   1
  -7  -3 -11    5411     752  -2
   9   5   9    5411     752   1
  10   5   9    2003     510   1
  11   5   9    2188     515   1
  12   5   9   42473    1038   1
  13   5   9    9033     643   1
  -8   1 -15   21841    1075  -2
   3 -22   8   21841    1075  -3
  14   5   9   21841    1075   1
  15   5   9     284     599   1
  16   5   9   30555    1010   1
  17   5   9    3087     632   1
  18   5   9     653     656   1
  19   5   9   15851     825   1
  -9   6 -20    7140    1610  -2
  20   5   9    7140    1610   1
  21   5   9    1529     704   1
   0   6   9   89783    1742   1
   5 -12  -3   20870     569  -3
   1   6   9   20870     569   1
   2   6   9   92142    1296   1
   3   6   9   30493     736   1
   4   6   9  252717    3372   1
  -6  -7  -8    2962     598  -2
   5   6   9    2962     598   1
   4 -16   1   44100    1553  -3
   6   6   9   44100    1553   1
   7   6   9   98221    1869   1
   8   6   9  801235   12076   1
   9   6   9    3653     540   1
  10   6   9   15073     630   1
  -7  -2 -13   18020     667  -2
  11   6   9   18020     667   1
   3 -21   6   68153    1503  -3
  12   6   9   68153    1503   1
  13   6   9   73567    1448   1
  14   6   9  144892    2453   1
  15   6   9   20305     807   1
  -8   2 -17   44845    1138  -2
  16   6   9   44845    1138   1
  17   6   9     924     625   1
  18   6   9     551     645   1
  19   6   9    4091     720   1
  20   6   9   82483    1791   1
  21   6   9     771     698   1
  -5 -11  -5  177053    2832  -2
   1   7   9  177053    2832   1
  -5 -10  -6  446207    5147  -2
   2   7   9  446207    5147   1
   3   7   9  851616   10013   1
   4 -15  -1  268297    3543  -3
   4   7   9  268297    3543   1
   5   7   9   69721    1425   1
   6   7   9  286685    4324   1
  -6  -6 -10   19625    2383  -2
   7   7   9   19625    2383   1
   8   7   9  492319    7949   1
   9   7   9    6366     578   1
   3 -20   4    3109     524  -3
  10   7   9    3109     524   1
  11   7   9  166989    2491   1
  12   7   9  249452    6263   1
  -7  -1 -15    6100     589  -2
  13   7   9    6100     589   1
  14   7   9    9635     639   1
  15   7   9   14004    1472   1
  16   7   9    5915     652   1
  17   7   9    6991     686   1
  -8   3 -19   11320     741  -2
  18   7   9   11320     741   1
  19   7   9    3563     710   1
  20   7   9   51396    1404   1
   1 -29  13    1519     750  -3
  21   7   9    1519     750   1
   0   8   9  173529    3122   1
   1   8   9    3476     459   1
   4 -14  -3  204610    3539  -3
   2   8   9  204610    3539   1
  -5 -10  -7  134917    1965  -2
   3   8   9  134917    1965   1
  -5  -9  -8  992200   12929  -2
   4   8   9  992200   12929   1
   5   8   9   25153     874   1
   6   8   9  250162    4029   1
   7   8   9   37153    3397   1
   8   8   9  294927    4371   1
  -6  -5 -12   48203    1951  -2
   9   8   9   48203    1951   1
  10   8   9   40410     910   1
  11   8   9   41837     960   1
  12   8   9  154890    2395   1
   2 -23   6   16782     743  -3
  13   8   9   16782     743   1
  14   8   9   73210    1481   1
  15   8   9   20129    1300   1
  16   8   9   20756     857   1
  17   8   9   10392     720   1
  18   8   9    9781    1332   1
   1 -28  11     874     647  -3
  19   8   9     874     647   1
  -8   4 -21    4419     709  -2
  20   8   9    4419     709   1
   1   9   9   75191    1235   1
   2   9   9  539191    6536   1
   3   9   9  273578    3723   1
   4   9   9   21340     780   1
  -5  -9  -9   21214     891  -2
   5   9   9   21214     891   1
  -5  -8 -10  770008   19995  -2
   6   9   9  770008   19995   1
   7   9   9   65561    1452   1
   8   9   9  799126   11303   1
   9   9   9  106390    2431   1
  10   9   9   74017    1281   1
  -6  -4 -14    1656     511  -2
   2 -22   4    1656     511  -3
  11   9   9    1656     511   1
  12   9   9  179519    2651   1
  13   9   9     708     544   1
  14   9   9  171958    2757   1
  15   9   9    3957     610   1
  16   9   9    4464     659   1
  -7   1 -19   53843    9978  -2
   1 -27   9   53843    9978  -3
  17   9   9   53843    9978   1
  18   9   9   45635    1156   1
  19   9   9   12815     739   1
  20   9   9   41821    1167   1
   0  10   9  153567    3154   1
   1  10   9    7304     584   1
  -4 -12  -7  255044    3459  -2
   2  10   9  255044    3459   1
   3  10   9   86666    1577   1
   3 -17  -2  353609    5157  -3
   4  10   9  353609    5157   1
   5  10   9    2390     636   1
   6  10   9  210388    4030   1
   7  10   9   53290    1165   1
  -5  -7 -12   89692    1508  -2
   8  10   9   89692    1508   1
   2 -21   2  137681    2053  -3
   9  10   9  137681    2053   1
  10  10   9    6894     525   1
  11  10   9   33508    1364   1
  12  10   9   54728    1123   1
  -6  -3 -16   61863    2146  -2
  13  10   9   61863    2146   1
  14  10   9   58108    1250   1
   1 -26   7   87023    1692  -3
  15  10   9   87023    1692   1
  16  10   9  104787    1899   1
  17  10   9    7716     687   1
  18  10   9   18889     811   1
  -7   2 -21   19499    1409  -2
  19  10   9   19499    1409   1
  20  10   9   15726     862   1
   3 -15  -5   51642    1123  -3
   1  11   9   51642    1123   1
   3 -16  -4   68379    1343  -3
   2  11   9   68379    1343   1
   3  11   9  191657    2989   1
  -4 -11  -9   95886    2785  -2
   4  11   9   95886    2785   1
   5  11   9   36841    1012   1
   6  11   9    1247     614   1
   2 -20   0   20241    2502  -3
   7  11   9   20241    2502   1
   8  11   9    2410     525   1
   9  11   9   15940     617   1
  -5  -6 -14   95561   12868  -2
  10  11   9   95561   12868   1
  11  11   9     370     495   1
  12  11   9   35023     888   1
  13  11   9   34214     885   1
  14  11   9   90168    1608   1
  -6  -2 -18    6496    1025  -2
  15  11   9    6496    1025   1
  16  11   9   15899     734   1
  17  11   9    4351     630   1
  18  11   9    4607     678   1
  19  11   9   12676     785   1
  20  11   9    1601     704   1
  -3 -15  -6  238832    5251  -2
   3 -15  -6  238832    5251  -3
   0  12   9  238832    5251   1
  -3 -14  -7  113021    2090  -2
   1  12   9  113021    2090   1
   2  12   9  114010    2026   1
   3  12   9   35474    1042   1
   4  12   9   53260    5011   1
   2 -19  -2   42242    1049  -3
   5  12   9   42242    1049   1
  -4 -10 -11    5696     603  -2
   6  12   9    5696     603   1
   7  12   9   15117     669   1
   8  12   9   55114    1067   1
   9  12   9   27893     729   1
  10  12   9   78903    1598   1
  11  12   9   13618     604   1
  -5  -5 -16  124989    3693  -2
  12  12   9  124989    3693   1
  13  12   9    1729     571   1
  14  12   9   43238    1021   1
  15  12   9   13328     699   1
   0 -28   7     637     607  -3
  16  12   9     637     607   1
  -6  -1 -20    7396     698  -2
  17  12   9    7396     698   1
  18  12   9   13681    1949   1
  19  12   9    1488     699   1
  20  12   9   27801    1758   1
   1  13   9    7753     737   1
   2  13   9     573     696   1
  -3 -13  -9   91649    3045  -2
   2 -18  -4   91649    3045  -3
   3  13   9   91649    3045   1
   4  13   9    4369     648   1
   5  13   9   44181    1043   1
   6  13   9    1695     541   1
   7  13   9    7654     539   1
  -4  -9 -13   99134    1564  -2
   8  13   9   99134    1564   1
   9  13   9    5893     561   1
  10  13   9   24562     776   1
  11  13   9   32058     827   1
  12  13   9   62316    1187   1
  13  13   9   90101    1612   1
  -5  -4 -18    3810     595  -2
  14  13   9    3810     595   1
  15  13   9   35884     979   1
  16  13   9   15166     774   1
  17  13   9    2019     653   1
  18  13   9    2663     667   1
  -6   0 -22     778     698  -2
  19  13   9     778     698   1
   0  14   9   37942    1639   1
   2 -17  -6  183191    3105  -3
   1  14   9  183191    3105   1
   2  14   9   44459    1161   1
   3  14   9   24302    2173   1
   4  14   9  404381    5765   1
  -3 -12 -11   45085    1017  -2
   5  14   9   45085    1017   1
   1 -21  -2   72930    1335  -3
   6  14   9   72930    1335   1
   1 -22  -1   11083     594  -3
   7  14   9   11083     594   1
   8  14   9   20664     997   1
   9  14   9   73565    1314   1
  -4  -8 -15    3954     547  -2
  10  14   9    3954     547   1
  11  14   9    4918     566   1
   0 -26   3   47067    2019  -3
  12  14   9   47067    2019   1
  13  14   9   21585     770   1
  14  14   9    3380     622   1
  15  14   9   73740    1488   1
  -5  -3 -20       3     622  -2
  16  14   9       3     622   1
  17  14   9   16298     802   1
  18  14   9    1392     676   1
  19  14   9   12241     963   1
  -2 -16  -8   23254     829  -2
   1  15   9   23254     829   1
   2  15   9   88174    1641   1
   3  15   9  145024    2418   1
   1 -20  -4    5329     601  -3
   4  15   9    5329     601   1
   1 -21  -3   21990     713  -3
   5  15   9   21990     713   1
   6  15   9   11637     604   1
  -3 -11 -13   10827    1556  -2
   7  15   9   10827    1556   1
   8  15   9   41998     958   1
   9  15   9   22861     842   1
  10  15   9    1470     535   1
  11  15   9    2895     576   1
  -4  -7 -17   11217     805  -2
  12  15   9   11217     805   1
  13  15   9  128996    2121   1
  14  15   9    -164     601   1
  15  15   9    6158     742   1
  16  15   9    1183     629   1
  17  15   9   12982     756   1
  -5  -2 -22    4906     718  -2
  18  15   9    4906     718   1
  19  15   9   21856    1120   1
   0  16   9  102456    2520   1
   1  16   9   68762    2537   1
   1 -19  -6   36074    1773  -3
   2  16   9   36074    1773   1
  -2 -15 -10  219408    4099  -2
   3  16   9  219408    4099   1
   4  16   9    4574     560   1
   5  16   9   25648     733   1
   6  16   9    3218     538   1
   7  16   9   25179     756   1
   0 -24  -1   72139    1375  -3
   8  16   9   72139    1375   1
  -3 -10 -15    5692     607  -2
   9  16   9    5692     607   1
  10  16   9   34124     955   1
  11  16   9  223203    3343   1
  12  16   9   21382     766   1
  13  16   9  247437    3672   1
  -4  -6 -19   23600     823  -2
  14  16   9   23600     823   1
  15  16   9   12531     747   1
  16  16   9   25699     922   1
  17  16   9    -690     694   1
  18  16   9   27024    1003   1
   1  17   9  112834    1909   1
   2  17   9  141777    2204   1
   3  17   9  423657    5929   1
   4  17   9   71247    1297   1
  -2 -14 -12    4693     626  -2
   5  17   9    4693     626   1
   6  17   9     502     524   1
   7  17   9      71     537   1
   8  17   9    7772     648   1
   9  17   9   87790    1668   1
  10  17   9    1680     664   1
  -3  -9 -17   69972    1465  -2
  11  17   9   69972    1465   1
  12  17   9   56612    1245   1
  13  17   9   55827    1236   1
  14  17   9   53755    1267   1
  15  17   9   18328     806   1
  -4  -5 -21    5895     713  -2
  16  17   9    5895     713   1
  -2 -32   6    9096     766  -3
  17  17   9    9096     766   1
  18  17   9    1408     780   1
   0  18   9   17576    1063   1
   1  18   9   90584    1638   1
  -1 -17 -10    1462     570  -2
   2  18   9    1462     570   1
   3  18   9    9734     604   1
   0 -22  -5   26139    2632  -3
   4  18   9   26139    2632   1
   5  18   9   14890     687   1
   6  18   9   30794    2429   1
  -2 -13 -14    1272     579  -2
   7  18   9    1272     579   1
   8  18   9   30618     894   1
  -1 -26  -1   38488    2759  -3
   9  18   9   38488    2759   1
  -1 -27   0     278     626  -3
  10  18   9     278     626   1
  11  18   9  258390    4007   1
  12  18   9    1117     688   1
  -3  -8 -19  102018    1887  -2
  13  18   9  102018    1887   1
  14  18   9   22566     855   1
  -2 -31   4   44837    1198  -3
  15  18   9   44837    1198   1
  16  18   9     492     735   1
  17  18   9   29501    1536   1
   1  19   9   32401    1011   1
   2  19   9   56178    1224   1
   3  19   9   92238    1596   1
  -1 -16 -12   43159     985  -2
   4  19   9   43159     985   1
   5  19   9   92181    1638   1
   6  19   9    3843     599   1
  -1 -25  -3   26896    2851  -3
   7  19   9   26896    2851   1
  -1 -26  -2    1384     604  -3
   8  19   9    1384     604   1
  -2 -12 -16   80945    1593  -2
   9  19   9   80945    1593   1
  10  19   9   43861    1290   1
  11  19   9   80128    1608   1
  12  19   9   11626     746   1
  -2 -30   2   30381    1216  -3
  13  19   9   30381    1216   1
  14  19   9   15622     767   1
  -3  -7 -21   15027    1477  -2
  15  19   9   15027    1477   1
  16  19   9    2311     693   1
  17  19   9    4521     774   1
   0 -20  -9   22918    1131  -2
   0 -20  -9   22918    1131  -3
   0  20   9   22918    1131   1
   1  20   9   93289    1783   1
   2  20   9   29664    1265   1
   3  20   9    7946     636   1
   4  20   9   70282    1368   1
  -1 -24  -5   56893    1272  -3
   5  20   9   56893    1272   1
  -1 -15 -14   64893    2460  -2
   6  20   9   64893    2460   1
   7  20   9   79092    1555   1
   8  20   9    3291     627   1
   9  20   9   69423    1500   1
  10  20   9    8031     718   1
  -2 -11 -18   59273    3324  -2
  -2 -29   0   59273    3324  -3
  11  20   9   59273    3324   1
  12  20   9   16468     806   1
  13  20   9   50759    1228   1
  14  20   9    1403     684   1
  15  20   9    5362    1002   1
  16  20   9   13525     829   1
   1  21   9   33823     973   1
   2  21   9   31408     990   1
  -1 -23  -7   46278    1129  -3
   3  21   9   46278    1129   1
   4  21   9   21065     799   1
   5  21   9     828     626   1
   6  21   9    3807     670   1
   7  21   9     546     626   1
  -1 -14 -16   11232    1347  -2
   8  21   9   11232    1347   1
  -2 -28  -2    4171     655  -3
   9  21   9    4171     655   1
  10  21   9    6218     715   1
  11  21   9  192194    3169   1
  12  21   9   47523    1201   1
  -2 -10 -20  122684    2210  -2
  13  21   9  122684    2210   1
  14  21   9    4992    1071   1
  15  21   9    5742     736   1
  16  21   9    4504     792   1
   0  22   9    2868     903   1
  -1 -22  -9   31336    1172  -3
   1  22   9   31336    1172   1
   2  22   9   11314     776   1
   3  22   9    1101     667   1
   0 -18 -13   21447     844  -2
   4  22   9   21447     844   1
   5  22   9   77407    1582   1
   6  22   9    1447     660   1
  -2 -27  -4    4768     689  -3
   7  22   9    4768     689   1
   8  22   9    3927     710   1
   9  22   9   12297    1788   1
  -1 -13 -18    9463    1383  -2
  10  22   9    9463    1383   1
  11  22   9    6002     733   1
  -3 -31   0   17513     985  -3
  12  22   9   17513     985   1
  13  22   9   30680     996   1
  14  22   9     305     710   1
  15  22   9    1252     763   1
   1 -21 -11    6820     729  -2
   1  23   9    6820     729   1
   2  23   9   28018     986   1
   3  23   9    7001     765   1
   4  23   9   10702    1033   1
  -2 -26  -6    5076     745  -3
   5  23   9    5076     745   1
   6  23   9   42135    1121   1
   7  23   9    8640    1407   1
   8  23   9   11253     740   1
   9  23   9    -409     660   1
  -3 -30  -2   27649     972  -3
  10  23   9   27649     972   1
  11  23   9   11547     786   1
  -1 -12 -20   25445     939  -2
  12  23   9   25445     939   1
  13  23   9    3553     723   1
  14  23   9   14709     832   1
  15  23   9    6357    1418   1
   0  24   9     420     966   1
   1  24   9    1423     708   1
   2  24   9   24185    1308   1
   1 -20 -13   18626    2120  -2
  -2 -25  -8   18626    2120  -3
   3  24   9   18626    2120   1
   4  24   9  202208    3525   1
   5  24   9   14957     815   1
   6  24   9   34490    1049   1
   7  24   9   17087     844   1
   0 -16 -17   56188    1304  -2
  -3 -29  -4   56188    1304  -3
   8  24   9   56188    1304   1
   9  24   9   21670     857   1
  10  24   9    7423     733   1
  11  24   9   12034     807   1
  12  24   9   23466    1536   1
  13  24   9    2591     729   1
  -1 -11 -22   29909    1176  -2
  -4 -34   1   29909    1176  -3
  14  24   9   29909    1176   1
  -2 -24 -10    6266     775  -3
   1  25   9    6266     775   1
   2  25   9   79221    1788   1
   3  25   9    4930     812   1
   4  25   9   33270    1097   1
   1 -19 -15   36038    2741  -2
   5  25   9   36038    2741   1
  -3 -28  -6   16320     847  -3
   6  25   9   16320     847   1
   7  25   9    -640     700   1
   8  25   9   18557     883   1
   9  25   9    3536     721   1
  10  25   9  218704    3544   1
  11  25   9   73952    1616   1
  -4 -33  -1   20792     922  -3
  12  25   9   20792     922   1
  13  25   9   51761    1326   1
   0  26   9    2304    1139   1
   2 -23 -12   20689    1160  -2
   1  26   9   20689    1160   1
   2  26   9  302777    5668   1
   3  26   9   17704     969   1
  -3 -27  -8  561171    9519  -3
   4  26   9  561171    9519   1
   5  26   9   17498    1020   1
   6  26   9  380673    6122   1
   1 -18 -17   17532     869  -2
   7  26   9   17532     869   1
   8  26   9   26364     980   1
   9  26   9    9628     783   1
  -4 -32  -3    4565     730  -3
  10  26   9    4565     730   1
  11  26   9    3886     763   1
  12  26   9    3627     753   1
   1  27   9   40566    1258   1
  -3 -26 -10   75755    2437  -3
   2  27   9   75755    2437   1
   2 -22 -14    7664     870  -2
   3  27   9    7664     870   1
   4  27   9   26760    1066   1
   5  27   9    3376     792   1
   6  27   9  113554    2225   1
   7  27   9   17808    1135   1
  -4 -31  -5   30218    1046  -3
   8  27   9   30218    1046   1
   1 -17 -19   29701    1025  -2
   9  27   9   29701    1025   1
  10  27   9    7313     776   1
  11  27   9   21567     932   1
   3 -25 -12  134733    7727  -2
  -3 -25 -12  134733    7727  -3
   0  28   9  134733    7727   1
   1  28   9   12017     918   1
   2  28   9   36071    1252   1
   3  28   9     911     822   1
   4  28   9  153745    3036   1
   2 -21 -16    1439     785  -2
   5  28   9    1439     785   1
  -4 -30  -7  120871    2397  -3
   6  28   9  120871    2397   1
   7  28   9    5474     775   1
   8  28   9     959     744   1
   9  28   9   14228     883   1
  10  28   9  159984    2978   1
   1  29   9    -282     797   1
   3 -24 -14    3235     832  -2
   2  29   9    3235     832   1
   3  29   9    7844     875   1
  -4 -29  -9   13868     948  -3
   4  29   9   13868     948   1
   5  29   9   64107    1648   1
   6  29   9      64     762   1
   2 -20 -18   13950     882  -2
   7  29   9   13950     882   1
   8  29   9   40025    1193   1
  -5 -33  -5    2727     774  -3
   9  29   9    2727     774   1
   0  30   9    8331    1365   1
   1  30   9    2478     866   1
  -4 -28 -11   18136    1487  -3
   2  30   9   18136    1487   1
   3  30   9    1424     810   1
   3 -23 -16   18218    1304  -2
   4  30   9   18218    1304   1
   5  30   9    2811     804   1
   6  30   9   17465     940   1
  -5 -32  -7    3358     780  -3
   7  30   9    3358     780   1
   1  31   9   30314    4611   1
   2  31   9    4685     863   1
   3  31   9    2024     831   1
   4  31   9    -452     815   1
  -5 -31  -9   24822    1045  -3
   5  31   9   24822    1045   1
   0  32   9    4353    1343   1
   1  32   9   15835    1114   1
   4 -26 -15    3184    1431  -2
   2  32   9    3184    1431   1
   0   0  10  816720   16785   1
   1   0  10    1413     574   1
   2   0  10    2379     626   1
   3   0  10     351     621   1
   4   0  10  778861   14063   1
  -9  -4  -6   12390     920  -2
   5   0  10   12390     920   1
   6   0  10  632533   11800   1
   7   0  10   31647    1283   1
   8   0  10  177986    4269   1
   9   0  10   43766    2122   1
 -10   0 -10  304561    8092  -2
  10   0  10  304561    8092   1
 -10   1 -11   31521    1229  -2
  11   0  10   31521    1229   1
   6 -18   8   49677    1580  -3
  12   0  10   49677    1580   1
  13   0  10    -545     788   1
  14   0  10  558429   11144   1
  15   0  10   19633    1110   1
 -11   5 -15   24392    1316  -2
  16   0  10   24392    1316   1
  17   0  10   12253    2273   1
  18   0  10  481488   12232   1
  19   0  10    5632    1098   1
  20   0  10    3306    1053   1
  21   0  10    5372    1076   1
  -8  -8  -3    4710     443  -2
   1   1  10    4710     443   1
   2   1  10     840     431   1
   3   1  10   17380     885   1
   7 -12   1   23406     734  -3
   4   1  10   23406     734   1
   5   1  10   12584     679   1
   6   1  10  234199    3418   1
  -9  -3  -8   70247   15267  -2
   7   1  10   70247   15267   1
   8   1  10  278067    4552   1
   9   1  10  685029   10112   1
   6 -17   6  127710    4173  -3
  10   1  10  127710    4173   1
  11   1  10    1163     568   1
 -10   1 -12   21639     763  -2
  12   1  10   21639     763   1
 -10   2 -13   17252     706  -2
  13   1  10   17252     706   1
  14   1  10     866     568   1
  15   1  10    9475     682   1
  16   1  10     919     642   1
  17   1  10    1080     672   1
 -11   6 -17  101475    2183  -2
  18   1  10  101475    2183   1
  19   1  10    7303     783   1
  20   1  10   24701    1023   1
   4 -26  15   14201     896  -3
  21   1  10   14201     896   1
   0   2  10  122560    2275   1
   1   2  10    7966     848   1
   7 -11  -1   14559     552  -3
   2   2  10   14559     552   1
  -8  -7  -5   28700     930  -2
   3   2  10   28700     930   1
   4   2  10  102163    1641   1
   5   2  10    5187     599   1
   6   2  10   28066    1519   1
   7   2  10     279     645   1
   8   2  10   10785     763   1
  -9  -2 -10   85539    2355  -2
   9   2  10   85539    2355   1
  10   2  10  104617    1810   1
  11   2  10    2688     571   1
  12   2  10   13249     678   1
  13   2  10   44328    1064   1
  14   2  10  130338    2175   1
 -10   3 -15   35213     985  -2
  15   2  10   35213     985   1
  16   2  10   31683     953   1
  17   2  10    6639     708   1
  18   2  10   89096    1961   1
   4 -25  13   21503     975  -3
  19   2  10   21503     975   1
 -11   7 -19   60256    1604  -2
  20   2  10   60256    1604   1
  21   2  10    1117     798   1
   1   3  10   11023    1259   1
   2   3  10    1103     434   1
   3   3  10    3480     508   1
   4   3  10     458     518   1
  -8  -6  -7  111066    1827  -2
   5   3  10  111066    1827   1
  -8  -5  -8   57718    3292  -2
   6   3  10   57718    3292   1
   7   3  10    5453     702   1
   8   3  10   36710    1069   1
   9   3  10  133289    2114   1
  10   3  10   26811     809   1
  -9  -1 -12   24347     794  -2
  11   3  10   24347     794   1
  12   3  10   27684     842   1
  13   3  10   24678     801   1
  14   3  10  229101    3572   1
  15   3  10   33991     987   1
  16   3  10   12064     712   1
 -10   4 -17   12793     741  -2
   4 -24  11   12793     741  -3
  17   3  10   12793     741   1
  18   3  10  287495    4916   1
  19   3  10    2120     678   1
  20   3  10   23567    1016   1
  21   3  10     701     868   1
   0   4  10     732     591   1
   1   4  10   88211    1281   1
  -7  -9  -5   77693    1239  -2
   2   4  10   77693    1239   1
   3   4  10   12286     852   1
   4   4  10     297     524   1
   5   4  10   76581    1419   1
   6   4  10   14129     775   1
  -8  -5  -9    3829     690  -2
   7   4  10    3829     690   1
  -8  -4 -10   41593    5603  -2
   8   4  10   41593    5603   1
   5 -18   4    5144     572  -3
   9   4  10    5144     572   1
  10   4  10    5366     575   1
  11   4  10   10475     643   1
  12   4  10    8407     613   1
  -9   0 -14   23611     949  -2
  13   4  10   23611     949   1
  14   4  10   45236    1137   1
   4 -23   9   62545    1380  -3
  15   4  10   62545    1380   1
  16   4  10   28300     952   1
  17   4  10    8523     697   1
  18   4  10  152311    2765   1
 -10   5 -19   38836    1479  -2
  19   4  10   38836    1479   1
  20   4  10   13506     826   1
   1   5  10   22314     652   1
   2   5  10    6792     510   1
   3   5  10   73074    1271   1
  -7  -8  -7   22862    2183  -2
   4   5  10   22862    2183   1
   5   5  10  342777    4923   1
   6   5  10   74982    1554   1
   5 -17   2    2808     708  -3
   7   5  10    2808     708   1
   8   5  10   62224    1362   1
   9   5  10  157716    2408   1
  -8  -3 -12    8164     609  -2
  10   5  10    8164     609   1
  11   5  10   39549    2530   1
  12   5  10    9115     629   1
   4 -22   7  259515    4064  -3
  13   5  10  259515    4064   1
  14   5  10  102289    1929   1
  -9   1 -16  211137    3470  -2
  15   5  10  211137    3470   1
  16   5  10    8674     704   1
  17   5  10   10485    1168   1
  18   5  10   31975    1057   1
  19   5  10   12205     780   1
  20   5  10   14217     818   1
  -6 -12  -4  111943    2260  -2
   6 -12  -4  111943    2260  -3
   0   6  10  111943    2260   1
  -6 -11  -5  222675    2711  -2
   1   6  10  222675    2711   1
   2   6  10   51286     973   1
   3   6  10  241156    3149   1
   4   6  10   21918    1166   1
   5 -16   0  216353    3445  -3
   5   6  10  216353    3445   1
  -7  -7  -9   62083    1378  -2
   6   6  10   62083    1378   1
   7   6  10   73795    1608   1
   8   6  10   50124    1198   1
   9   6  10  211761    3176   1
  10   6  10    3593     544   1
  11   6  10    6436     582   1
  -8  -2 -14   14440    3431  -2
  12   6  10   14440    3431   1
  13   6  10   13930     869   1
  14   6  10   49462    1173   1
  15   6  10   69739    1483   1
  16   6  10   18447     800   1
  -9   2 -18  101247    1956  -2
  17   6  10  101247    1956   1
  18   6  10   17462     835   1
  19   6  10    1487     673   1
  20   6  10   12742     813   1
   1   7  10   55526    1006   1
  -6 -11  -6   56403    3593  -2
   2   7  10   56403    3593   1
  -6 -10  -7   99475    2564  -2
   5 -15  -2   99475    2564  -3
   3   7  10   99475    2564   1
   4   7  10    1025     586   1
   5   7  10    2825     641   1
   6   7  10   13103     776   1
   7   7  10  288646    7378   1
  -7  -6 -11   37273    1709  -2
   8   7  10   37273    1709   1
   9   7  10   16081     785   1
  10   7  10    4297     552   1
  11   7  10   89694    1555   1
  12   7  10   82761    1486   1
  13   7  10   10930     705   1
  -8  -1 -16   70919    1490  -2
   3 -24   7   70919    1490  -3
  14   7  10   70919    1490   1
  15   7  10  122522    2215   1
  16   7  10    2284     640   1
  17   7  10   71746    1564   1
  18   7  10   11405     771   1
  -9   3 -20    8324     737  -2
  19   7  10    8324     737   1
   2 -29  12    2941     663  -3
  20   7  10    2941     663   1
   0   8  10   83651    2798   1
   5 -14  -4  482711    6004  -3
   1   8  10  482711    6004   1
   2   8  10  136392    2040   1
   3   8  10 2203520   28446   1
  -6 -10  -8  188581    3072  -2
   4   8  10  188581    3072   1
  -6  -9  -9  885008   19477  -2
   5   8  10  885008   19477   1
   6   8  10  125987    3155   1
   7   8  10  159594    2550   1
   8   8  10   14063     643   1
   9   8  10   89691    1562   1
  -7  -5 -13    7663     579  -2
  10   8  10    7663     579   1
  11   8  10   11859     623   1
   3 -23   5   50921    2099  -3
  12   8  10   50921    2099   1
  13   8  10  129534    2204   1
  14   8  10    4082     621   1
  15   8  10  223041    3732   1
  -8   0 -18   53204    1976  -2
  16   8  10   53204    1976   1
  17   8  10    7845     699   1
   2 -28  10   10140     723  -3
  18   8  10   10140     723   1
  19   8  10    3467     674   1
  20   8  10     620     657   1
  -5 -13  -6   59029    2620  -2
   1   9  10   59029    2620   1
   2   9  10   62051    2158   1
   3   9  10  471758    6396   1
   4   9  10   22972     865   1
   5   9  10  157766    2716   1
   6   9  10    3841     647   1
  -6  -8 -11  272052    3988  -2
   7   9  10  272052    3988   1
   8   9  10   11363     852   1
   9   9  10   26476    1279   1
   3 -22   3     942     516  -3
  10   9  10     942     516   1
  11   9  10   34121     858   1
  -7  -4 -15   84968    1527  -2
  12   9  10   84968    1527   1
  13   9  10  269607    3945   1
  14   9  10    4918     607   1
  15   9  10  113041    2069   1
  16   9  10    2331     636   1
  17   9  10    9275     715   1
  -8   1 -20    1618     638  -2
  18   9  10    1618     638   1
  19   9  10    2991     662   1
  20   9  10    5492    1176   1
   0  10  10    8638     917   1
   1  10  10  706769    9961   1
   4 -16  -4   70588    1459  -3
   2  10  10   70588    1459   1
  -5 -12  -8  101765    2983  -2
   3  10  10  101765    2983   1
   4  10  10   43395    1114   1
   5  10  10 1335814   20005   1
   6  10  10     604     570   1
   7  10  10    8015     603   1
   3 -21   1    -128     488  -3
   8  10  10    -128     488   1
  -6  -7 -13  255156    3550  -2
   9  10  10  255156    3550   1
  10  10  10   29761     832   1
  11  10  10  116003    1905   1
  12  10  10    3842     566   1
  13  10  10  287220    4286   1
  -7  -3 -17   45452    1105  -2
  14  10  10   45452    1105   1
  15  10  10    2738     621   1
  16  10  10   64590    1422   1
  17  10  10   92729    1792   1
  18  10  10    1410     634   1
  19  10  10    3579     696   1
  -8   2 -22     303     796  -2
  20  10  10     303     796   1
   4 -16  -5  109620    2037  -3
   1  11  10  109620    2037   1
   2  11  10    7876     721   1
   3  11  10   41995    1130   1
   4  11  10  172110    2865   1
  -5 -11 -10  581139   13317  -2
   5  11  10  581139   13317   1
   3 -20  -1    3536     588  -3
   6  11  10    3536     588   1
   7  11  10   51540    1485   1
   8  11  10    -453     492   1
   9  11  10   64974    1165   1
  10  11  10   13331     621   1
  -6  -6 -15   98277    1853  -2
  11  11  10   98277    1853   1
  12  11  10   16274    1326   1
  13  11  10   82623    1563   1
  14  11  10  101413    1811   1
  15  11  10   39951    1035   1
  -7  -2 -19    2625     620  -2
  16  11  10    2625     620   1
   1 -29   8   11219    1118  -3
  17  11  10   11219    1118   1
  18  11  10    5446     727   1
  19  11  10    -660     660   1
   0  12  10    1549     990   1
   1  12  10   49413    1241   1
  -4 -14  -8  405411    6477  -2
   2  12  10  405411    6477   1
   3  12  10   61255    1502   1
   3 -19  -3  298799    4543  -3
   4  12  10  298799    4543   1
   5  12  10   44514    1014   1
   6  12  10    -355     557   1
  -5 -10 -12   46604     968  -2
   7  12  10   46604     968   1
   8  12  10    2753     496   1
   9  12  10   28654     748   1
  10  12  10    8085     591   1
  11  12  10  107694    1835   1
  12  12  10    1317     580   1
  -6  -5 -17  107029    1878  -2
  13  12  10  107029    1878   1
  14  12  10   27803     864   1
   1 -28   6   51652    1212  -3
  15  12  10   51652    1212   1
  16  12  10   11410     731   1
  17  12  10   21273     890   1
  -7  -1 -21   11986    1237  -2
  18  12  10   11986    1237   1
  19  12  10   54506    1401   1
   1  13  10   79662    3499   1
   3 -18  -5  162364    5494  -3
   2  13  10  162364    5494   1
   3  13  10   43287    1260   1
  -4 -13 -10  121685    4094  -2
   4  13  10  121685    4094   1
   5  13  10    2543     683   1
   6  13  10     628     523   1
   7  13  10   97504    1561   1
   8  13  10    5950     614   1
  -5  -9 -14  236535    3258  -2
   9  13  10  236535    3258   1
  10  13  10   61714    1178   1
  11  13  10   75895    1442   1
  12  13  10   28605     855   1
   1 -27   4  332261    4911  -3
  13  13  10  332261    4911   1
  14  13  10  148358    2421   1
  -6  -4 -19   28163    1625  -2
  15  13  10   28163    1625   1
  16  13  10    1270     657   1
  17  13  10   14724    1884   1
  18  13  10    1813     711   1
  19  13  10    2563     729   1
  -3 -17  -7   10367     968  -2
   3 -17  -7   10367     968  -3
   0  14  10   10367     968   1
   1  14  10   12157     690   1
   2  14  10  142719    4361   1
   3  14  10   92201    1628   1
   4  14  10  193214    3266   1
   2 -21  -3    2588     538  -3
   5  14  10    2588     538   1
  -4 -12 -12   15516    1906  -2
   6  14  10   15516    1906   1
   7  14  10   15654     832   1
   8  14  10    2493     546   1
   9  14  10   47490    1037   1
  10  14  10   24695     749   1
  -5  -8 -16   83557    8164  -2
   1 -26   2   83557    8164  -3
  11  14  10   83557    8164   1
  12  14  10   39302     983   1
  13  14  10    2817     613   1
  14  14  10   10267     680   1
  15  14  10   24366     871   1
  16  14  10     572     665   1
  -6  -3 -21    3901     703  -2
  17  14  10    3901     703   1
  18  14  10   17123     887   1
   1  15  10  101414    1739   1
  -3 -16  -9  147342    5001  -2
   2  15  10  147342    5001   1
   2 -20  -5  169976    2803  -3
   3  15  10  169976    2803   1
   4  15  10   60309    1254   1
   5  15  10  154998    2277   1
   6  15  10   17250     655   1
   7  15  10   12935     740   1
  -4 -11 -14   16202     757  -2
   8  15  10   16202     757   1
   1 -25   0    7990     762  -3
   9  15  10    7990     762   1
  10  15  10   43891    1020   1
  11  15  10    1413     557   1
  12  15  10   43587    1014   1
  -5  -7 -18   50676    1217  -2
  13  15  10   50676    1217   1
  14  15  10   18363     803   1
  15  15  10   24192     873   1
  16  15  10    5070     696   1
  17  15  10   15186     829   1
  18  15  10   68891    1564   1
   0  16  10   14985     935   1
   2 -19  -7   29778     918  -3
   1  16  10   29778     918   1
   2  16  10   69826    1343   1
   3  16  10  104993    1757   1
  -3 -15 -11   60208    1168  -2
   4  16  10   60208    1168   1
   5  16  10   12012     827   1
   6  16  10    5874     667   1
   1 -24  -2    6470     611  -3
   7  16  10    6470     611   1
   8  16  10     462     599   1
   9  16  10    1423     597   1
  -4 -10 -16    6163     911  -2
  10  16  10    6163     911   1
  11  16  10    9531     676   1
  12  16  10   23146     800   1
  13  16  10   58114    1287   1
  14  16  10   98718    1870   1
  -5  -6 -20  142887    2477  -2
  15  16  10  142887    2477   1
  16  16  10   11025     738   1
  17  16  10    1853     710   1
  -1 -33   7   59938    1507  -3
  18  16  10   59938    1507   1
  -2 -18  -9    7483     652  -2
   1  17  10    7483     652   1
   2  17  10   20308     732   1
   3  17  10   16368     757   1
   4  17  10   19761     703   1
   1 -23  -4   13351     653  -3
   5  17  10   13351     653   1
  -3 -14 -13    5724     626  -2
   6  17  10    5724     626   1
   7  17  10     789     584   1
   8  17  10   23617     886   1
   9  17  10    1755     619   1
  10  17  10   23058     859   1
  11  17  10     574     629   1
  -4  -9 -18   13055     739  -2
  12  17  10   13055     739   1
  13  17  10    9108     684   1
  14  17  10    2235     682   1
  15  17  10    6928     726   1
  -1 -32   5   20210     859  -3
  16  17  10   20210     859   1
  -5  -5 -22   12857     793  -2
  17  17  10   12857     793   1
   0  18  10    4780     865   1
   1  18  10   20240     762   1
   2  18  10   72300    1436   1
  -2 -17 -11  118100    1960  -2
   1 -22  -6  118100    1960  -3
   3  18  10  118100    1960   1
   4  18  10  385799    5444   1
   5  18  10   59565    1198   1
   6  18  10   32610     887   1
   7  18  10   45393    1061   1
  -3 -13 -15   49886    1451  -2
   0 -26  -2   49886    1451  -3
   8  18  10   49886    1451   1
   9  18  10   26212    1006   1
  10  18  10   16466     774   1
  11  18  10   12026     745   1
  12  18  10   30371     949   1
  13  18  10   23575     933   1
  -4  -8 -20   30043    1029  -2
  -1 -31   3   30043    1029  -3
  14  18  10   30043    1029   1
  15  18  10   34090    1095   1
  16  18  10   24512     956   1
  17  18  10    1059     748   1
   1 -21  -8    3774     636  -3
   1  19  10    3774     636   1
   2  19  10  236805    3686   1
   3  19  10    2467     603   1
   4  19  10   63959    1288   1
  -2 -16 -13   43851    4872  -2
   5  19  10   43851    4872   1
   6  19  10    -172     619   1
   7  19  10    6044     683   1
   8  19  10    1287     656   1
   9  19  10   16748     805   1
  -3 -12 -17   16281     799  -2
  10  19  10   16281     799   1
  11  19  10    3861     682   1
  -1 -30   1    9389     724  -3
  12  19  10    9389     724   1
  13  19  10   25376     908   1
  14  19  10     553     684   1
  15  19  10    7209     717   1
  -4  -7 -22   54046    1324  -2
  16  19  10   54046    1324   1
   0  20  10    1229     866   1
  -1 -20 -10   11653     717  -2
   1  20  10   11653     717   1
   2  20  10  121477    2132   1
   3  20  10   78480    1536   1
   0 -24  -6   11176     679  -3
   4  20  10   11176     679   1
   5  20  10   35620     965   1
   6  20  10   34253     994   1
  -2 -15 -15    5943     689  -2
   7  20  10    5943     689   1
   8  20  10    8838     966   1
   9  20  10    3473     685   1
  -1 -29  -1   20801    1869  -3
  10  20  10   20801    1869   1
  11  20  10   64521    1438   1
  -3 -11 -19   20117     844  -2
  12  20  10   20117     844   1
  13  20  10   42932    1123   1
  14  20  10   38935    1089   1
  15  20  10   10050     782   1
  16  20  10   31975    1097   1
   1  21  10   93920    1791   1
   2  21  10    2036     667   1
  -1 -19 -12   46949    1189  -2
   3  21  10   46949    1189   1
   4  21  10   25634    1095   1
   5  21  10    5142     670   1
   6  21  10   16030    1193   1
   7  21  10   24820    1386   1
  -1 -28  -3   28028     952  -3
   8  21  10   28028     952   1
  -2 -14 -17   10904     763  -2
   9  21  10   10904     763   1
  10  21  10   10322    1031   1
  11  21  10    4608     728   1
  12  21  10   15163    1804   1
  13  21  10   18526     858   1
  -3 -10 -21    2151     715  -2
  14  21  10    2151     715   1
  15  21  10    8597     791   1
   0 -22 -10   21422    1154  -2
   0 -22 -10   21422    1154  -3
   0  22  10   21422    1154   1
   1  22  10    5716     969   1
   2  22  10   91108    1873   1
   3  22  10    5816     756   1
   4  22  10   93444    1829   1
  -1 -18 -14   37848    1661  -2
   5  22  10   37848    1661   1
  -1 -27  -5    5954     698  -3
   6  22  10    5954     698   1
   7  22  10   22877    1008   1
   8  22  10    4635     745   1
   9  22  10    2331     696   1
  10  22  10    6749     740   1
  -2 -13 -19   50328    1275  -2
  -2 -31  -1   50328    1275  -3
  11  22  10   50328    1275   1
  12  22  10   25853     944   1
  13  22  10   79596    1650   1
  14  22  10     520     703   1
  15  22  10    5708     953   1
   1  23  10   30661     992   1
   2  23  10   24719     961   1
   3  23  10    3482     834   1
  -1 -26  -7    4286     738  -3
   4  23  10    4286     738   1
   5  23  10   24536     933   1
   6  23  10    2425     691   1
  -1 -17 -16   18348     842  -2
   7  23  10   18348     842   1
   8  23  10   47617    1550   1
  -2 -30  -3   30703    1010  -3
   9  23  10   30703    1010   1
  10  23  10    1439     714   1
  11  23  10   43672    1182   1
  12  23  10    -708     708   1
  -2 -12 -21   13740     820  -2
  13  23  10   13740     820   1
  14  23  10    8459    1000   1
   0  24  10    7373    1065   1
   1  24  10    2853     731   1
  -1 -25  -9    1202     721  -3
   2  24  10    1202     721   1
   3  24  10   24752    1011   1
   0 -20 -14    5328     810  -2
   4  24  10    5328     810   1
   5  24  10   65946    1514   1
   6  24  10    9259     775   1
  -2 -29  -5  238680    3899  -3
   7  24  10  238680    3899   1
   8  24  10    1527     718   1
  -1 -16 -18    5428     751  -2
   9  24  10    5428     751   1
  10  24  10   19243     883   1
  11  24  10   29666     999   1
  12  24  10   13161     826   1
  -3 -34   0    2887     736  -3
  13  24  10    2887     736   1
   1  25  10    2227     746   1
   2  25  10    2117     757   1
   3  25  10   22871    1105   1
   4  25  10   13832     909   1
  -2 -28  -7  268630    4540  -3
   5  25  10  268630    4540   1
   6  25  10   50296    1306   1
   7  25  10  148295    2744   1
   8  25  10   50859    1309   1
   9  25  10  103971    2061   1
  10  25  10   48504    1279   1
  -1 -15 -20   21533     905  -2
  -3 -33  -2   21533     905  -3
  11  25  10   21533     905   1
  12  25  10     530     727   1
   0  26  10   30797    1580   1
   1  26  10  141617    2725   1
   1 -23 -13   24736    1021  -2
   2  26  10   24736    1021   1
  -2 -27  -9   77459    4015  -3
   3  26  10   77459    4015   1
   4  26  10   35655    1252   1
   5  26  10   14579     906   1
   6  26  10   26281     984   1
   7  26  10  258392    4398   1
   0 -18 -18   23506     961  -2
   8  26  10   23506     961   1
  -3 -32  -4    4194     781  -3
   9  26  10    4194     781   1
  10  26  10   10571     830   1
  11  26  10   14254     861   1
  -2 -26 -11  267235   45345  -3
   1  27  10  267235   45345   1
   2  27  10    -802     802   1
   3  27  10    5340     840   1
   1 -22 -15    7421     882  -2
   4  27  10    7421     882   1
   5  27  10  261214    4983   1
   6  27  10   20558     953   1
  -3 -31  -6  119922    2325  -3
   7  27  10  119922    2325   1
   8  27  10   11788     833   1
   9  27  10    1908     839   1
  10  27  10   29296    1090   1
   0  28  10    6706    1188   1
   2 -25 -13   22219    1028  -2
   1  28  10   22219    1028   1
   2  28  10   11044     913   1
   3  28  10   49364    1478   1
   4  28  10    8658     886   1
  -3 -30  -8   40527    1343  -3
   5  28  10   40527    1343   1
   1 -21 -17    6889     839  -2
   6  28  10    6889     839   1
   1 -20 -18     285     751  -2
   7  28  10     285     751   1
   8  28  10    3231     770   1
   9  28  10   16369     975   1
   1  29  10     695     835   1
   2  29  10    2072     828   1
   2 -24 -15   12824    1794  -2
  -3 -29 -10   12824    1794  -3
   3  29  10   12824    1794   1
   4  29  10    1410     808   1
   5  29  10   20942    1040   1
   6  29  10    9063     874   1
   7  29  10  103740    2247   1
   1 -20 -19    1828     820  -2
  -4 -33  -6    1828     820  -3
   8  29  10    1828     820   1
   0  30  10    5833    1265   1
  -3 -28 -12   16052    1026  -3
   1  30  10   16052    1026   1
   2  30  10    1566     823   1
   3  30  10     -20     813   1
   4  30  10    5128     857   1
   2 -23 -17    1299     823  -2
   5  30  10    1299     823   1
  -4 -32  -8    5437     842  -3
   6  30  10    5437     842   1
   3 -27 -14    4551    1031  -2
   1  31  10    4551    1031   1
   2  31  10   16934    2294   1
   3  31  10    5896     856   1
  -4 -31 -10    -211    2001  -3
   4  31  10    -211    2001   1
   1   1  11  262465    3242   1
  -9  -8  -4  138145   31354  -2
   2   1  11  138145   31354   1
   8 -12   0 1840017   25464  -3
   3   1  11 1840017   25464   1
   4   1  11   30369    1520   1
   5   1  11   15056     745   1
   6   1  11     951     631   1
   7   1  11  137937    2419   1
 -10  -3  -9   10943     609  -2
   8   1  11   10943     609   1
   9   1  11  561899    9557   1
  10   1  11   36768     975   1
  11   1  11    5592     605   1
  12   1  11    8334     651   1
  13   1  11   77575    1524   1
 -11   2 -14   27614     875  -2
  14   1  11   27614     875   1
  15   1  11   74325    1553   1
  16   1  11    6220     702   1
  17   1  11   13831     835   1
  18   1  11    4669     745   1
 -12   6 -18   46538    1385  -2
  19   1  11   46538    1385   1
   5 -26  14    4544     798  -3
  20   1  11    4544     798   1
   0   2  11    1408     680   1
   8 -11  -2   35935    1716  -3
   1   2  11   35935    1716   1
   2   2  11    1352     545   1
   3   2  11   98701    1700   1
  -9  -6  -7   34008     977  -2
   5   2  11   34008     977   1
   6   2  11   99011    1899   1
   7   2  11   21106    1982   1
   8   2  11    -100     522   1
   9   2  11  118107    3603   1
 -10  -2 -11   86982    2430  -2
  10   2  11   86982    2430   1
  11   2  11    1195     592   1
  12   2  11   27338     856   1
  13   2  11   26820    5429   1
  14   2  11  121743    2146   1
  15   2  11   65497    1423   1
 -11   3 -16   90006    1838  -2
  16   2  11   90006    1838   1
  17   2  11    5735     713   1
   5 -25  12   28018    1057  -3
  18   2  11   28018    1057   1
  19   2  11   69266    1701   1
  20   2  11    7406     793   1
  -8 -10  -4  193072    2589  -2
   1   3  11  193072    2589   1
   2   3  11   54556    1126   1
   3   3  11   27517     833   1
   4   3  11   30117     895   1
   5   3  11   89440    1702   1
  -9  -6  -8  164932    2755  -2
   6   3  11  164932    2755   1
  -9  -5  -9   88829    1722  -2
   7   3  11   88829    1722   1
   8   3  11    1701     536   1
   9   3  11   29871     836   1
   6 -19   5    4989     604  -3
  10   3  11    4989     604   1
  11   3  11    6087     708   1
 -10  -1 -13    5378     616  -2
  12   3  11    5378     616   1
  13   3  11   16304     758   1
  14   3  11    1286     612   1
  15   3  11   69607    1513   1
   5 -24  10   31786    1788  -3
  16   3  11   31786    1788   1
  17   3  11   16015     826   1
 -11   4 -18   12775     831  -2
  18   3  11   12775     831   1
  19   3  11     597     716   1
  20   3  11     972     723   1
   0   4  11    9579     813   1
   1   4  11    9816     594   1
   2   4  11    6213     769   1
  -8  -9  -6   59534    5607  -2
   3   4  11   59534    5607   1
   4   4  11   10550     659   1
   5   4  11   16425     807   1
   6   4  11  310937    4916   1
   7   4  11  121815    2125   1
   6 -18   3   46447    4749  -3
   8   4  11   46447    4749   1
  -9  -4 -11   44249    2144  -2
   9   4  11   44249    2144   1
  10   4  11    8702     617   1
  11   4  11    6062     623   1
  12   4  11   67531    1400   1
  13   4  11   82393    1624   1
  14   4  11    6384     656   1
  15   4  11   27520     951   1
  16   4  11  117576    2184   1
  17   4  11   34473    1057   1
  18   4  11    1035     674   1
  19   4  11   23995     974   1
 -11   5 -20    6114    1477  -2
  20   4  11    6114    1477   1
   1   5  11  308235    3960   1
   2   5  11    6739     587   1
   3   5  11   16323     723   1
   4   5  11   24849    1761   1
  -8  -8  -8   16662    1128  -2
   5   5  11   16662    1128   1
   6 -17   1  197570    3380  -3
   6   5  11  197570    3380   1
   7   5  11   82132    5887   1
   8   5  11   28236     812   1
   9   5  11   16230     698   1
  10   5  11    1363     565   1
  -9  -3 -13    2966     605  -2
  11   5  11    2966     605   1
  12   5  11   40143    1045   1
  13   5  11     802     612   1
  14   5  11   30198     959   1
  15   5  11    5988     684   1
 -10   1 -17   26685     970  -2
  16   5  11   26685     970   1
  17   5  11    6702     968   1
  18   5  11    2002     795   1
  19   5  11    2618     726   1
  20   5  11   11992     837   1
   0   6  11  105857    2470   1
  -7 -12  -5    3776     583  -2
   1   6  11    3776     583   1
  -7 -11  -6   14994     681  -2
   2   6  11   14994     681   1
   3   6  11   14439     726   1
   6 -16  -1   73910    1902  -3
   4   6  11   73910    1902   1
   5   6  11   61560   26699   1
   6   6  11  161753    4873   1
  -8  -7 -10   70866    1447  -2
   7   6  11   70866    1447   1
   8   6  11   60164    1215   1
   9   6  11     362     516   1
  10   6  11   18399     707   1
  11   6  11    7513     656   1
  12   6  11   38759    1025   1
  -9  -2 -15   10184     772  -2
  13   6  11   10184     772   1
  14   6  11  214345    3542   1
   4 -25   8    8659     718  -3
  15   6  11    8659     718   1
  16   6  11  137211    2500   1
  17   6  11    6601     727   1
 -10   2 -19   21997     903  -2
  18   6  11   21997     903   1
  19   6  11   12444     814   1
  20   6  11    1890     699   1
   1   7  11     641     582   1
   6 -15  -3  565769    7629  -3
   2   7  11  565769    7629   1
  -7 -11  -7   95719    4794  -2
   3   7  11   95719    4794   1
  -7 -10  -8  193100   14110  -2
   4   7  11  193100   14110   1
   5   7  11    4853     706   1
   6   7  11   28681     889   1
   7   7  11   31215     878   1
   8   7  11    6654     826   1
  -8  -6 -12   20807     702  -2
   9   7  11   20807     702   1
  10   7  11   88593    1576   1
  11   7  11   10057     641   1
  12   7  11   72624    1513   1
   4 -24   6   11894    1342  -3
  13   7  11   11894    1342   1
  14   7  11   75561    2295   1
  -9  -1 -17   88904   13943  -2
  15   7  11   88904   13943   1
  16   7  11   28817    1000   1
  17   7  11   15921     852   1
  18   7  11    7832     729   1
   3 -29  11    2312     680  -3
  19   7  11    2312     680   1
 -10   3 -21     524     795  -2
  20   7  11     524     795   1
  -6 -14  -5 1203845   23223  -2
   6 -14  -5 1203845   23223  -3
   0   8  11 1203845   23223   1
   1   8  11    4239     743   1
   2   8  11  326392    4776   1
   3   8  11   33806     999   1
   4   8  11  489645    7539   1
   5   8  11   22564    1301   1
  -7  -9 -10   60080   19879  -2
   6   8  11   60080   19879   1
   7   8  11    9165     614   1
   8   8  11   70269    1279   1
   9   8  11   42249     939   1
  10   8  11  178532    2617   1
  -8  -5 -14   56037    1135  -2
   4 -23   4   56037    1135  -3
  11   8  11   56037    1135   1
  12   8  11  133121    3157   1
  13   8  11   25760     910   1
  14   8  11   19131     813   1
  15   8  11   11093     742   1
  16   8  11   37552    1079   1
  17   8  11   10434     903   1
  18   8  11    -535     651   1
  19   8  11    4283     690   1
   1   9  11   13672     775   1
  -6 -13  -7  797666   11841  -2
   2   9  11  797666   11841   1
   3   9  11    1963     662   1
   4   9  11  450211    7132   1
   5   9  11   78247    1514   1
   6   9  11  351367    4971   1
   7   9  11   30960     782   1
  -7  -8 -12   82734   23075  -2
   8   9  11   82734   23075   1
   4 -22   2    2506     529  -3
   9   9  11    2506     529   1
  10   9  11  262674    3664   1
  11   9  11     596     533   1
  12   9  11   22609     755   1
  -8  -4 -16    7165     623  -2
  13   9  11    7165     623   1
  14   9  11  290218    4627   1
  15   9  11   10929     747   1
  16   9  11  224079    3728   1
  17   9  11   32265    1037   1
  18   9  11   70555    1557   1
  -9   1 -21    -201     664  -2
  19   9  11    -201     664   1
   0  10  11  934849   19221   1
   5 -16  -5   85828   47439  -3
   1  10  11   85828   47439   1
   2  10  11  261336    4331   1
   3  10  11    1987     651   1
  -6 -12  -9   10499     679  -2
   4  10  11   10499     679   1
   5  10  11   79103    1470   1
   6  10  11    5755     596   1
   4 -21   0   34850    2457  -3
   7  10  11   34850    2457   1
   8  10  11   86817    1457   1
   9  10  11   12110     673   1
  -7  -7 -14      92     522  -2
  10  10  11      92     522   1
  11  10  11    6189     592   1
  12  10  11    4953     813   1
  13  10  11   63436    1307   1
  14  10  11    2454     645   1
  -8  -3 -18   17833    1876  -2
  15  10  11   17833    1876   1
  16  10  11    2128     669   1
  17  10  11   29099     980   1
   2 -30   9   53370    1307  -3
  18  10  11   53370    1307   1
  19  10  11   31104    1032   1
  -5 -15  -7   18214    1577  -2
   1  11  11   18214    1577   1
   2  11  11  140302    2329   1
   3  11  11    7080     685   1
   4  11  11   56065    1193   1
   4 -20  -2   59744    2414  -3
   5  11  11   59744    2414   1
  -6 -11 -11   22027     727  -2
   6  11  11   22027     727   1
   7  11  11   18300     619   1
   8  11  11   50154    1022   1
   9  11  11    -282     510   1
  10  11  11   32029     851   1
  11  11  11   25056     784   1
  -7  -6 -16   16797    2665  -2
  12  11  11   16797    2665   1
  13  11  11    8118     654   1
  14  11  11   94422    1819   1
  15  11  11    9734     721   1
   2 -29   7   29779    1056  -3
  16  11  11   29779    1056   1
  -8  -2 -20   18752    1619  -2
  17  11  11   18752    1619   1
  18  11  11   52159    1298   1
  19  11  11    1209     675   1
   0  12  11  187169    4071   1
   1  12  11   12243     666   1
   2  12  11    8184     650   1
  -5 -14  -9   25365    1789  -2
   4 -19  -4   25365    1789  -3
   3  12  11   25365    1789   1
   4  12  11   51825    1139   1
   5  12  11   39220     950   1
   6  12  11   65591    1198   1
   7  12  11    1504     514   1
  -6 -10 -13   17017    2068  -2
   8  12  11   17017    2068   1
   9  12  11   20932     997   1
  10  12  11   10666     639   1
  11  12  11    1349     569   1
  12  12  11    5386     623   1
  13  12  11    4461     627   1
  -7  -5 -18  106453    2216  -2
   2 -28   5  106453    2216  -3
  14  12  11  106453    2216   1
  15  12  11    5540     676   1
  16  12  11  102318    2039   1
  17  12  11    4458     698   1
  18  12  11    -192     663   1
   4 -18  -6   32449    4998  -3
   1  13  11   32449    4998   1
   2  13  11   48705    1097   1
   3  13  11    1180     602   1
   4  13  11     244     552   1
  -5 -13 -11   12483     629  -2
   5  13  11   12483     629   1
   6  13  11   14031     870   1
   7  13  11   15252     733   1
   8  13  11   49839    1019   1
   9  13  11    1252     520   1
  -6  -9 -15   59348    1616  -2
  10  13  11   59348    1616   1
  11  13  11   17244     732   1
   2 -27   3   92025    1719  -3
  12  13  11   92025    1719   1
  13  13  11   21244    1237   1
  14  13  11   32233     938   1
  15  13  11   83174    1672   1
  -7  -4 -20    2810     668  -2
  16  13  11    2810     668   1
  17  13  11   16918     845   1
  18  13  11   72315    1673   1
   0  14  11  115149    2651   1
  -4 -17  -8   74098    2291  -2
   1  14  11   74098    2291   1
   2  14  11   58737    1251   1
   3  14  11    5600     606   1
   3 -21  -4  104704    2231  -3
   4  14  11  104704    2231   1
   5  14  11   49236    7019   1
   6  14  11  100786    1741   1
  -5 -12 -13   20260     702  -2
   7  14  11   20260     702   1
   8  14  11  124542    1982   1
   9  14  11   31387     846   1
   2 -26   1   18278     698  -3
  10  14  11   18278     698   1
  11  14  11    8827     647   1
  -6  -8 -17   29504    1140  -2
  12  14  11   29504    1140   1
  13  14  11  130120    2231   1
  14  14  11   80521    1586   1
  15  14  11    5187     670   1
  16  14  11   53827    1368   1
  17  14  11   22225     971   1
  -7  -3 -22   37146    1160  -2
  18  14  11   37146    1160   1
   1  15  11    6318     635   1
   3 -20  -6    2358     577  -3
   2  15  11    2358     577   1
  -4 -16 -10   31388    1267  -2
   3  15  11   31388    1267   1
   4  15  11    3776     593   1
   5  15  11   29851     826   1
   6  15  11   19678     726   1
   7  15  11    1845     593   1
   2 -25  -1   30414     857  -3
   8  15  11   30414     857   1
  -5 -11 -15  112341    1877  -2
   9  15  11  112341    1877   1
  10  15  11    3566     616   1
  11  15  11    8341     630   1
  12  15  11   19173     788   1
  13  15  11   20921     800   1
  -6  -7 -19   66475    8482  -2
  14  15  11   66475    8482   1
  15  15  11    2925     678   1
  16  15  11    7229     726   1
  17  15  11   81022    1744   1
  18  15  11   41393    1944   1
  -3 -19  -8   59845    1752  -2
   3 -19  -8   59845    1752  -3
   0  16  11   59845    1752   1
   1  16  11    2375     605   1
   2  16  11   45992    1045   1
   3  16  11    7089     613   1
   4  16  11    1861     589   1
  -4 -15 -12   76470    1462  -2
   5  16  11   76470    1462   1
   2 -24  -3   22268    1322  -3
   6  16  11   22268    1322   1
   7  16  11  130389    2068   1
   8  16  11   12118     710   1
   9  16  11   12975     730   1
  10  16  11   14745    1146   1
  -5 -10 -17   44635    2062  -2
  11  16  11   44635    2062   1
  12  16  11   15193    1133   1
  13  16  11   24396     898   1
  14  16  11    2149     670   1
  15  16  11   38059    1080   1
  -6  -6 -21   76200    1639  -2
  16  16  11   76200    1639   1
  17  16  11   24039     960   1
   1  17  11   27845     867   1
  -3 -18 -10   36895    6126  -2
   2  17  11   36895    6126   1
   3  17  11  104662    2091   1
   2 -23  -5     937     578  -3
   4  17  11     937     578   1
   5  17  11    4140     636   1
   6  17  11     890     616   1
  -4 -14 -14    7354     677  -2
   7  17  11    7354     677   1
   8  17  11   24858     837   1
   1 -27  -1   69043    1413  -3
   9  17  11   69043    1413   1
  10  17  11    3625     664   1
  11  17  11     596     684   1
  12  17  11   31724    1652   1
  -5  -9 -19   62846    1662  -2
  13  17  11   62846    1662   1
  14  17  11    3447     709   1
   0 -32   4    8401     753  -3
  15  17  11    8401     753   1
  16  17  11   25585     927   1
  17  17  11    2895     725   1
   0  18  11   53794    1671   1
   1  18  11   44616    1110   1
   2 -22  -7   13436     711  -3
   2  18  11   13436     711   1
   3  18  11    7568     646   1
  -3 -17 -12    6872     648  -2
   4  18  11    6872     648   1
   5  18  11  178497    2851   1
   6  18  11   32192     939   1
   1 -26  -3  160801    2660  -3
   7  18  11  160801    2660   1
   8  18  11   13140     734   1
  -4 -13 -16  129050    2184  -2
   9  18  11  129050    2184   1
  10  18  11    6118     882   1
  11  18  11   39059    1274   1
  12  18  11     788     685   1
  13  18  11     123     689   1
  14  18  11    2249     785   1
  -5  -8 -21  142706    2615  -2
  15  18  11  142706    2615   1
  16  18  11   52954    1353   1
   1  19  11   30581    1060   1
   2  19  11   32289     947   1
   3  19  11  157794    2564   1
   4  19  11     890     612   1
   1 -25  -5   29765     883  -3
   5  19  11   29765     883   1
  -3 -16 -14   79589    2907  -2
   6  19  11   79589    2907   1
   7  19  11   20658     839   1
   8  19  11   20908     854   1
   9  19  11   17212     817   1
  10  19  11   29650     977   1
  -4 -12 -18   16615     954  -2
   0 -30   0   16615     954  -3
  11  19  11   16615     954   1
  12  19  11   39537    1089   1
  13  19  11   10865     771   1
  14  19  11   21740     942   1
  15  19  11   54594    1376   1
  16  19  11   62194    1561   1
   0  20  11     930     916   1
   1  20  11    1585     626   1
  -2 -20 -11    4237     659  -2
   2  20  11    4237     659   1
   1 -24  -7    3565     640  -3
   3  20  11    3565     640   1
   4  20  11  111347    2855   1
   5  20  11    1098     621   1
   6  20  11   42820    1140   1
   7  20  11   49214    1294   1
  -3 -15 -16   27526    2168  -2
   8  20  11   27526    2168   1
   9  20  11    2506     687   1
  10  20  11   28983     975   1
  11  20  11    6569     734   1
  12  20  11    4897     730   1
  -4 -11 -20   49091    1229  -2
  13  20  11   49091    1229   1
  14  20  11    3850     738   1
  15  20  11    3927     791   1
   1 -23  -9    7243     693  -3
   1  21  11    7243     693   1
   2  21  11   74850    1576   1
   3  21  11   55584    1289   1
  -2 -19 -13    3797     657  -2
   4  21  11    3797     657   1
   5  21  11   32996    1034   1
   6  21  11   37873    1071   1
   0 -28  -4   79168    3086  -3
   7  21  11   79168    3086   1
   8  21  11    2882     734   1
   9  21  11    2214     696   1
  -3 -14 -18    9210     764  -2
  10  21  11    9210     764   1
  11  21  11    5569     734   1
  -1 -32   0   19586     876  -3
  12  21  11   19586     876   1
  13  21  11   24754     960   1
  14  21  11   27111    1011   1
  15  21  11   64878    1790   1
   0  22  11    1600     937   1
  -1 -22 -11   32254    1104  -2
   1  22  11   32254    1104   1
   2  22  11   34191    1033   1
   3  22  11    4055     739   1
   4  22  11   15887    1415   1
   5  22  11     248     707   1
  -2 -18 -15    2339     696  -2
   6  22  11    2339     696   1
   7  22  11   20405     930   1
   8  22  11    4300     770   1
   9  22  11    1464     741   1
  -1 -31  -2    2923     712  -3
  10  22  11    2923     712   1
  11  22  11   21154    2168   1
  -3 -13 -20    1212     693  -2
  12  22  11    1212     693   1
  13  22  11    -706     706   1
  14  22  11      -2     729   1
   1  23  11     825     659   1
   2  23  11   97263    1948   1
  -1 -21 -13   29678    1034  -2
   0 -26  -8   29678    1034  -3
   3  23  11   29678    1034   1
   4  23  11   19629     955   1
   5  23  11   89024    1900   1
   6  23  11    2712     709   1
   7  23  11    1044     743   1
  -2 -17 -17   47049    1316  -2
  -1 -30  -4   47049    1316  -3
   8  23  11   47049    1316   1
   9  23  11   40272    3473   1
  10  23  11   45495    1231   1
  11  23  11     -61     711   1
  12  23  11     766     713   1
  13  23  11   13635    1599   1
   0  24  11  187157    4869   1
   1  24  11   31397    1028   1
   2  24  11   58678    1425   1
   3  24  11   36327    1129   1
   4  24  11    8494     849   1
  -1 -20 -15    2220     765  -2
   5  24  11    2220     765   1
  -1 -29  -6    9173     809  -3
   6  24  11    9173     809   1
   7  24  11    3598     751   1
   8  24  11   27093    1023   1
   9  24  11     693     763   1
  -2 -16 -19   35418    1141  -2
  10  24  11   35418    1141   1
  -2 -15 -20    3690     743  -2
  11  24  11    3690     743   1
  -2 -34  -1   17459     871  -3
  12  24  11   17459     871   1
   0 -24 -12    1209     770  -2
   1  25  11    1209     770   1
   2  25  11    2694     738   1
   3  25  11    2974     784   1
  -1 -28  -8   39903    1272  -3
   4  25  11   39903    1272   1
   5  25  11   48091    1419   1
   6  25  11    8741     843   1
  -1 -19 -17   14485     865  -2
   7  25  11   14485     865   1
   8  25  11  177661    3293   1
   9  25  11   11496     856   1
  -2 -33  -3    4136     787  -3
  10  25  11    4136     787   1
  11  25  11    1401     739   1
  12  25  11    4729     876   1
   0  26  11 1161980   27520   1
   1  26  11   24648    1029   1
  -1 -27 -10  542156    9068  -3
   2  26  11  542156    9068   1
   3  26  11   26406    1062   1
   4  26  11   50117    1452   1
   5  26  11    8967     886   1
   6  26  11   14694     933   1
   7  26  11    5609     934   1
  -2 -32  -5    7314     848  -3
   8  26  11    7314     848   1
  -1 -18 -19   19517    2030  -2
   9  26  11   19517    2030   1
  10  26  11   54718    1453   1
  11  26  11    2489     917   1
   1  27  11    2492     800   1
   2  27  11    8731     891   1
   3  27  11   13145     931   1
   4  27  11  136588    2866   1
   0 -22 -16    4117     847  -2
   5  27  11    4117     847   1
  -2 -31  -7     502     820  -3
   6  27  11     502     820   1
   7  27  11     103     758   1
   8  27  11     516     775   1
   9  27  11   18989     977   1
   0  28  11  139559    3950   1
   1  28  11   11581     923   1
   1 -25 -14   47828    1677  -2
   2  28  11   47828    1677   1
   3  28  11    8836     883   1
  -2 -30  -9   10308     904  -3
   4  28  11   10308     904   1
   5  28  11   10871     910   1
   6  28  11    4167     863   1
   7  28  11     714     794   1
   0 -20 -19  171985    3347  -2
   8  28  11  171985    3347   1
   1  29  11   24523    1123   1
  -2 -29 -11    6450     893  -3
   2  29  11    6450     893   1
   3  29  11    2891     826   1
   1 -24 -16   29563    1167  -2
   4  29  11   29563    1167   1
   5  29  11   17095    1004   1
   6  29  11    6365     887   1
  -3 -33  -7    3298    2025  -3
   7  29  11    3298    2025   1
   2 -28 -13   15306    1430  -2
  -2 -28 -13   15306    1430  -3
   0  30  11   15306    1430   1
   1  30  11    3541     869   1
   2  30  11   19665    1059   1
   3  30  11    -820     820   1
   4  30  11   26403    1116   1
   0   0  12 1450759   34268   1
   1   0  12  216895    6066   1
   2   0  12  999156   21290   1
   3   0  12  161164    3754   1
   9 -13   1  526337   10911  -3
   4   0  12  526337   10911   1
   5   0  12  186352    4247   1
   6   0  12 1332666   25143   1
 -11  -4  -8  365833    6921  -2
   7   0  12  365833    6921   1
   8   0  12  121690    2869   1
   9   0  12   15241     983   1
  10   0  12   79493    2130   1
  11   0  12   27947    1210   1
  12   0  12  149721    5251   1
 -12   1 -13    1285     861  -2
  13   0  12    1285     861   1
  14   0  12   75766    2156   1
  15   0  12   14440    1235   1
  16   0  12  157420    3874   1
  17   0  12    1684    1018   1
 -13   5 -17   22595    1362  -2
  18   0  12   22595    1362   1
  19   0  12    1907    1052   1
  20   0  12   32622    2109   1
   1   1  12    9425     709   1
   9 -12  -1   14893    1280  -3
   2   1  12   14893    1280   1
 -10  -8  -5   34408    1267  -2
   3   1  12   34408    1267   1
 -10  -7  -6    3772     748  -2
   4   1  12    3772     748   1
   5   1  12  131475    2278   1
   6   1  12  127061    2842   1
   7   1  12  370279    5002   1
   8   1  12   12040     788   1
 -11  -3 -10    6594     790  -2
   9   1  12    6594     790   1
  10   1  12   18048     728   1
  11   1  12   67989    1388   1
  12   1  12    3382     614   1
  13   1  12     626     596   1
  14   1  12    9511     700   1
 -12   2 -15   70102    1500  -2
  15   1  12   70102    1500   1
  16   1  12   14561     944   1
  17   1  12   80237    1833   1
  18   1  12     702     718   1
   6 -26  13   26994    1049  -3
  19   1  12   26994    1049   1
 -13   6 -19     688     888  -2
  20   1  12     688     888   1
  -9 -11  -3   81221    2090  -2
   9 -11  -3   81221    2090  -3
   0   2  12   81221    2090   1
   1   2  12  212498    3211   1
   2   2  12  305444    4635   1
   3   2  12  126378    2257   1
   4   2  12  787892   11670   1
 -10  -7  -7   85806    2086  -2
   5   2  12   85806    2086   1
 -10  -6  -8  354062    5025  -2
   6   2  12  354062    5025   1
   7   2  12   78973    1429   1
   8   2  12   40456     954   1
   9   2  12    3135     589   1
  10   2  12   82503    1577   1
 -11  -2 -12    3989     609  -2
   7 -20   6    3989     609  -3
  11   2  12    3989     609   1
  12   2  12   28908     891   1
  13   2  12    5485     649   1
  14   2  12   14061    1435   1
  15   2  12   43287    1142   1
  16   2  12  192683    3308   1
 -12   3 -17   29377     989  -2
   6 -25  11   29377     989  -3
  17   2  12   29377     989   1
  18   2  12    -426     706   1
  19   2  12    5825     801   1
  20   2  12     399    1298   1
   1   3  12   98077   35834   1
  -9 -10  -5   32160    2485  -2
   2   3  12   32160    2485   1
   3   3  12   39439    1068   1
   4   3  12   33011    1018   1
   5   3  12  120564    2124   1
   6   3  12   19034    1004   1
   7   3  12   33887     877   1
 -10  -5 -10   20624     749  -2
   8   3  12   20624     749   1
   7 -19   4   12932    1127  -3
   9   3  12   12932    1127   1
  10   3  12   82011    2140   1
  11   3  12    5033     649   1
  12   3  12   83394    1642   1
 -11  -1 -14     892     618  -2
  13   3  12     892     618   1
  14   3  12   51301    1212   1
  15   3  12    9263     723   1
  16   3  12  130041    2362   1
  17   3  12   22678     941   1
  18   3  12    6651     898   1
 -12   4 -19    3004     733  -2
  19   3  12    3004     733   1
   0   4  12   77361    2276   1
   1   4  12  122815    4098   1
   2   4  12   72016    1500   1
   3   4  12   91678    1821   1
  -9  -9  -7   18811     845  -2
   4   4  12   18811     845   1
   5   4  12    8324     668   1
   6   4  12    1816     610   1
   7 -18   2   23622     751  -3
   7   4  12   23622     751   1
   8   4  12    3426     569   1
   9   4  12     807     553   1
 -10  -4 -12   71786   20174  -2
  10   4  12   71786   20174   1
  11   4  12    7398     657   1
  12   4  12    9690     825   1
  13   4  12   14944     898   1
  14   4  12    7538     688   1
 -11   0 -16   13306     768  -2
  15   4  12   13306     768   1
  16   4  12    7920     716   1
  17   4  12    2873     685   1
  18   4  12   18088     867   1
  19   4  12   32188    1270   1
   1   5  12   47028    1816   1
   2   5  12   24616    2286   1
   3   5  12   44036    1631   1
   4   5  12  100130    1909   1
   7 -17   0  113620    2096  -3
   5   5  12  113620    2096   1
  -9  -8  -9   74343    1511  -2
   6   5  12   74343    1511   1
   7   5  12   44731    1021   1
   8   5  12   17510     699   1
   9   5  12   16016    1015   1
  10   5  12   18407     737   1
  11   5  12   94163    1769   1
 -10  -3 -14    5989     767  -2
  12   5  12    5989     767   1
  13   5  12   31844     947   1
  14   5  12   10255     863   1
  15   5  12   67058    1526   1
  16   5  12   68477    1543   1
 -11   1 -18   45553    1491  -2
  17   5  12   45553    1491   1
  18   5  12   30915    1074   1
  19   5  12   62893    1592   1
   0   6  12  110396    2839   1
   1   6  12     656     646   1
  -8 -12  -6  505636    7786  -2
   2   6  12  505636    7786   1
  -8 -11  -7  116001    2124  -2
   7 -16  -2  116001    2124  -3
   3   6  12  116001    2124   1
   4   6  12  674316    9845   1
   5   6  12   12924    1150   1
   6   6  12  176192   15672   1
   7   6  12  122500    1974   1
  -9  -7 -11   14413     660  -2
   8   6  12   14413     660   1
   9   6  12    8351     615   1
  10   6  12   20463     757   1
  11   6  12    9654     664   1
  12   6  12    8636     669   1
  13   6  12   20025     825   1
 -10  -2 -16   15325     784  -2
   5 -25   7   15325     784  -3
  14   6  12   15325     784   1
  15   6  12   26631     930   1
  16   6  12   44884    1306   1
  17   6  12    8906     931   1
  18   6  12   11677     788   1
 -11   2 -20    4524     704  -2
  19   6  12    4524     704   1
   7 -15  -4   39255    1476  -3
   1   7  12   39255    1476   1
   2   7  12   25770     960   1
   3   7  12   17376     801   1
   4   7  12  152773    2425   1
  -8 -10  -9   13321    1071  -2
   5   7  12   13321    1071   1
   6   7  12   71844    1442   1
   7   7  12    8423     556   1
   8   7  12   16747     646   1
   9   7  12   12848     638   1
  -9  -6 -13   48780    1091  -2
  10   7  12   48780    1091   1
  11   7  12   78772    1520   1
   5 -24   5   38362    1030  -3
  12   7  12   38362    1030   1
  13   7  12   94770    1860   1
  14   7  12    2954     669   1
  15   7  12    9177     735   1
 -10  -1 -18  127802    2367  -2
  16   7  12  127802    2367   1
  17   7  12    6090     871   1
  18   7  12    3126     674   1
  19   7  12   27619     966   1
   0   8  12   60518    1817   1
  -7 -14  -6 1181841   15829  -2
   1   8  12 1181841   15829   1
   2   8  12    6852     672   1
   3   8  12  217763    3354   1
   4   8  12  130831    5800   1
   5   8  12  294953    4316   1
   6   8  12   17613     722   1
  -8  -9 -11  342617    4672  -2
   7   8  12  342617    4672   1
   8   8  12   11904     603   1
   9   8  12    4790     705   1
   5 -23   3   29701     800  -3
  10   8  12   29701     800   1
  11   8  12   32618     875   1
  -9  -5 -15     842     596  -2
  12   8  12     842     596   1
  13   8  12   14453    1699   1
  14   8  12   22400     844   1
  15   8  12   80983    1665   1
  16   8  12   59004    1390   1
  17   8  12    4197     690   1
 -10   0 -20    1458     673  -2
  18   8  12    1458     673   1
  19   8  12   39964    1125   1
   1   9  12   23090     794   1
   2   9  12    7908     706   1
  -7 -13  -8  549356    8078  -2
   3   9  12  549356    8078   1
   4   9  12   25203     825   1
   5   9  12    3252     583   1
   6   9  12     291     497   1
   7   9  12    3902     531   1
   5 -22   1    7030     564  -3
   8   9  12    7030     564   1
  -8  -8 -13   65382    1997  -2
   9   9  12   65382    1997   1
  10   9  12   35676     879   1
  11   9  12   41943    1169   1
  12   9  12    -575     575   1
  13   9  12    4601     746   1
  -9  -4 -17   10223     921  -2
  14   9  12   10223     921   1
  15   9  12   70749    1555   1
  16   9  12   48262    1256   1
  17   9  12   80015    1724   1
  18   9  12    4497     703   1
   3 -31  10     317     677  -3
  19   9  12     317     677   1
  -6 -16  -6   52796    5587  -2
   6 -16  -6   52796    5587  -3
   0  10  12   52796    5587   1
   1  10  12  513606    7022   1
   2  10  12    1244     626   1
   3  10  12   50094    1212   1
   4  10  12    1136     567   1
  -7 -12 -10   58615    1230  -2
   5  10  12   58615    1230   1
   5 -21  -1   18433    1235  -3
   6  10  12   18433    1235   1
   7  10  12  605639    8046   1
   8  10  12   26713     871   1
   9  10  12   15996     657   1
  10  10  12    2825     553   1
  -8  -7 -15  252333    3599  -2
  11  10  12  252333    3599   1
  12  10  12    1870     573   1
  13  10  12   72324    1494   1
  14  10  12   58266    1530   1
  15  10  12  258095    4332   1
  -9  -3 -19   36207    1071  -2
  16  10  12   36207    1071   1
   3 -30   8   31473    1010  -3
  17  10  12   31473    1010   1
  18  10  12   22929     893   1
   1  11  12   58652    1256   1
  -6 -15  -8    2417     593  -2
   2  11  12    2417     593   1
   3  11  12   32838     907   1
   5 -20  -3    7931     606  -3
   4  11  12    7931     606   1
   5  11  12    3594     573   1
   6  11  12    9801     579   1
  -7 -11 -12    3117     543  -2
   7  11  12    3117     543   1
   8  11  12   99302    1626   1
   9  11  12   55153    1124   1
  10  11  12   43387     984   1
  11  11  12    4336     594   1
  12  11  12   17168     724   1
  -8  -6 -17    7485     876  -2
  13  11  12    7485     876   1
  14  11  12    8252     730   1
   3 -29   6    4118     700  -3
  15  11  12    4118     700   1
  16  11  12   19699     864   1
  17  11  12   52070    1297   1
  -9  -2 -21   12462     769  -2
  18  11  12   12462     769   1
   0  12  12    3200     879   1
   1  12  12  114109    1945   1
   5 -19  -5   27225     813  -3
   2  12  12   27225     813   1
   3  12  12   29004     874   1
  -6 -14 -10   58851    2091  -2
   4  12  12   58851    2091   1
   5  12  12   52998    1144   1
   6  12  12      91     544   1
   7  12  12   72293    1340   1
   8  12  12   18494     707   1
  -7 -10 -14    5160     577  -2
   9  12  12    5160     577   1
  10  12  12    3848     582   1
  11  12  12   73316    1403   1
  12  12  12     458     597   1
   3 -28   4   10128     678  -3
  13  12  12   10128     678   1
  14  12  12   19579     787   1
  -8  -5 -19   15419     813  -2
  15  12  12   15419     813   1
  16  12  12    2543     679   1
  17  12  12  233398    3894   1
  18  12  12   23801     921   1
   1  13  12   23866     785   1
   2  13  12    1432     596   1
   3  13  12   95532    2010   1
   4  13  12    9373     666   1
   4 -22  -3    8253     676  -3
   5  13  12    8253     676   1
  -6 -13 -12   11172     646  -2
   6  13  12   11172     646   1
   7  13  12    1387     543   1
   8  13  12  133108    2064   1
   9  13  12    3594     635   1
  10  13  12   53305    1172   1
  -7  -9 -16   61641    1574  -2
   3 -27   2   61641    1574  -3
  11  13  12   61641    1574   1
  12  13  12    1134     603   1
  13  13  12      -9     604   1
  14  13  12    2070     619   1
  15  13  12  152377    2630   1
  16  13  12   79770    1698   1
  -8  -4 -21   23716     925  -2
  17  13  12   23716     925   1
  18  13  12    2036     809   1
   0  14  12   18705    1027   1
   1  14  12   11916     647   1
  -5 -17  -9   38773     999  -2
   2  14  12   38773     999   1
   4 -21  -5   33368     918  -3
   3  14  12   33368     918   1
   4  14  12   56591    1243   1
   5  14  12   10583     678   1
   6  14  12   41625    1580   1
   7  14  12   83337    1471   1
  -6 -12 -14   22397    3743  -2
   8  14  12   22397    3743   1
   3 -26   0   27435    1890  -3
   9  14  12   27435    1890   1
  10  14  12    4820     648   1
  11  14  12   14241     710   1
  12  14  12     217     607   1
  -7  -8 -18   17188    1365  -2
  13  14  12   17188    1365   1
  14  14  12    1481     622   1
  15  14  12   82597    1618   1
  16  14  12   52690    1345   1
  17  14  12   70632    2438   1
   4 -20  -7  109257    1873  -3
   1  15  12  109257    1873   1
   2  15  12   13286     674   1
   3  15  12   31480     914   1
  -5 -16 -11    8732    1084  -2
   4  15  12    8732    1084   1
   5  15  12  236184    4925   1
   6  15  12   88700    1614   1
   3 -25  -2   78836    2285  -3
   7  15  12   78836    2285   1
   8  15  12    6197     619   1
   9  15  12   33277     922   1
  -6 -11 -16   27811    3751  -2
  10  15  12   27811    3751   1
  11  15  12   85653    1696   1
  12  15  12    8477     768   1
  13  15  12   19612     793   1
  14  15  12    5213     663   1
  -7  -7 -20   57301    1305  -2
  15  15  12   57301    1305   1
  16  15  12   56962    1407   1
  17  15  12  136737    2628   1
   0  16  12    3217     876   1
  -4 -19  -9    9168    1230  -2
   1  16  12    9168    1230   1
   2  16  12   81186    1583   1
   3  16  12   17834     760   1
   4  16  12  154899    2595   1
   3 -24  -4   18597     806  -3
   5  16  12   18597     806   1
  -5 -15 -13   76928    1560  -2
   6  16  12   76928    1560   1
   7  16  12    4652     683   1
   8  16  12   18397     746   1
   9  16  12   22562    1324   1
  10  16  12   27109    2473   1
  11  16  12   16301     814   1
  -6 -10 -18   65613    1452  -2
  12  16  12   65613    1452   1
  13  16  12   10003    1303   1
  14  16  12    3802     697   1
  15  16  12  226097    3645   1
   1 -33   5    3068     703  -3
  16  16  12    3068     703   1
   1  17  12    -218     603   1
   2  17  12    9503     667   1
  -4 -18 -11    3644     642  -2
   3 -23  -6    3644     642  -3
   3  17  12    3644     642   1
   4  17  12   48012    1146   1
   5  17  12   44850    3541   1
   6  17  12   12203     734   1
   7  17  12    9453     735   1
  -5 -14 -15    9397     784  -2
   2 -27  -2    9397     784  -3
   8  17  12    9397     784   1
   9  17  12   14670     747   1
  10  17  12  134169    2293   1
  11  17  12   40070    5745   1
  12  17  12    1665     752   1
  13  17  12    1234     717   1
  -6  -9 -20   57099    1735  -2
   1 -32   3   57099    1735  -3
  14  17  12   57099    1735   1
  15  17  12   14605     821   1
  16  17  12    5966     751   1
   0  18  12   17167    1402   1
   3 -22  -8    4348     642  -3
   1  18  12    4348     642   1
   2  18  12   15432     743   1
   3  18  12   58871    1257   1
   4  18  12   54880    1280   1
  -4 -17 -13    1524     671  -2
   5  18  12    1524     671   1
   2 -26  -4   94947    1817  -3
   6  18  12   94947    1817   1
   7  18  12    2849     671   1
   8  18  12   36498    1048   1
   9  18  12    3615     666   1
  -5 -13 -17    2845     675  -2
  10  18  12    2845     675   1
  11  18  12    4631    1105   1
   1 -31   1   12161    1255  -3
  12  18  12   12161    1255   1
  13  18  12    5340     784   1
  14  18  12   16319     870   1
  15  18  12   74286    1664   1
  -6  -8 -22  150480    3814  -2
  16  18  12  150480    3814   1
  -3 -21 -10    3157     630  -2
   1  19  12    3157     630   1
   2  19  12    3481     668   1
   3  19  12    3550     642   1
   2 -25  -6    5951     712  -3
   4  19  12    5951     712   1
   5  19  12    4026     705   1
   6  19  12   97973    1865   1
  -4 -16 -15   45979    1601  -2
   7  19  12   45979    1601   1
   8  19  12   94193    1871   1
   9  19  12   12626     775   1
   1 -30  -1    2971     710  -3
  10  19  12    2971     710   1
  11  19  12   29294     995   1
  -5 -12 -19    4643     741  -2
  12  19  12    4643     741   1
  -5 -11 -20     274     743  -2
  13  19  12     274     743   1
  14  19  12   17360     910   1
  15  19  12   67779    1610   1
   0  20  12   83433    2318   1
   1  20  12    1368     649   1
   2 -24  -8  167227    2813  -3
   2  20  12  167227    2813   1
  -3 -20 -12   37174    1034  -2
   3  20  12   37174    1034   1
   4  20  12  330553    5031   1
   5  20  12   29846     978   1
   6  20  12   22484     926   1
   7  20  12    5486     729   1
   1 -29  -3   35895    1124  -3
   8  20  12   35895    1124   1
  -4 -15 -17   26609    1101  -2
   9  20  12   26609    1101   1
  10  20  12   41790    1144   1
  11  20  12     509     696   1
  12  20  12   21554     910   1
  13  20  12   14493     854   1
  -5 -11 -21    7205     957  -2
  14  20  12    7205     957   1
   1  21  12    8829     727   1
   2  21  12   84031    1647   1
   3  21  12   70958    1526   1
   4  21  12   12300     755   1
  -3 -19 -14   13696     993  -2
   5  21  12   13696     993   1
   1 -28  -5   17584    2147  -3
   6  21  12   17584    2147   1
   7  21  12   14098     858   1
   8  21  12    6638    1040   1
   9  21  12    2234     763   1
  10  21  12    2192     718   1
  -4 -14 -19   24949    2399  -2
   0 -32  -1   24949    2399  -3
  11  21  12   24949    2399   1
  12  21  12    4006     738   1
  13  21  12     236     720   1
  14  21  12   23344    1135   1
   0  22  12   28602    1345   1
   1  22  12    7014     843   1
  -2 -22 -12   13503     780  -2
   2  22  12   13503     780   1
   3  22  12   21616    1185   1
   1 -27  -7   59410    1332  -3
   4  22  12   59410    1332   1
   5  22  12  104225    2111   1
   6  22  12   34799    1203   1
  -3 -18 -16    2995     866  -2
   7  22  12    2995     866   1
   8  22  12   31011    1074   1
   9  22  12    7329     802   1
  10  22  12    3280     762   1
  11  22  12    -125     718   1
  12  22  12    8753     781   1
  -4 -13 -21   35605    1120  -2
  13  22  12   35605    1120   1
   1  23  12     985     686   1
   1 -26  -9   77195    1616  -3
   2  23  12   77195    1616   1
   3  23  12   50044    1340   1
  -2 -21 -14    4400     875  -2
   4  23  12    4400     875   1
   5  23  12    6667     788   1
   6  23  12   15603     956   1
   0 -30  -5   72165    2144  -3
   7  23  12   72165    2144   1
   8  23  12    1255     764   1
  -3 -17 -18    7031     811  -2
   9  23  12    7031     811   1
  -3 -16 -19   19772    1942  -2
  10  23  12   19772    1942   1
  11  23  12    5555     761   1
  12  23  12    7456    1458   1
  -1 -25 -11   15371    1151  -2
   1 -25 -11   15371    1151  -3
   0  24  12   15371    1151   1
   1  24  12   14646    1002   1
   2  24  12    1512     738   1
   3  24  12   15748     866   1
   4  24  12    9084     864   1
   5  24  12  298851    5430   1
  -2 -20 -16   19673    1633  -2
   6  24  12   19673    1633   1
   7  24  12   45158    1382   1
   8  24  12    1184     777   1
   9  24  12   64346    1573   1
  10  24  12   10970     848   1
  -3 -16 -20    9464     846  -2
  -1 -34  -2    9464     846  -3
  11  24  12    9464     846   1
  -3 -15 -21     607     876  -2
  12  24  12     607     876   1
   1  25  12   24403     984   1
  -1 -24 -13    8588     805  -2
   2  25  12    8588     805   1
   0 -28  -9  325034    5455  -3
   3  25  12  325034    5455   1
   4  25  12    -571     786   1
   5  25  12    1549     831   1
   6  25  12    2923     826   1
   7  25  12   18301    1024   1
  -2 -19 -18    3731     837  -2
   8  25  12    3731     837   1
  -1 -33  -4   11502     865  -3
   9  25  12   11502     865   1
  10  25  12     356     767   1
  11  25  12   27259    1231   1
   0  26  12   58086    2191   1
   1  26  12    5869     820   1
   2  26  12    5098     788   1
   3  26  12  110487    2312   1
  -1 -23 -15    9530     847  -2
   4  26  12    9530     847   1
  -1 -22 -16   30074    1173  -2
   5  26  12   30074    1173   1
   6  26  12      76     821   1
  -1 -32  -6     546     829  -3
   7  26  12     546     829   1
   8  26  12    6001     848   1
   9  26  12   15966    1290   1
  -2 -18 -20    8635    2063  -2
  10  26  12    8635    2063   1
   0 -26 -13  151052    3368  -2
   1  27  12  151052    3368   1
   2  27  12   17549     962   1
   3  27  12   83302    1945   1
   4  27  12    5933     886   1
  -1 -31  -8   15642     976  -3
   5  27  12   15642     976   1
  -1 -22 -17     685     853  -2
   6  27  12     685     853   1
  -1 -21 -18   27633    1383  -2
   7  27  12   27633    1383   1
   8  27  12     517     839   1
   0  28  12     790    1120   1
   1  28  12    3940     823   1
   2  28  12    5867    1342   1
  -1 -30 -10   36018    1293  -3
   3  28  12   36018    1293   1
   4  28  12   13182     953   1
   5  28  12   71462    1814   1
   6  28  12   22391    1120   1
   7  28  12   50043    1934   1
  -1 -29 -12   60802    1673  -3
   1  29  12   60802    1673   1
   2  29  12   45328    1448   1
   3  29  12    4874     880   1
   4  29  12    4305     861   1
   0 -24 -17  124288    3600  -2
   5  29  12  124288    3600   1
  10 -12  -2   63105    1488  -3
   1   1  13   63105    1488   1
   2   1  13   49448    1343   1
   3   1  13   55059    1277   1
 -11  -8  -6    9455     671  -2
   4   1  13    9455     671   1
 -11  -7  -7  119811    1906  -2
   5   1  13  119811    1906   1
   6   1  13    6965     775   1
   7   1  13   51572    1093   1
   8   1  13     914     562   1
   9   1  13   25543     822   1
 -12  -3 -11    7637     646  -2
  10   1  13    7637     646   1
  11   1  13   12555     861   1
  12   1  13   15246    1775   1
  13   1  13  202783    3249   1
  14   1  13     739     640   1
  15   1  13    7337     697   1
 -13   2 -16   10732     974  -2
  16   1  13   10732     974   1
  17   1  13   32948    1087   1
   7 -26  12       0     700  -3
  18   1  13       0     700   1
  19   1  13    3311     750   1
   0   2  13   -1030    1030   1
 -10 -11  -4    8018     768  -2
   1   2  13    8018     768   1
   2   2  13   48334    1550   1
   3   2  13     435     605   1
   4   2  13   73323   11337   1
   5   2  13   10331    1252   1
   6   2  13   19984    1053   1
 -11  -6  -9    9059     772  -2
   7   2  13    9059     772   1
   8   2  13    9727     633   1
   9   2  13   75734    1487   1
   8 -20   5    6056     634  -3
  10   2  13    6056     634   1
  11   2  13    6911     652   1
 -12  -2 -13   12083     723  -2
  12   2  13   12083     723   1
  13   2  13   96089    1814   1
  14   2  13   29235     944   1
  15   2  13   25828    1549   1
  16   2  13   34731    1740   1
  17   2  13   55181    1391   1
 -13   3 -18   30075    1095  -2
  18   2  13   30075    1095   1
  19   2  13   39923    1247   1
   1   3  13   76028    1724   1
   2   3  13  472530    7002   1
 -10 -10  -6   19792    1155  -2
   3   3  13   19792    1155   1
   4   3  13   36574     988   1
   5   3  13   98970    1742   1
   6   3  13    7292     588   1
   7   3  13   20527     721   1
   8 -19   3    1910     570  -3
   8   3  13    1910     570   1
 -11  -5 -11    7015     628  -2
   9   3  13    7015     628   1
  10   3  13    1828     603   1
  11   3  13    9104     684   1
  12   3  13     206     617   1
  13   3  13   46239    1152   1
 -12  -1 -15    9103     716  -2
  14   3  13    9103     716   1
  15   3  13    2500     670   1
  16   3  13    4215     708   1
  17   3  13   13008     800   1
  18   3  13    9166     778   1
  19   3  13   21483     957   1
   0   4  13   11458    3993   1
   1   4  13    8403     894   1
   2   4  13   44992    1419   1
   3   4  13     389     626   1
   4   4  13    3456     579   1
 -10  -9  -8   46724    1592  -2
   5   4  13   46724    1592   1
   8 -18   1   40263     977  -3
   6   4  13   40263     977   1
   7   4  13    9596     621   1
   8   4  13    5144     603   1
   9   4  13   57936    1237   1
  10   4  13   35715    1007   1
 -11  -4 -13     664     609  -2
  11   4  13     664     609   1
  12   4  13    7289     675   1
  13   4  13   36879    1024   1
  14   4  13   20448     826   1
  15   4  13   10561     757   1
  16   4  13   17096     869   1
  17   4  13   27258     970   1
  18   4  13    1265     680   1
  19   4  13    -702     724   1
   1   5  13  102136    1824   1
  -9 -12  -6  365775    5174  -2
   2   5  13  365775    5174   1
   3   5  13   18418     787   1
   8 -17  -1   13017    1057  -3
   4   5  13   13017    1057   1
   5   5  13   25135     817   1
   6   5  13    5417     558   1
 -10  -8 -10   18659     700  -2
   7   5  13   18659     700   1
   8   5  13    8263     609   1
   9   5  13   34695    6043   1
  10   5  13    4343     642   1
  11   5  13    -308     605   1
  12   5  13   26594     903   1
 -11  -3 -15    3794     667  -2
  13   5  13    3794     667   1
  14   5  13   11101     725   1
   6 -26   8     432     660  -3
  15   5  13     432     660   1
  16   5  13    4840     701   1
  17   5  13    3697     713   1
 -12   1 -19    1218     687  -2
  18   5  13    1218     687   1
  19   5  13    3260     729   1
   0   6  13    1304     901   1
   1   6  13    6653     638   1
   8 -16  -3   38362    1096  -3
   2   6  13   38362    1096   1
   3   6  13     260     565   1
  -9 -11  -8   28131     916  -2
   4   6  13   28131     916   1
   5   6  13    1532     556   1
   6   6  13     521     533   1
   7   6  13   16665     868   1
   8   6  13   35993     904   1
 -10  -7 -12   60534    1262  -2
   9   6  13   60534    1262   1
  10   6  13    3317     610   1
  11   6  13    6253     662   1
  12   6  13   53672    1243   1
   6 -25   6    3438     668  -3
  13   6  13    3438     668   1
  14   6  13   70567    1613   1
 -11  -2 -17    2037     685  -2
  15   6  13    2037     685   1
  16   6  13   28197     979   1
  17   6  13   21903     897   1
  18   6  13   29724     966   1
  19   6  13    2683    1346   1
   1   7  13    8454     727   1
   2   7  13   12791     659   1
   3   7  13   33102     936   1
   4   7  13   22453     805   1
   5   7  13   76268    1435   1
  -9 -10 -10  122657   27566  -2
   6   7  13  122657   27566   1
   7   7  13   37969     937   1
   8   7  13   69519    1328   1
   9   7  13    8394     615   1
  10   7  13   20213     734   1
 -10  -6 -14   33276    1011  -2
   6 -24   4   33276    1011  -3
  11   7  13   33276    1011   1
  12   7  13    1234     602   1
  13   7  13    4554     655   1
  14   7  13   26338     907   1
  15   7  13    1881     664   1
  16   7  13    3754     763   1
 -11  -1 -19   69339   16740  -2
  17   7  13   69339   16740   1
  18   7  13   21907     875   1
   0   8  13   65503    1993   1
   1   8  13    2841     623   1
  -8 -14  -7    5417     671  -2
   2   8  13    5417     671   1
   3   8  13    8793     878   1
   4   8  13  144949    2395   1
   5   8  13      68     543   1
   6   8  13    8065     621   1
   7   8  13   39811     966   1
  -9  -9 -12  204593    3053  -2
   8   8  13  204593    3053   1
   6 -23   2   21556     757  -3
   9   8  13   21556     757   1
  10   8  13    9801     630   1
  11   8  13    2497     580   1
  12   8  13     654     604   1
 -10  -5 -16   20322     826  -2
  13   8  13   20322     826   1
  14   8  13   39546    6521   1
  15   8  13   44618    1162   1
  16   8  13    -512     658   1
  17   8  13    2604     673   1
  18   8  13   13558     790   1
   7 -17  -5  149823    5057  -3
   1   9  13  149823    5057   1
   2   9  13   41193    1193   1
   3   9  13  149579    2565   1
  -8 -13  -9   54944    2177  -2
   4   9  13   54944    2177   1
   5   9  13    9323     652   1
   6   9  13   24732     761   1
   6 -22   0    4945     563  -3
   7   9  13    4945     563   1
   8   9  13  157678    2401   1
   9   9  13    3774     569   1
  -9  -8 -14    3364     618  -2
  10   9  13    3364     618   1
  11   9  13    6712     616   1
  12   9  13   23507     967   1
  13   9  13    5742     678   1
  14   9  13   17031     800   1
 -10  -4 -18   13521     781  -2
  15   9  13   13521     781   1
  16   9  13    1900     680   1
  17   9  13    1183     681   1
   4 -31   9    9521     736  -3
  18   9  13    9521     736   1
   0  10  13    9797     903   1
  -7 -16  -7   41988    7178  -2
   1  10  13   41988    7178   1
   2  10  13    1583     608   1
   3  10  13   20132     809   1
   4  10  13    1307     595   1
   6 -21  -2    2339     593  -3
   5  10  13    2339     593   1
  -8 -12 -11  136835    2260  -2
   6  10  13  136835    2260   1
   7  10  13   10307     720   1
   8  10  13   40577     953   1
   9  10  13    5973     587   1
  10  10  13   19342    1570   1
  11  10  13    8118     642   1
  -9  -7 -16   13828    1907  -2
  12  10  13   13828    1907   1
  13  10  13    4827     686   1
  14  10  13  141008    2601   1
  15  10  13   41040    1136   1
   4 -30   7   35124    1117  -3
  16  10  13   35124    1117   1
 -10  -3 -20     794     668  -2
  17  10  13     794     668   1
  18  10  13    4746     706   1
   1  11  13   25730     830   1
   2  11  13  113258    1988   1
  -7 -15  -9   66612    1376  -2
   6 -20  -4   66612    1376  -3
   3  11  13   66612    1376   1
   4  11  13  117716    2084   1
   5  11  13    2411     601   1
   6  11  13    2529     626   1
   7  11  13    1549     558   1
  -8 -11 -13   19634    1914  -2
   8  11  13   19634    1914   1
   9  11  13    6073     688   1
  10  11  13   16860     694   1
  11  11  13    2027     585   1
  12  11  13    1164     604   1
  13  11  13    1925     641   1
  -9  -6 -18   10679     757  -2
   4 -29   5   10679     757  -3
  14  11  13   10679     757   1
  15  11  13    2751     680   1
  16  11  13   69570    1552   1
  17  11  13    5069     705   1
   0  12  13  254058    5563   1
   6 -19  -6   13029     673  -3
   1  12  13   13029     673   1
   2  12  13   13726     714   1
   3  12  13     906     599   1
   4  12  13    3547     627   1
  -7 -14 -11    7534    1062  -2
   5  12  13    7534    1062   1
   6  12  13   46907    2262   1
   7  12  13    -316     564   1
   8  12  13   32258     894   1
   9  12  13   14054     678   1
  -8 -10 -15   63338    1259  -2
  10  12  13   63338    1259   1
  11  12  13    5701     695   1
   4 -28   3   26369     838  -3
  12  12  13   26369     838   1
  13  12  13     157     625   1
  14  12  13    9460     750   1
  15  12  13    3739     695   1
  -9  -5 -20   20751    3024  -2
  16  12  13   20751    3024   1
  17  12  13    6823     853   1
  -6 -18  -8    2909     613  -2
   1  13  13    2909     613   1
   2  13  13    2781     629   1
   3  13  13    8044     673   1
   5 -22  -4   10130    1211  -3
   4  13  13   10130    1211   1
   5  13  13     717     625   1
   6  13  13    8501     672   1
  -7 -13 -13    1442     583  -2
   7  13  13    1442     583   1
   8  13  13   38044     984   1
   9  13  13   18867    1019   1
   4 -27   1   24726     822  -3
  10  13  13   24726     822   1
  11  13  13    -601     601   1
  -8  -9 -17   61550    1311  -2
  12  13  13   61550    1311   1
  13  13  13    2223     651   1
  14  13  13    1781     662   1
  15  13  13    1840     689   1
  16  13  13   16702     842   1
  17  13  13    5877     731   1
   0  14  13    2238     848   1
   1  14  13    2384     619   1
   5 -21  -6  126251    2226  -3
   2  14  13  126251    2226   1
  -6 -17 -10   16704     763  -2
   3  14  13   16704     763   1
   4  14  13   86269    1658   1
   5  14  13    5330     667   1
   6  14  13   11791     717   1
   7  14  13     324     580   1
   4 -26  -1   17062     704  -3
   8  14  13   17062     704   1
  -7 -12 -15     363     618  -2
   9  14  13     363     618   1
  10  14  13   22611     865   1
  11  14  13   27913     888   1
  12  14  13   20287     801   1
  13  14  13   12907     718   1
  -8  -8 -19    3239     647  -2
  14  14  13    3239     647   1
  15  14  13     595     679   1
  16  14  13    1555     709   1
  17  14  13   17223    1192   1
   1  15  13    1665     642   1
   2  15  13   56471    1261   1
   3  15  13   63208    1395   1
   4  15  13   12989     737   1
  -6 -16 -12   24102     966  -2
   5  15  13   24102     966   1
   4 -25  -3   12798    1081  -3
   6  15  13   12798    1081   1
   7  15  13    7220     691   1
   8  15  13   16092     780   1
   9  15  13    -289     633   1
  10  15  13   19881     835   1
  -7 -11 -17   28366     943  -2
  11  15  13   28366     943   1
  12  15  13   19582     875   1
  13  15  13   47277    1173   1
  14  15  13     532     625   1
  15  15  13     566     682   1
  -8  -7 -21   30976    1761  -2
  16  15  13   30976    1761   1
   0  16  13    8911     975   1
   1  16  13  122726    2097   1
  -5 -19 -10   21821     887  -2
   2  16  13   21821     887   1
   3  16  13   73401    1530   1
   4 -24  -5   23866     865  -3
   4  16  13   23866     865   1
   5  16  13    4077     686   1
   6  16  13    5669     695   1
  -6 -15 -14   50941    1387  -2
   7  16  13   50941    1387   1
   8  16  13   47238    6239   1
   9  16  13   10369     976   1
  10  16  13    5845     769   1
  11  16  13   36695    1067   1
  12  16  13   14754     809   1
  -7 -10 -19   18814     844  -2
  13  16  13   18814     844   1
  14  16  13    1313     668   1
   2 -33   4   10667     770  -3
  15  16  13   10667     770   1
  16  16  13    7827     840   1
   1  17  13   15244     753   1
   4 -23  -7   41470    1065  -3
   2  17  13   41470    1065   1
   3  17  13   79782    1651   1
  -5 -18 -12    3205     680  -2
   4  17  13    3205     680   1
   5  17  13    3440     693   1
   6  17  13    2194     678   1
   3 -27  -3   27242     958  -3
   7  17  13   27242     958   1
   8  17  13    5814     722   1
  -6 -14 -16    8213     819  -2
   9  17  13    8213     819   1
  10  17  13   24486    3079   1
  11  17  13    5770     728   1
  12  17  13   22234     946   1
   2 -32   2   59239    1487  -3
  13  17  13   59239    1487   1
  14  17  13     269     781   1
  -7  -9 -21    7197    1039  -2
  15  17  13    7197    1039   1
  -4 -22  -9   22465    1185  -2
   4 -22  -9   22465    1185  -3
   0  18  13   22465    1185   1
   1  18  13  148339    2491   1
   2  18  13   19698     775   1
   3  18  13   57277    1335   1
   4  18  13   12132     802   1
   3 -26  -5   25173     924  -3
   5  18  13   25173     924   1
  -5 -17 -14    9286     755  -2
   6  18  13    9286     755   1
   7  18  13    3913     722   1
   8  18  13   10525     771   1
   9  18  13   75444    1650   1
  10  18  13   21561     877   1
  -6 -13 -18   80254    2325  -2
   2 -31   0   80254    2325  -3
  11  18  13   80254    2325   1
  -6 -12 -19   37103    1162  -2
  12  18  13   37103    1162   1
  13  18  13    5651     793   1
  14  18  13    6029     780   1
  15  18  13    7519     817   1
   1  19  13   13372     753   1
  -4 -21 -11    5007     676  -2
   2  19  13    5007     676   1
   3 -25  -7   96759   14152  -3
   3  19  13   96759   14152   1
   4  19  13    -191     702   1
   5  19  13    3905     719   1
   6  19  13   27040     953   1
   7  19  13   35042    1099   1
  -5 -16 -16    4717     739  -2
   8  19  13    4717     739   1
   2 -30  -2   10465     801  -3
   9  19  13   10465     801   1
  10  19  13   28449     978   1
  11  19  13    4734     740   1
  12  19  13   11936     865   1
  -6 -12 -20     842     745  -2
  13  19  13     842     745   1
  -6 -11 -21   38425    1308  -2
  14  19  13   38425    1308   1
   0  20  13  105985    2743   1
   3 -24  -9   47445    1219  -3
   1  20  13   47445    1219   1
   2  20  13   10936     749   1
   3  20  13    4106     743   1
  -4 -20 -13    2865     716  -2
   4  20  13    2865     716   1
   5  20  13   12815    1953   1
   6  20  13   26177    1100   1
   2 -29  -4     905     724  -3
   7  20  13     905     724   1
   8  20  13    3244     741   1
   9  20  13    1549     744   1
  -5 -15 -18   14422    1092  -2
  10  20  13   14422    1092   1
  11  20  13   22495     936   1
   1 -33   0   12946     830  -3
  12  20  13   12946     830   1
  13  20  13    6344     837   1
  14  20  13    6263     938   1
  -3 -23 -11   18649     861  -2
   1  21  13   18649     861   1
   2  21  13    9890     736   1
   3  21  13   19664     846   1
   4  21  13   31352    3726   1
   2 -28  -6   43118    1184  -3
   5  21  13   43118    1184   1
  -4 -19 -15    5176     782  -2
   6  21  13    5176     782   1
   7  21  13   10353    1670   1
   8  21  13    6039     806   1
   9  21  13   13029     871   1
   1 -32  -2   29086    1066  -3
  10  21  13   29086    1066   1
  11  21  13   31514    1054   1
  -5 -14 -20   15261     885  -2
  12  21  13   15261     885   1
  13  21  13    1509     773   1
   0  22  13    5734    1023   1
   1  22  13    7981     745   1
   2  22  13   84234   21159   1
  -3 -22 -13    2726     699  -2
   2 -27  -8    2726     699  -3
   3  22  13    2726     699   1
   4  22  13     129     897   1
   5  22  13    3089     760   1
   6  22  13    -206     791   1
   7  22  13    3812     823   1
  -4 -18 -17   15386    1278  -2
   1 -31  -4   15386    1278  -3
   8  22  13   15386    1278   1
  -4 -17 -18   16523     930  -2
   9  22  13   16523     930   1
  10  22  13    2866     787   1
  11  22  13    4770     802   1
  12  22  13    -643     738   1
   2 -26 -10    7001     737  -3
   1  23  13    7001     737   1
   2  23  13    7653     754   1
   3  23  13   22383     912   1
   4  23  13    -520     752   1
  -3 -21 -15    3035     812  -2
   5  23  13    3035     812   1
   1 -30  -6   13103     991  -3
   6  23  13   13103     991   1
   7  23  13   10334     908   1
   8  23  13   19741     992   1
   9  23  13    7324     844   1
  -4 -17 -19    2239     778  -2
  10  23  13    2239     778   1
  -4 -16 -20   51308    2561  -2
  11  23  13   51308    2561   1
   0  24  13  185509    4460   1
  -2 -25 -12   16337     842  -2
   1  24  13   16337     842   1
   2  24  13     122     714   1
   3  24  13    1146     752   1
   1 -29  -8   58455    1523  -3
   4  24  13   58455    1523   1
   5  24  13    3580     911   1
   6  24  13   11015     907   1
  -3 -20 -17   31804    1184  -2
   7  24  13   31804    1184   1
   8  24  13   24855    1081   1
   9  24  13   18992     957   1
   0 -34  -3     388     790  -3
  10  24  13     388     790   1
   1  25  13   22867     942   1
   1 -28 -10   14209    1020  -3
   2  25  13   14209    1020   1
  -2 -24 -14   38866    1196  -2
   3  25  13   38866    1196   1
  -2 -23 -15   12679     913  -2
   4  25  13   12679     913   1
   5  25  13   27972    1229   1
   6  25  13   17142    1030   1
   7  25  13   15667    1504   1
   8  25  13    7874     890   1
  -3 -19 -19     177     827  -2
   9  25  13     177     827   1
  -1 -27 -12  165400    4837  -2
   1 -27 -12  165400    4837  -3
   0  26  13  165400    4837   1
   1  26  13   29915    1079   1
   2  26  13   26893    1025   1
   3  26  13     677     763   1
   4  26  13      -4     802   1
  -2 -23 -16    4256     873  -2
   5  26  13    4256     873   1
  -2 -22 -17   67198    1908  -2
   0 -32  -7   67198    1908  -3
   6  26  13   67198    1908   1
   7  26  13    2829     867   1
   8  26  13    6182     894   1
   1  27  13    1829     798   1
  -1 -26 -14    2515     775  -2
   2  27  13    2515     775   1
   3  27  13    3525     819   1
   4  27  13     638     833   1
   5  27  13     541     805   1
   6  27  13    9745     976   1
  -2 -22 -18   22352    1267  -2
   7  27  13   22352    1267   1
   0  28  13  194101    5144   1
   1  28  13    8328     864   1
   0 -30 -11    9543     906  -3
   2  28  13    9543     906   1
   3  28  13    3945     880   1
  -1 -25 -16   57301    1670  -2
   4  28  13   57301    1670   1
   5  28  13    2440    1029   1
   0 -28 -14   18029    1408  -2
   1  29  13   18029    1408   1
   0   0  14  112372    4017   1
   1   0  14  468811    9513   1
  11 -13  -1  710440   14171  -3
   2   0  14  710440   14171   1
   3   0  14   87163    2224   1
 -12  -8  -6   36230    1175  -2
   4   0  14   36230    1175   1
   5   0  14   62215    1605   1
   6   0  14    1471     754   1
   7   0  14    1642     790   1
   8   0  14  186831    4085   1
 -13  -4 -10    8920    1467  -2
   9   0  14    8920    1467   1
  10   0  14  232872    5182   1
  11   0  14   14913    1072   1
  12   0  14  104095    2718   1
  13   0  14    9019    1012   1
  14   0  14   65667    1993   1
 -14   1 -15    1452     953  -2
  15   0  14    1452     953   1
  16   0  14  463638   10207   1
  17   0  14    1958     967   1
  18   0  14    4160    1060   1
   1   1  14   20564     755   1
   2   1  14   16254     705   1
   3   1  14    4595     616   1
   4   1  14   26309    1003   1
   5   1  14   41613     943   1
 -12  -7  -8   40849    1257  -2
   6   1  14   40849    1257   1
   7   1  14   21563    1350   1
   8   1  14    4726     609   1
   9   1  14   18496     763   1
  10   1  14   64333    1356   1
 -13  -3 -12   10558     970  -2
   9 -21   6   10558     970  -3
  11   1  14   10558     970   1
  12   1  14   11299     723   1
  13   1  14   17703     816   1
  14   1  14     436     648   1
  15   1  14   11630    1008   1
  16   1  14   67071    1513   1
 -14   2 -17   38263    4799  -2
  17   1  14   38263    4799   1
  18   1  14   18803     932   1
   0   2  14  155078    3683   1
   1   2  14  170599    2828   1
 -11 -11  -5   48035    1084  -2
   2   2  14   48035    1084   1
   3   2  14   24348     824   1
   4   2  14  336693    4732   1
   5   2  14   73501    2891   1
   6   2  14   34656     891   1
   7   2  14   20608     840   1
 -12  -6 -10  156511    2502  -2
   8   2  14  156511    2502   1
   9 -20   4    7775     656  -3
   9   2  14    7775     656   1
  10   2  14  125954    2151   1
  11   2  14    4430     669   1
  12   2  14   40544    1080   1
 -13  -2 -14   14560     773  -2
  13   2  14   14560     773   1
  14   2  14   12211     749   1
  15   2  14    6824     710   1
  16   2  14   94733    1885   1
  17   2  14    6984     887   1
  18   2  14    8563     780   1
   1   3  14   19372     848   1
   2   3  14     298     589   1
   3   3  14    7478     623   1
 -11 -10  -7   58812    2643  -2
   4   3  14   58812    2643   1
   5   3  14    2129     541   1
   6   3  14      -6     544   1
   9 -19   2    1241     564  -3
   7   3  14    1241     564   1
   8   3  14   87770    1623   1
   9   3  14    2034     597   1
 -12  -5 -12   28484     892  -2
  10   3  14   28484     892   1
  11   3  14    3524     643   1
  12   3  14   90767    1741   1
  13   3  14     989     639   1
  14   3  14   50928    1248   1
 -13  -1 -16    6702     851  -2
  15   3  14    6702     851   1
  16   3  14  248024    4141   1
  17   3  14    2825     692   1
  18   3  14    3788     718   1
   0   4  14   28054    1276   1
   1   4  14   20319     877   1
   2   4  14    -639     639   1
   3   4  14   30629     845   1
   4   4  14    4740     607   1
   9 -18   0   24544     757  -3
   5   4  14   24544     757   1
 -11  -9  -9    3576     577  -2
   6   4  14    3576     577   1
   7   4  14    3664     585   1
   8   4  14    -295     566   1
   9   4  14     842     608   1
  10   4  14    2021     646   1
  11   4  14    1566     634   1
 -12  -4 -14   17866    2184  -2
  12   4  14   17866    2184   1
  13   4  14    5534     682   1
  14   4  14   49693    1212   1
  15   4  14   25865     910   1
   7 -27   9   50954    1305  -3
  16   4  14   50954    1305   1
 -13   0 -18   31165    1063  -2
  17   4  14   31165    1063   1
  18   4  14    1198     698   1
   1   5  14   13463     720   1
   2   5  14    1661     598   1
 -10 -12  -7   19225    1081  -2
   9 -17  -2   19225    1081  -3
   3   5  14   19225    1081   1
   4   5  14    1566     586   1
   5   5  14  115300    1890   1
   6   5  14   23571     753   1
   7   5  14   85046    1532   1
 -11  -8 -11   19922     947  -2
   8   5  14   19922     947   1
   9   5  14   85052    1617   1
  10   5  14   14288     744   1
  11   5  14     529     627   1
  12   5  14   22222    8090   1
  13   5  14  119773    2180   1
 -12  -3 -16   11513     861  -2
   7 -26   7   11513     861  -3
  14   5  14   11513     861   1
  15   5  14   54196    1350   1
  16   5  14    7785     731   1
  17   5  14  106591    2119   1
  18   5  14   18425     837   1
   0   6  14   34471    1406   1
   9 -16  -4  173340    2853  -3
   1   6  14  173340    2853   1
   2   6  14   41646    1008   1
   3   6  14   92514    3486   1
   4   6  14   56641    1211   1
 -10 -11  -9  267280    3966  -2
   5   6  14  267280    3966   1
   6   6  14    5478     587   1
   7   6  14   91932    1643   1
   8   6  14   48191    1103   1
   9   6  14   63680    1288   1
 -11  -7 -13    6820     647  -2
  10   6  14    6820     647   1
  11   6  14    7258     699   1
   7 -25   5    1204     653  -3
  12   6  14    1204     653   1
  13   6  14   25738     894   1
  14   6  14   24422     918   1
  15   6  14   12759     751   1
 -12  -2 -18   21621    2426  -2
  16   6  14   21621    2426   1
  17   6  14   20288     854   1
  18   6  14    5339     694   1
  -9 -15  -6   59621    1320  -2
   1   7  14   59621    1320   1
   2   7  14    1109     584   1
   3   7  14   21529     814   1
   4   7  14   26059     833   1
   5   7  14   20268     771   1
   6   7  14   43981    1559   1
 -10 -10 -11      98     559  -2
   7   7  14      98     559   1
   8   7  14   37416     950   1
   9   7  14     487     576   1
   7 -24   3   21772     762  -3
  10   7  14   21772     762   1
  11   7  14   19754     779   1
 -11  -6 -15   42590    1454  -2
  12   7  14   42590    1454   1
  13   7  14    1711     643   1
  14   7  14    3253     661   1
  15   7  14   31247     975   1
  16   7  14    9697     726   1
  17   7  14   55554    2060   1
 -12  -1 -20   11666     813  -2
  18   7  14   11666     813   1
   0   8  14    7131     886   1
   1   8  14  327005    4783   1
   2   8  14    8254    1260   1
  -9 -14  -8   20520     817  -2
   3   8  14   20520     817   1
   4   8  14  125640    2215   1
   5   8  14  231081    3559   1
   6   8  14  126888    2137   1
   7   8  14   95659    1701   1
   7 -23   1    7766     627  -3
   8   8  14    7766     627   1
 -10  -9 -13     989     579  -2
   9   8  14     989     579   1
  10   8  14    4828     607   1
  11   8  14   16911     723   1
  12   8  14    2985     632   1
  13   8  14  163675    2763   1
 -11  -5 -17    9021     723  -2
  14   8  14    9021     723   1
  15   8  14   25813     936   1
  16   8  14      75     649   1
  17   8  14   97754    1979   1
   1   9  14   92248    1726   1
   2   9  14   45180   25668   1
   3   9  14   61199    1331   1
   4   9  14   36162    1002   1
  -9 -13 -10  109647    5231  -2
   5   9  14  109647    5231   1
   7 -22  -1   13547     976  -3
   6   9  14   13547     976   1
   7   9  14   31755     874   1
   8   9  14    7185     622   1
   9   9  14    6385     619   1
  10   9  14     850     590   1
 -10  -8 -15   22037    1066  -2
  11   9  14   22037    1066   1
  12   9  14   31065     930   1
  13   9  14   23046     872   1
  14   9  14    -558     633   1
  15   9  14    5911     763   1
 -11  -4 -19    3886     721  -2
  16   9  14    3886     721   1
   5 -31   8     726     662  -3
  17   9  14     726     662   1
   0  10  14   58138    1713   1
   1  10  14  405413    6054   1
  -8 -16  -8   15696     762  -2
   2  10  14   15696     762   1
   3  10  14    6365     665   1
   7 -21  -3   21784     800  -3
   4  10  14   21784     800   1
   5  10  14  476314    7273   1
   6  10  14    3312     675   1
  -9 -12 -12   15917     700  -2
   7  10  14   15917     700   1
   8  10  14    1027     572   1
   9  10  14    9218     900   1
  10  10  14     652     587   1
  11  10  14   21531     784   1
  12  10  14   22450     830   1
 -10  -7 -17   14099    1973  -2
  13  10  14   14099    1973   1
  14  10  14     -90     651   1
   5 -30   6    7920     728  -3
  15  10  14    7920     728   1
  16  10  14    8456     753   1
  17  10  14    7134     723   1
   1  11  14    6400     655   1
   7 -20  -5    3160     631  -3
   2  11  14    3160     631   1
   3  11  14  212634    3387   1
  -8 -15 -10   10863     854  -2
   4  11  14   10863     854   1
   5  11  14  106178    2009   1
   6  11  14   38059    1073   1
   7  11  14   25239     887   1
   8  11  14    5984     605   1
  -9 -11 -14   30993     857  -2
   9  11  14   30993     857   1
  10  11  14    7872     651   1
  11  11  14   96233    1728   1
  12  11  14    5216     657   1
   5 -29   4   18420     900  -3
  13  11  14   18420     900   1
  14  11  14   17888     841   1
 -10  -6 -19   22121     986  -2
  15  11  14   22121     986   1
  16  11  14   17287     834   1
  17  11  14    7204     740   1
  -7 -19  -7  182698    4390  -2
   7 -19  -7  182698    4390  -3
   0  12  14  182698    4390   1
   1  12  14   25735     889   1
   2  12  14   70950    1466   1
   3  12  14     549     627   1
   4  12  14  121329    2152   1
   6 -23  -3   11830     759  -3
   5  12  14   11830     759   1
  -8 -14 -12   57510    1364  -2
   6  12  14   57510    1364   1
   7  12  14   13760     764   1
   8  12  14    1161     610   1
   9  12  14    2699     610   1
  10  12  14    4628     672   1
  -9 -10 -16   16713    1424  -2
   5 -28   2   16713    1424  -3
  11  12  14   16713    1424   1
  12  12  14     946     639   1
  13  12  14    2118     667   1
  14  12  14     262     673   1
  15  12  14    5872     719   1
  16  12  14    1368     681   1
   1  13  14   73174    1564   1
  -7 -18  -9    4933     668  -2
   2  13  14    4933     668   1
   6 -22  -5    5700     684  -3
   3  13  14    5700     684   1
   4  13  14   56321    1291   1
   5  13  14   32502     968   1
   6  13  14   38393    1088   1
   7  13  14  135356    2421   1
  -8 -13 -14   10297     717  -2
   8  13  14   10297     717   1
   5 -27   0  209588    5514  -3
   9  13  14  209588    5514   1
  10  13  14     690     627   1
  11  13  14    2073     623   1
  12  13  14   14082     763   1
  -9  -9 -18   36806    1041  -2
  13  13  14   36806    1041   1
  14  13  14   27139     973   1
  15  13  14   63038    1476   1
  16  13  14   26696    1394   1
   0  14  14   48150    1726   1
   6 -21  -7   62439    1414  -3
   1  14  14   62439    1414   1
   2  14  14   30210     971   1
   3  14  14    6815     684   1
  -7 -17 -11   27662     923  -2
   4  14  14   27662     923   1
   5  14  14    9327     715   1
   6  14  14   52334    1246   1
   5 -26  -2   23183    2055  -3
   7  14  14   23183    2055   1
   8  14  14    5484     706   1
   9  14  14   30490     919   1
  -8 -12 -16   11542     751  -2
  10  14  14   11542     751   1
  11  14  14    2162     678   1
  12  14  14    2574     658   1
  13  14  14    2764     681   1
  14  14  14   24324     915   1
  -9  -8 -20    7050     928  -2
  15  14  14    7050     928   1
  -9  -7 -21   20921     931  -2
  16  14  14   20921     931   1
  -6 -20  -9   92120    1792  -2
   1  15  14   92120    1792   1
   2  15  14    2676     663   1
   3  15  14    8900     729   1
   4  15  14   14126     776   1
   5 -25  -4   54934    1292  -3
   5  15  14   54934    1292   1
  -7 -16 -13   79689    1652  -2
   6  15  14   79689    1652   1
   7  15  14     504     665   1
   8  15  14    4431     736   1
   9  15  14     323     675   1
  10  15  14    7125     735   1
  11  15  14   12098     780   1
  -8 -11 -18   13699    1061  -2
  12  15  14   13699    1061   1
  13  15  14    6345     727   1
  14  15  14   29174     971   1
  15  15  14    5247     737   1
   0  16  14   48278    1645   1
   1  16  14    1441     681   1
   2  16  14    4666     683   1
  -6 -19 -11   22912     884  -2
   5 -24  -6   22912     884  -3
   3  16  14   22912     884   1
   4  16  14  124230    2212   1
   5  16  14    3334     703   1
   6  16  14   84275    1731   1
   7  16  14    9277     772   1
  -7 -15 -15   67511    1847  -2
   4 -28  -2   67511    1847  -3
   8  16  14   67511    1847   1
   9  16  14   42701    1207   1
  10  16  14   27635     988   1
  11  16  14    4115     760   1
  12  16  14   10033     771   1
  13  16  14    2987     705   1
  -8 -10 -20   26844    1064  -2
   3 -33   3   26844    1064  -3
  14  16  14   26844    1064   1
  15  16  14   10694     806   1
   5 -23  -8    3081     692  -3
   1  17  14    3081     692   1
   2  17  14   22437     895   1
   3  17  14   10114     756   1
   4  17  14  159949    2752   1
  -6 -18 -13   17218     836  -2
   5  17  14   17218     836   1
   4 -27  -4  149910    2667  -3
   6  17  14  149910    2667   1
   7  17  14    2437     724   1
   8  17  14    2459     735   1
   9  17  14    3692     759   1
  -7 -14 -17    4580     748  -2
  10  17  14    4580     748   1
  -7 -13 -18    6519    1210  -2
  11  17  14    6519    1210   1
   3 -32   1   57192    1363  -3
  12  17  14   57192    1363   1
  13  17  14    7867     772   1
  14  17  14  106579    2148   1
   0  18  14  177884    6834   1
  -5 -22 -10   11232     764  -2
   1  18  14   11232     764   1
   2  18  14   12713    1077   1
   3  18  14    2143     668   1
   4 -26  -6  100042    1981  -3
   4  18  14  100042    1981   1
   5  18  14   40607    1124   1
   6  18  14   23039     923   1
  -6 -17 -15   70819    1577  -2
   7  18  14   70819    1577   1
   8  18  14   21169     943   1
   9  18  14     572     724   1
   3 -31  -1   15131     928  -3
  10  18  14   15131     928   1
  11  18  14   11959    1364   1
  -7 -13 -19   30859    1052  -2
  12  18  14   30859    1052   1
  -7 -12 -20    8082     801  -2
  13  18  14    8082     801   1
  14  18  14   51615    1371   1
   1  19  14   15469     804   1
   4 -25  -8   24494    1685  -3
   2  19  14   24494    1685   1
  -5 -21 -12    3619     751  -2
   3  19  14    3619     751   1
   4  19  14   70273    1567   1
   5  19  14    9851     784   1
   6  19  14   70989    1587   1
   7  19  14    5135     763   1
   3 -30  -3    1325     778  -3
   8  19  14    1325     778   1
  -6 -16 -17   13387     846  -2
   9  19  14   13387     846   1
  10  19  14   10665     820   1
  11  19  14     800     748   1
  12  19  14   53192    1502   1
  13  19  14   31273    1109   1
  -4 -24 -10    1132     949  -2
   4 -24 -10    1132     949  -3
   0  20  14    1132     949   1
   1  20  14    3021     672   1
   2  20  14    1759     733   1
   3  20  14    4616     759   1
   4  20  14   77380    1683   1
  -5 -20 -14   28716     998  -2
   5  20  14   28716     998   1
   3 -29  -5   23074     938  -3
   6  20  14   23074     938   1
   7  20  14   39424    1197   1
   8  20  14   16821     912   1
   9  20  14    2110     787   1
  10  20  14   12995     919   1
  -6 -15 -19   18701    2399  -2
   2 -33  -1   18701    2399  -3
  11  20  14   18701    2399   1
  12  20  14   62976    1660   1
  13  20  14    3936     934   1
   1  21  14    3771     700   1
  -4 -23 -12   16560     854  -2
   2  21  14   16560     854   1
   3  21  14  140764    2640   1
   3 -28  -7   15227     885  -3
   4  21  14   15227     885   1
   5  21  14   23205    1898   1
   6  21  14   35985    3932   1
  -5 -19 -16   21466     969  -2
   7  21  14   21466     969   1
  -5 -18 -17    5603     819  -2
   8  21  14    5603     819   1
   2 -32  -3    9072     894  -3
   9  21  14    9072     894   1
  10  21  14    5220     816   1
  11  21  14    3673     803   1
  12  21  14    9670     913   1
   0  22  14    4399     991   1
   1  22  14   15617    1819   1
   3 -27  -9    1336     713  -3
   2  22  14    1336     713   1
   3  22  14   13528     848   1
  -4 -22 -14    4135     761  -2
   4  22  14    4135     761   1
   5  22  14    -102     722   1
   6  22  14   70379    1690   1
   2 -31  -5     117     806  -3
   7  22  14     117     806   1
   8  22  14    7875     874   1
  -5 -18 -18    6158     970  -2
   9  22  14    6158     970   1
  -5 -17 -19   38658    3321  -2
  10  22  14   38658    3321   1
  11  22  14    7363     866   1
   1  23  14   83977   26796   1
   2  23  14    1047     724   1
   3  23  14   96059    2049   1
   4  23  14   12523     857   1
   2 -30  -7   13896     911  -3
   5  23  14   13896     911   1
  -4 -21 -16   30216    1151  -2
   6  23  14   30216    1151   1
   7  23  14    6416     878   1
   8  23  14    1066     825   1
   9  23  14    9760     904   1
  10  23  14    6791    1624   1
   0  24  14    5914    1047   1
   1  24  14   21566     907   1
  -3 -25 -13   23597     944  -2
   2  24  14   23597     944   1
  -3 -24 -14   14508     902  -2
   2 -29  -9   14508     902  -3
   3  24  14   14508     902   1
   4  24  14   54880    1568   1
   5  24  14   39898    1425   1
   6  24  14    1815     837   1
   7  24  14   46128    1404   1
  -4 -20 -18   19484    1032  -2
   8  24  14   19484    1032   1
   1 -34  -4    -187     833  -3
   9  24  14    -187     833   1
   2 -28 -11   51178    1317  -3
   1  25  14   51178    1317   1
   2  25  14    4279     775   1
   3  25  14  123403    2510   1
  -3 -24 -15    3635     831  -2
   4  25  14    3635     831   1
  -3 -23 -16    9299    1549  -2
   5  25  14    9299    1549   1
   6  25  14   22469    1155   1
   1 -33  -6    5454     897  -3
   7  25  14    5454     897   1
   8  25  14    4740     883   1
   0  26  14   22141    1438   1
  -2 -27 -13    1827     766  -2
   1  26  14    1827     766   1
   2  26  14   54847    1428   1
   3  26  14    6453     835   1
   4  26  14   67413    1877   1
   1 -32  -8   66027    1861  -3
   5  26  14   66027    1861   1
  -3 -23 -17   45914    1470  -2
   6  26  14   45914    1470   1
   1  27  14   18884     954   1
   2  27  14    7246     835   1
  -2 -26 -15  170421    3516  -2
   1 -31 -10  170421    3516  -3
   3  27  14  170421    3516   1
   4  27  14   26106    1179   1
   5  27  14      74    2323   1
  -1 -29 -13    9264    2304  -2
   1 -29 -13    9264    2304  -3
   0  28  14    9264    2304   1
 -12 -12  -4  337628    5027  -2
   1   1  15  337628    5027   1
   2   1  15    6889     683   1
   3   1  15  137630    2147   1
   4   1  15   51675    1060   1
   5   1  15  552790    7298   1
   6   1  15   28791     917   1
 -13  -7  -9    1288     596  -2
   7   1  15    1288     596   1
   8   1  15   31688     942   1
   9   1  15   90361    1708   1
  10 -21   5   14708     734  -3
  10   1  15   14708     734   1
  11   1  15    1021     631   1
 -14  -3 -13    9077     709  -2
  12   1  15    9077     709   1
  13   1  15   78675    1629   1
  14   1  15   13113     865   1
  15   1  15   65307    1482   1
  16   1  15    6534     725   1
  17   1  15    3878     723   1
   0   2  15     507     879   1
   1   2  15    4148     623   1
   2   2  15    7446     704   1
 -12 -11  -6    4247     561  -2
   3   2  15    4247     561   1
   4   2  15   15751     702   1
   5   2  15   10141     619   1
   6   2  15   12824     846   1
   7   2  15    4157     594   1
  10 -20   3   46192    1155  -3
   8   2  15   46192    1155   1
 -13  -6 -11   14910     734  -2
   9   2  15   14910     734   1
  10   2  15    4931     649   1
  11   2  15   57557    1284   1
  12   2  15   17578    1272   1
  13   2  15   50591    1249   1
 -14  -2 -15   14038    1719  -2
  14   2  15   14038    1719   1
  15   2  15   12490     770   1
  16   2  15   44498    1353   1
  17   2  15     928     691   1
   1   3  15    3081     622   1
   2   3  15    3728     598   1
   3   3  15   86958    1582   1
   4   3  15   89862    1588   1
 -12 -10  -8  102051    1813  -2
   5   3  15  102051    1813   1
  10 -19   1    5903     611  -3
   6   3  15    5903     611   1
   7   3  15   10580     748   1
   8   3  15   25994     860   1
   9   3  15   27935     905   1
  10   3  15    1184     684   1
 -13  -5 -13    5017     683  -2
  11   3  15    5017     683   1
  12   3  15    3048     666   1
  13   3  15   16121    1740   1
  14   3  15     -82     661   1
  15   3  15   21425    2391   1
 -14  -1 -17    1330     696  -2
  16   3  15    1330     696   1
   8 -28  10    4304     727  -3
  17   3  15    4304     727   1
   0   4  15    1764     851   1
   1   4  15     558     631   1
 -11 -13  -6   17033    1383  -2
   2   4  15   17033    1383   1
   3   4  15   21156     831   1
  10 -18  -1   22312     874  -3
   4   4  15   22312     874   1
   5   4  15   86804    1677   1
   6   4  15   13480     663   1
 -12  -9 -10   22477    1677  -2
   7   4  15   22477    1677   1
   8   4  15    9558     662   1
   9   4  15   28883    1399   1
  10   4  15     390     643   1
  11   4  15  145901    2481   1
  12   4  15    1168     637   1
 -13  -4 -15   30678    1245  -2
  13   4  15   30678    1245   1
  14   4  15   11990     797   1
   8 -27   8   73594    1603  -3
  15   4  15   73594    1603   1
  16   4  15    1360     679   1
  17   4  15     479     674   1
   1   5  15     -41     648   1
  10 -17  -3    4123     615  -3
   2   5  15    4123     615   1
   3   5  15   82400    1607   1
 -11 -12  -8   60468    8491  -2
   4   5  15   60468    8491   1
   5   5  15  185786    2895   1
   6   5  15    1407     568   1
   7   5  15    4045     681   1
   8   5  15    1321     571   1
 -12  -8 -12    3209     619  -2
   9   5  15    3209     619   1
  10   5  15    1042     617   1
  11   5  15   12142     730   1
  12   5  15     675     642   1
   8 -26   6     233     645  -3
  13   5  15     233     645   1
  14   5  15     198     647   1
 -13  -3 -17   15300     808  -2
  15   5  15   15300     808   1
  16   5  15    6685     698   1
  17   5  15    1694     667   1
 -10 -16  -5   30053    1265  -2
  10 -16  -5   30053    1265  -3
   0   6  15   30053    1265   1
   1   6  15    1656     640   1
   2   6  15   37335    1007   1
   3   6  15   10251     701   1
   4   6  15   10389     690   1
   5   6  15   22583    1012   1
 -11 -11 -10   94522    1858  -2
   6   6  15   94522    1858   1
   7   6  15    7416     627   1
   8   6  15   22045     778   1
   9   6  15    7198     859   1
  10   6  15   19931     802   1
 -12  -7 -14   82767    1637  -2
   8 -25   4   82767    1637  -3
  11   6  15   82767    1637   1
  12   6  15   29531     910   1
  13   6  15   15036     756   1
  14   6  15    8236     693   1
  15   6  15   47900    1199   1
  16   6  15   35186    1027   1
 -13  -2 -19    8332     724  -2
  17   6  15    8332     724   1
   1   7  15   87494    1681   1
 -10 -15  -7    5010     734  -2
   2   7  15    5010     734   1
   3   7  15   61784    1368   1
   4   7  15   20513    1289   1
   5   7  15     900     623   1
   6   7  15   37098    1039   1
   7   7  15   14576    2075   1
 -11 -10 -12  160124    2998  -2
   8   7  15  160124    2998   1
   8 -24   2   28588     878  -3
   9   7  15   28588     878   1
  10   7  15   30646     965   1
  11   7  15   11097     722   1
  12   7  15   45157    1140   1
 -12  -6 -16    1551     634  -2
  13   7  15    1551     634   1
  14   7  15    5041    1021   1
  15   7  15    7594     706   1
  16   7  15    -638     638   1
  17   7  15    7183     724   1
   0   8  15   33428    1358   1
   9 -18  -5   13576    1017  -3
   1   8  15   13576    1017   1
   2   8  15  166848    2899   1
   3   8  15    1491     647   1
 -10 -14  -9   27855     928  -2
   4   8  15   27855     928   1
   5   8  15   40641    3066   1
   6   8  15    7194     659   1
   8 -23   0   11364     685  -3
   7   8  15   11364     685   1
   8   8  15    1102     590   1
   9   8  15     127     588   1
 -11  -9 -14   36029     956  -2
  10   8  15   36029     956   1
  11   8  15   16846     815   1
  12   8  15    5090     687   1
  13   8  15    1094     645   1
  14   8  15     205     642   1
 -12  -5 -18    2871     662  -2
  15   8  15    2871     662   1
  16   8  15   17663    1092   1
  17   8  15      94     705   1
  -9 -17  -7   29073    1643  -2
   1   9  15   29073    1643   1
   2   9  15  198067    3262   1
   3   9  15   61068    1457   1
   4   9  15  284185    4599   1
   8 -22  -2   42344    1155  -3
   5   9  15   42344    1155   1
 -10 -13 -11  113741    2119  -2
   6   9  15  113741    2119   1
   7   9  15   17229     780   1
   8   9  15  149603    2383   1
   9   9  15    6962     687   1
  10   9  15   28635     901   1
  11   9  15    2005     623   1
 -11  -8 -16  135337    2468  -2
  12   9  15  135337    2468   1
  13   9  15    1747     679   1
  14   9  15    8551     745   1
  15   9  15   11370     768   1
   6 -31   7   84812    1752  -3
  16   9  15   84812    1752   1
   0  10  15  142041    3594   1
   1  10  15    4905     691   1
   2  10  15   57494    1371   1
  -9 -16  -9    7280     699  -2
   8 -21  -4    7280     699  -3
   3  10  15    7280     699   1
   4  10  15    2028     731   1
   5  10  15   12222     785   1
   6  10  15   57018    1377   1
   7  10  15    4023     708   1
 -10 -12 -13   38034    1484  -2
   8  10  15   38034    1484   1
   9  10  15    6836     650   1
  10  10  15   28616     878   1
  11  10  15    1197     612   1
  12  10  15   45047    1155   1
  13  10  15    1793     663   1
 -11  -7 -18   16253     839  -2
   6 -30   5   16253     839  -3
  14  10  15   16253     839   1
  15  10  15    8715     757   1
  16  10  15    4195     694   1
   8 -20  -6   38241    2678  -3
   1  11  15   38241    2678   1
   2  11  15   21226     852   1
   3  11  15   19151     796   1
   4  11  15   40699    1117   1
  -9 -15 -11   32512    2767  -2
   5  11  15   32512    2767   1
   6  11  15    3331     710   1
   7  11  15    5054     729   1
   8  11  15   40106    1127   1
   9  11  15    2213     609   1
 -10 -11 -15   14717     727  -2
  10  11  15   14717     727   1
  11  11  15    1007     612   1
   6 -29   3   65990    1391  -3
  12  11  15   65990    1391   1
  13  11  15     446     665   1
  14  11  15    5868     729   1
  15  11  15    5959     734   1
 -11  -6 -20   15533     848  -2
  16  11  15   15533     848   1
   0  12  15    2612    1023   1
  -8 -19  -8    1977     711  -2
   1  12  15    1977     711   1
   2  12  15   45862    1187   1
   3  12  15    2011     648   1
   7 -23  -4   67647    1446  -3
   4  12  15   67647    1446   1
   5  12  15    5602     730   1
   6  12  15     487     705   1
  -9 -14 -13     681     700  -2
   7  12  15     681     700   1
   8  12  15    8223     772   1
   9  12  15     517     642   1
   6 -28   1   10513     697  -3
  10  12  15   10513     697   1
  11  12  15     274     619   1
 -10 -10 -17    4948     682  -2
  12  12  15    4948     682   1
  13  12  15    9374     741   1
  14  12  15    -218     681   1
  15  12  15    5174     893   1
  16  12  15   20627    1153   1
   1  13  15    1288     718   1
   7 -22  -6   10778     768  -3
   2  13  15   10778     768   1
  -8 -18 -10    4559     720  -2
   3  13  15    4559     720   1
   4  13  15   48250    1188   1
   5  13  15    5117     691   1
   6  13  15    6586     771   1
   7  13  15    2795     796   1
   6 -27  -1    4290     745  -3
   8  13  15    4290     745   1
  -9 -13 -15     893     669  -2
   9  13  15     893     669   1
  10  13  15    4880     694   1
  11  13  15    9939    1087   1
  12  13  15    1821     661   1
  13  13  15    2584     682   1
 -10  -9 -19    3982     720  -2
  14  13  15    3982     720   1
 -10  -8 -20     653     693  -2
  15  13  15     653     693   1
  -7 -21  -8   31715    1510  -2
   7 -21  -8   31715    1510  -3
   0  14  15   31715    1510   1
   1  14  15     937     739   1
   2  14  15   67069    1547   1
   3  14  15    1789     670   1
   4  14  15   15578     804   1
  -8 -17 -12   11285     772  -2
   5  14  15   11285     772   1
   6 -26  -3  133465    2411  -3
   6  14  15  133465    2411   1
   7  14  15   22791     945   1
   8  14  15   11821     906   1
   9  14  15    8443     790   1
  10  14  15    1189     683   1
  -9 -12 -17    5200     730  -2
  11  14  15    5200     730   1
  12  14  15   16833     865   1
  13  14  15    2552     686   1
  14  14  15    -320     691   1
  15  14  15   27464    1007   1
   1  15  15   48047    1300   1
  -7 -20 -10   12185     768  -2
   2  15  15   12185     768   1
   3  15  15   20736     865   1
   6 -25  -5   10988     774  -3
   4  15  15   10988     774   1
   5  15  15   45472    1189   1
   6  15  15    2017     698   1
  -8 -16 -14    9094     802  -2
   7  15  15    9094     802   1
   8  15  15   33100    1082   1
   9  15  15     762     794   1
  10  15  15    5053     766   1
  11  15  15    -454     691   1
  12  15  15    7085     769   1
  -9 -11 -19    7808     769  -2
  13  15  15    7808     769   1
  14  15  15     425     728   1
   0  16  15   16392    1279   1
   1  16  15   29589    1074   1
   6 -24  -7   19425     843  -3
   2  16  15   19425     843   1
   3  16  15  114888    2160   1
  -7 -19 -12   13925    1381  -2
   4  16  15   13925    1381   1
   5  16  15   60823    1426   1
   6  16  15    1704     698   1
   5 -28  -3    3150     724  -3
   7  16  15    3150     724   1
   8  16  15   57004    1473   1
  -8 -15 -16    -618     768  -2
   9  16  15    -618     768   1
  -8 -14 -17   36888    1165  -2
  10  16  15   36888    1165   1
  11  16  15    2674     733   1
  12  16  15    5792     808   1
   4 -33   2      84     764  -3
  13  16  15      84     764   1
  14  16  15   26089    1072   1
   1  17  15    1405     720   1
   2  17  15    1266     708   1
   3  17  15   12324     894   1
   4  17  15    6293     752   1
   5 -27  -5   91335    2227  -3
   5  17  15   91335    2227   1
  -7 -18 -14   18798    2213  -2
   6  17  15   18798    2213   1
   7  17  15    3006     748   1
   8  17  15   10734     890   1
   9  17  15    2824     836   1
  10  17  15    -267     794   1
  -8 -14 -18    1841     723  -2
   4 -32   0    1841     723  -3
  11  17  15    1841     723   1
  -8 -13 -19   10335    1993  -2
  12  17  15   10335    1993   1
  13  17  15    1072     726   1
   0  18  15    2933    1100   1
   1  18  15  121966    2313   1
  -6 -22 -11   17055     863  -2
   2  18  15   17055     863   1
   5 -26  -7   38800    1084  -3
   3  18  15   38800    1084   1
   4  18  15    7248     755   1
   5  18  15   26225     988   1
   6  18  15    6126     759   1
   7  18  15    4053     737   1
  -7 -17 -16   36149    1362  -2
   8  18  15   36149    1362   1
   4 -31  -2    2649     828  -3
   9  18  15    2649     828   1
  10  18  15   17633    1692   1
  11  18  15    2715     850   1
  12  18  15     190     761   1
  -8 -13 -20    1923     776  -2
  13  18  15    1923     776   1
   5 -25  -9   81377    1755  -3
   1  19  15   81377    1755   1
   2  19  15    1406     728   1
   3  19  15   52761    1371   1
  -6 -21 -13   11425     803  -2
   4  19  15   11425     803   1
   5  19  15   29227    1030   1
   6  19  15   18949     992   1
   4 -30  -4    1347     730  -3
   7  19  15    1347     730   1
   8  19  15      89     740   1
   9  19  15    -348     777   1
  -7 -16 -18   17149    1627  -2
  10  19  15   17149    1627   1
  11  19  15    4409     847   1
   3 -34   0    1822     809  -3
  12  19  15    1822     809   1
   0  20  15    2854     970   1
  -5 -24 -11    1116     724  -2
   1  20  15    1116     724   1
   2  20  15    1466     740   1
   3  20  15   30532    1100   1
   4  20  15   68172    1573   1
   4 -29  -6   24786     969  -3
   5  20  15   24786     969   1
  -6 -20 -15   17496     888  -2
   6  20  15   17496     888   1
  -6 -19 -16    3245     760  -2
   7  20  15    3245     760   1
   8  20  15    3767     792   1
   9  20  15    7092     851   1
   3 -33  -2    3959     892  -3
  10  20  15    3959     892   1
  11  20  15   22155    1094   1
   1  21  15   11070     826   1
   2  21  15    2566     790   1
  -5 -23 -13   10843     829  -2
   4 -28  -8   10843     829  -3
   3  21  15   10843     829   1
   4  21  15    6874     794   1
   5  21  15   11383    1319   1
   6  21  15   21887     960   1
   7  21  15     709     761   1
  -6 -19 -17    7289     857  -2
   3 -32  -4    7289     857  -3
   8  21  15    7289     857   1
  -6 -18 -18    1575     786  -2
   9  21  15    1575     786   1
  10  21  15    3642     876   1
  11  21  15    2646    1020   1
   0  22  15   54884    2345   1
   4 -27 -10    2238     757  -3
   1  22  15    2238     757   1
   2  22  15    -481     747   1
   3  22  15     900     749   1
   4  22  15   16949     900   1
  -5 -22 -15   24848     970  -2
   5  22  15   24848     970   1
   3 -31  -6    2975     781  -3
   6  22  15    2975     781   1
   7  22  15    5797     838   1
   8  22  15    1845     826   1
   9  22  15    2017     823   1
  10  22  15    2813     942   1
  -4 -26 -12    3821     753  -2
   1  23  15    3821     753   1
  -4 -25 -13    3488     784  -2
   2  23  15    3488     784   1
   3  23  15   17231     927   1
   3 -30  -8    4559     777  -3
   4  23  15    4559     777   1
   5  23  15   21047     984   1
   6  23  15   13616     937   1
  -5 -21 -17    2391     837  -2
   7  23  15    2391     837   1
   8  23  15   21202    1144   1
   9  23  15   20980    1971   1
   0  24  15   89391    2552   1
   1  24  15    5426     768   1
   3 -29 -10   51250    1391  -3
   2  24  15   51250    1391   1
  -4 -25 -14   15597     913  -2
   3  24  15   15597     913   1
  -4 -24 -15    1182     782  -2
   4  24  15    1182     782   1
   5  24  15    2512     860   1
   6  24  15    2214     828   1
   7  24  15     208     842   1
   2 -34  -5    1880    1128  -3
   8  24  15    1880    1128   1
   1  25  15    1578     741   1
   2  25  15     396     764   1
   3  25  15     246     770   1
   4  25  15   10080     902   1
  -4 -24 -16   26151    1177  -2
   5  25  15   26151    1177   1
  -4 -23 -17   20637    1150  -2
   2 -33  -7   20637    1150  -3
   6  25  15   20637    1150   1
   0  26  15   82960    2555   1
   1  26  15    4186     783   1
  -3 -27 -14   66145    3535  -2
   2  26  15   66145    3535   1
   3  26  15   33181    1210   1
   2 -32  -9    7534     967  -3
   4  26  15    7534     967   1
 -13 -13  -3   81150    3257  -2
  13 -13  -3   81150    3257  -3
   0   0  16   81150    3257   1
   1   0  16    6834    1023   1
   2   0  16  214111    4857   1
   3   0  16   61207    1778   1
   4   0  16  188451    3880   1
   5   0  16    8170     834   1
 -14  -8  -8  413093    8416  -2
   6   0  16  413093    8416   1
   7   0  16   16362    1136   1
   8   0  16   12463    1061   1
   9   0  16   17282    1150   1
  10   0  16   28821    1305   1
 -15  -4 -12   39234    4600  -2
  11 -22   6   39234    4600  -3
  11   0  16   39234    4600   1
  12   0  16  228077    5120   1
  13   0  16    4796    1014   1
  14   0  16   17042    1189   1
  15   0  16    5057    1001   1
  16   0  16   23496    1265   1
 -16   1 -17     535    1151  -2
  17   0  16     535    1151   1
   1   1  16    1739     651   1
 -13 -12  -5   24074    2330  -2
   2   1  16   24074    2330   1
   3   1  16   17345     750   1
   4   1  16    9518    1044   1
   5   1  16    5092     594   1
   6   1  16    9580     661   1
   7   1  16    2572     617   1
 -14  -7 -10   38153    2298  -2
   8   1  16   38153    2298   1
  11 -21   4   28061    4715  -3
   9   1  16   28061    4715   1
  10   1  16   67560    1472   1
  11   1  16    2194     660   1
  12   1  16  165981    2819   1
 -15  -3 -14   47297    1659  -2
  13   1  16   47297    1659   1
  14   1  16   45312    1204   1
  15   1  16   70372    1555   1
  16   1  16   13084     788   1
  17   1  16    1962     862   1
   0   2  16  267139    5888   1
   1   2  16    9008     701   1
   2   2  16  256957    3939   1
   3   2  16   27415     854   1
 -13 -11  -7  205743    3065  -2
   4   2  16  205743    3065   1
   5   2  16    4589     622   1
   6   2  16  424960    6122   1
  11 -20   2    4527     644  -3
   7   2  16    4527     644   1
   8   2  16    1668     638   1
   9   2  16     435     629   1
 -14  -6 -12   10966     748  -2
  10   2  16   10966     748   1
  11   2  16     191     677   1
  12   2  16  219122    3920   1
  13   2  16   11602    1200   1
  14   2  16   17959     852   1
 -15  -2 -16   22569    1069  -2
  15   2  16   22569    1069   1
  16   2  16   21545    1034   1
  17   2  16    3255    1058   1
   1   3  16    1356     626   1
   2   3  16    9638     730   1
   3   3  16     701     605   1
   4   3  16   28873     915   1
  11 -19   0   84164    4469  -3
   5   3  16   84164    4469   1
 -13 -10  -9  129200    2162  -2
   6   3  16  129200    2162   1
   7   3  16   15924     795   1
   8   3  16    3749     651   1
   9   3  16     916     631   1
  10   3  16   36868    1063   1
  11   3  16   14156    1011   1
 -14  -5 -14   13918     786  -2
  12   3  16   13918     786   1
  13   3  16    3126     689   1
  14   3  16    7197     721   1
  15   3  16     702     658   1
   9 -28   9    6835     769  -3
  16   3  16    6835     769   1
   0   4  16    1115    1136   1
   1   4  16   13580     768   1
   2   4  16    6434     684   1
 -12 -13  -7   17617     773  -2
  11 -18  -2   17617     773  -3
   3   4  16   17617     773   1
   4   4  16     142     625   1
   5   4  16  174517    2887   1
   6   4  16     720     611   1
   7   4  16   16234     725   1
 -13  -9 -11   17677    1073  -2
   8   4  16   17677    1073   1
   9   4  16     735     623   1
  10   4  16     615     629   1
  11   4  16    2896     672   1
  12   4  16    -637     651   1
  13   4  16    4429     710   1
 -14  -4 -16   24055    1679  -2
   9 -27   7   24055    1679  -3
  14   4  16   24055    1679   1
  15   4  16       1     649   1
  16   4  16    3297     670   1
  11 -17  -4   17602    1064  -3
   1   5  16   17602    1064   1
   2   5  16    1477     621   1
   3   5  16   14631     765   1
   4   5  16    1639     652   1
 -12 -12  -9  132620    4567  -2
   5   5  16  132620    4567   1
   6   5  16    6193     756   1
   7   5  16   18380     821   1
   8   5  16      92     589   1
   9   5  16    8614     687   1
 -13  -8 -13    9907    1302  -2
  10   5  16    9907    1302   1
  11   5  16    1565     643   1
   9 -26   5   50876    1221  -3
  12   5  16   50876    1221   1
  13   5  16    9193     719   1
  14   5  16   12593     748   1
  15   5  16   27275     925   1
 -14  -3 -18    4240     685  -2
  16   5  16    4240     685   1
   0   6  16  155464    3934   1
 -11 -16  -6   81401    1735  -2
   1   6  16   81401    1735   1
   2   6  16   68930    1558   1
   3   6  16   82513    1688   1
   4   6  16   36795    1052   1
   5   6  16  258085    4048   1
   6   6  16   96317    1845   1
 -12 -11 -11   57366    1242  -2
   7   6  16   57366    1242   1
   8   6  16     367     592   1
   9   6  16    2531     625   1
   9 -25   3   20073    1871  -3
  10   6  16   20073    1871   1
  11   6  16    7170     694   1
 -13  -7 -15   10748     719  -2
  12   6  16   10748     719   1
  13   6  16    1953     659   1
  14   6  16    7179     699   1
  15   6  16   15083     788   1
  16   6  16    4880     688   1
   1   7  16    2841     680   1
   2   7  16    3830     736   1
 -11 -15  -8  105106    2642  -2
   3   7  16  105106    2642   1
   4   7  16     799     694   1
   5   7  16   28174     946   1
   6   7  16    8178     705   1
   7   7  16    9941     702   1
   9 -24   1   11314    1315  -3
   8   7  16   11314    1315   1
 -12 -10 -13   56481    1216  -2
   9   7  16   56481    1216   1
  10   7  16   15696     772   1
  11   7  16   30982     959   1
  12   7  16   29136     940   1
  13   7  16   67210    2498   1
 -13  -6 -17   46032    1466  -2
  14   7  16   46032    1466   1
  15   7  16    5643     699   1
  16   7  16     468     672   1
 -10 -18  -6   22931    1337  -2
  10 -18  -6   22931    1337  -3
   0   8  16   22931    1337   1
   1   8  16   11589     783   1
   2   8  16    -687     687   1
   3   8  16   87786    2061   1
   4   8  16   33064    1093   1
 -11 -14 -10  591404    8978  -2
   5   8  16  591404    8978   1
   9 -23  -1    3249     661  -3
   6   8  16    3249     661   1
   7   8  16    2699     669   1
   8   8  16     920     616   1
   9   8  16   12524     701   1
  10   8  16   30644     912   1
 -12  -9 -15   98890    3287  -2
  11   8  16   98890    3287   1
  12   8  16    6369     732   1
  13   8  16    5460     691   1
  14   8  16    3840     692   1
  15   8  16   70315    1533   1
 -13  -5 -19     644     661  -2
  16   8  16     644     661   1
   1   9  16    5309     703   1
 -10 -17  -8    1505     739  -2
   2   9  16    1505     739   1
   3   9  16    2815     770   1
   9 -22  -3    4160     720  -3
   4   9  16    4160     720   1
   5   9  16   89339    1851   1
   6   9  16   18074     864   1
 -11 -13 -12  125698    2234  -2
   7   9  16  125698    2234   1
   8   9  16   27858     922   1
   9   9  16   43675    2483   1
  10   9  16   24509     847   1
  11   9  16   20192     831   1
  12   9  16    1239     647   1
 -12  -8 -17    2181     664  -2
  13   9  16    2181     664   1
  14   9  16   16750     822   1
   7 -31   6   32379    2145  -3
  15   9  16   32379    2145   1
  16   9  16    1649    3646   1
   0  10  16   40331    1638   1
   1  10  16    3171     714   1
   9 -21  -5    8454     757  -3
   2  10  16    8454     757   1
   3  10  16  122822    2479   1
 -10 -16 -10   20378     927  -2
   4  10  16   20378     927   1
   5  10  16  396233    6283   1
   6  10  16   26351     968   1
   7  10  16   17492    1159   1
   8  10  16    6879     765   1
 -11 -12 -14  109661    1927  -2
   9  10  16  109661    1927   1
  10  10  16    2906     635   1
  11  10  16   12965     743   1
  12  10  16     239     658   1
   7 -30   4   38407    1309  -3
  13  10  16   38407    1309   1
  14  10  16    5648     716   1
 -12  -7 -19   37120    1113  -2
  15  10  16   37120    1113   1
   1  11  16   48678    1341   1
   2  11  16    -287     705   1
   3  11  16    8655     815   1
   4  11  16    7178     799   1
   8 -24  -3    2605     785  -3
   5  11  16    2605     785   1
 -10 -15 -12   74603    1651  -2
   6  11  16   74603    1651   1
   7  11  16   79311    1731   1
   8  11  16   16468     861   1
   9  11  16   41934    1194   1
  10  11  16    -628     628   1
 -11 -11 -16    2400     628  -2
   7 -29   2    2400     628  -3
  11  11  16    2400     628   1
  12  11  16   21627     879   1
  13  11  16    1407     691   1
  14  11  16     -32     699   1
  15  11  16    9298     769   1
   0  12  16   19314    1324   1
   1  12  16   78571    1847   1
  -9 -19  -9   14742    1163  -2
   2  12  16   14742    1163   1
   8 -23  -5   14543     899  -3
   3  12  16   14543     899   1
   4  12  16   21163     889   1
   5  12  16  240623    3996   1
   6  12  16   66235    1594   1
   7  12  16    3538     746   1
 -10 -14 -14    3931     770  -2
   8  12  16    3931     770   1
   7 -28   0   50123    1302  -3
   9  12  16   50123    1302   1
  10  12  16    1771     682   1
  11  12  16    -520     627   1
  12  12  16    3139     682   1
 -11 -10 -18   55994    1740  -2
  13  12  16   55994    1740   1
 -11  -9 -19    5114     746  -2
  14  12  16    5114     746   1
  15  12  16    5748     868   1
   8 -22  -7   84687    4239  -3
   1  13  16   84687    4239   1
   2  13  16     606     728   1
   3  13  16   29951    1004   1
  -9 -18 -11   26363    1582  -2
   4  13  16   26363    1582   1
   5  13  16   19105     902   1
   6  13  16   69390    1593   1
   7 -27  -2   10643    1491  -3
   7  13  16   10643    1491   1
   8  13  16    -593     778   1
   9  13  16   38008    1267   1
 -10 -13 -16    1238     701  -2
  10  13  16    1238     701   1
  11  13  16    2682     709   1
  12  13  16   14114     825   1
  13  13  16   11292     820   1
  14  13  16    3165     738   1
   0  14  16    3462    1170   1
  -8 -21  -9   49554    1400  -2
   1  14  16   49554    1400   1
   2  14  16     296     731   1
   3  14  16   24591     955   1
   4  14  16   23851     899   1
   7 -26  -4  184761    3405  -3
   5  14  16  184761    3405   1
  -9 -17 -13   74917    1686  -2
   6  14  16   74917    1686   1
   7  14  16   21026     945   1
   8  14  16   27021    1008   1
   9  14  16    2937     805   1
  10  14  16   27368    1033   1
  11  14  16     462     740   1
 -10 -12 -18   18336    1325  -2
  12  14  16   18336    1325   1
  13  14  16     539     729   1
  14  14  16    8993     809   1
   1  15  16     914     780   1
   2  15  16    -136     722   1
  -8 -20 -11  155436    3801  -2
   7 -25  -6  155436    3801  -3
   3  15  16  155436    3801   1
   4  15  16   23826     909   1
   5  15  16  125515    2290   1
   6  15  16    9571     844   1
   7  15  16    2906     781   1
  -9 -16 -15   10666    1392  -2
   6 -29  -2   10666    1392  -3
   8  15  16   10666    1392   1
  -9 -15 -16     150     767  -2
   9  15  16     150     767   1
  10  15  16   94430    2028   1
  11  15  16    1581     862   1
  12  15  16    5640     826   1
  13  15  16    7118     773   1
   0  16  16   66380    2344   1
   7 -24  -8    1534     793  -3
   1  16  16    1534     793   1
   2  16  16   65587    1652   1
   3  16  16   22562     898   1
   4  16  16   49030    1253   1
  -8 -19 -13   13576     924  -2
   5  16  16   13576     924   1
   6 -28  -4   43851    1223  -3
   6  16  16   43851    1223   1
   7  16  16   11146     859   1
   8  16  16   13162     898   1
   9  16  16   10412     892   1
  -9 -15 -17   38956    1250  -2
  10  16  16   38956    1250   1
  -9 -14 -18    2905     830  -2
  11  16  16    2905     830   1
   5 -33   1   47829    1342  -3
  12  16  16   47829    1342   1
  13  16  16   19882     939   1
  -7 -23 -10   28622    1104  -2
   1  17  16   28622    1104   1
   2  17  16    2722     785   1
   3  17  16   36754    1080   1
   6 -27  -6   10871     793  -3
   4  17  16   10871     793   1
   5  17  16    1300     715   1
   6  17  16    4041     755   1
  -8 -18 -15   55016    1478  -2
   7  17  16   55016    1478   1
   8  17  16  121502    2479   1
   9  17  16   13412     967   1
   5 -32  -1   66095    1750  -3
  10  17  16   66095    1750   1
  11  17  16   11397     948   1
  -9 -14 -19   10931     911  -2
  12  17  16   10931     911   1
   0  18  16     776    1125   1
   1  18  16   12051     887   1
   6 -26  -8   32197    1988  -3
   2  18  16   32197    1988   1
  -7 -22 -12    2308     748  -2
   3  18  16    2308     748   1
   4  18  16   37868    1112   1
   5  18  16    9195     794   1
   6  18  16   87838    1869   1
   7  18  16   10010     822   1
   5 -31  -3   23413    2232  -3
   8  18  16   23413    2232   1
  -8 -17 -17   10927    1515  -2
   9  18  16   10927    1515   1
  10  18  16    4124     871   1
  11  18  16    1241     852   1
  12  18  16   47201    1921   1
   1  19  16   10966     877   1
   2  19  16    2611     756   1
   3  19  16    9100     810   1
   4  19  16   18781     906   1
  -7 -21 -14   38521    1137  -2
   5  19  16   38521    1137   1
  -7 -20 -15    2576     751  -2
   5 -30  -5    2576     751  -3
   6  19  16    2576     751   1
   7  19  16   51635    1328   1
   8  19  16   94299    2142   1
   9  19  16   11182     946   1
  10  19  16   49013    1465   1
  -8 -16 -19   13400    1139  -2
   4 -34  -1   13400    1139  -3
  11  19  16   13400    1139   1
   0  20  16   49508    2004   1
   1  20  16   12581     902   1
  -6 -24 -12   50145    1513  -2
   2  20  16   50145    1513   1
   3  20  16   10025    1541   1
   5 -29  -7   51950    1396  -3
   4  20  16   51950    1396   1
   5  20  16   22071     933   1
   6  20  16   34703    1107   1
  -7 -20 -16    4750     780  -2
   7  20  16    4750     780   1
  -7 -19 -17   19181     959  -2
   8  20  16   19181     959   1
   4 -33  -3    3408     869  -3
   9  20  16    3408     869   1
  10  20  16   23766    1120   1
   1  21  16   31087    3433   1
   5 -28  -9    6505     845  -3
   2  21  16    6505     845   1
   3  21  16    -183     754   1
  -6 -23 -14    9743     911  -2
   4  21  16    9743     911   1
   5  21  16   22755     966   1
   6  21  16    2400     894   1
   4 -32  -5   17210    1942  -3
   7  21  16   17210    1942   1
   8  21  16    7628     866   1
   9  21  16       7     864   1
  -5 -27 -11    -500    1470  -2
   5 -27 -11    -500    1470  -3
   0  22  16    -500    1470   1
  -5 -26 -12    9122    1429  -2
   1  22  16    9122    1429   1
   2  22  16     609     743   1
   3  22  16     581     755   1
   4  22  16    1672     761   1
   4 -31  -7    9795     835  -3
   5  22  16    9795     835   1
  -6 -22 -16     965     760  -2
   6  22  16     965     760   1
   7  22  16    8726     870   1
   8  22  16    7245     853   1
   1  23  16    7114     838   1
  -5 -26 -13   14333     884  -2
   2  23  16   14333     884   1
  -5 -25 -14   34037    1126  -2
   4 -30  -9   34037    1126  -3
   3  23  16   34037    1126   1
   4  23  16    1759     764   1
   5  23  16   18228     954   1
   6  23  16    3563     806   1
   7  23  16    4626     833   1
   0  24  16   27980    1502   1
   4 -29 -11   20282    1059  -3
   1  24  16   20282    1059   1
   2  24  16   16210     911   1
   3  24  16    2076     857   1
  -5 -25 -15   18805     976  -2
   4  24  16   18805     976   1
  -5 -24 -16    2617     818  -2
   5  24  16    2617     818   1
  -4 -28 -13   18104    1767  -2
   1  25  16   18104    1767   1
   2  25  16    9439     875   1
   3  25  16    4115     864   1
   1   1  17   28738    2923   1
   2   1  17   34511    1007   1
 -14 -12  -6   35184    1002  -2
   3   1  17   35184    1002   1
   4   1  17    3500     648   1
   5   1  17   41155    1040   1
   6   1  17   14928     749   1
   7   1  17   19040     838   1
  12 -21   3    5397     744  -3
   8   1  17    5397     744   1
 -15  -7 -11  248379    4064  -2
   9   1  17  248379    4064   1
  10   1  17    6014     946   1
  11   1  17    2354     700   1
  12   1  17   15305    1366   1
  13   1  17   10636     920   1
 -16  -3 -15    3544     714  -2
  14   1  17    3544     714   1
  15   1  17  131059    2442   1
  16   1  17    -548     800   1
   0   2  17    7534    1164   1
   1   2  17    1174     664   1
   2   2  17    2780     679   1
   3   2  17    2453     686   1
   4   2  17   11383     713   1
 -14 -11  -8    3221     653  -2
   5   2  17    3221     653   1
  12 -20   1   29388     912  -3
   6   2  17   29388     912   1
   7   2  17    9063     738   1
   8   2  17   30924    1111   1
   9   2  17   51031    1249   1
  10   2  17   14304     812   1
 -15  -6 -13    3661     697  -2
  11   2  17    3661     697   1
  12   2  17   10603     783   1
  13   2  17    2964     697   1
  14   2  17   90307    1826   1
  15   2  17  137953    2483   1
 -16  -2 -17    4061     910  -2
  16   2  17    4061     910   1
   1   3  17     266     692   1
 -13 -14  -6   62317    1413  -2
   2   3  17   62317    1413   1
   3   3  17    6444     760   1
  12 -19  -1   30167     985  -3
   4   3  17   30167     985   1
   5   3  17   49871    1244   1
   6   3  17   34173    1030   1
 -14 -10 -10   10247     958  -2
   7   3  17   10247     958   1
   8   3  17   11835     870   1
   9   3  17   45690    1169   1
  10   3  17    5129     698   1
  11   3  17    6594     719   1
  12   3  17    2324     685   1
 -15  -5 -15    2938     767  -2
  13   3  17    2938     767   1
  14   3  17    9360     757   1
  10 -28   8   61345    1383  -3
  15   3  17   61345    1383   1
   0   4  17     576    1032   1
   1   4  17    1041     708   1
  12 -18  -3    3330     711  -3
   2   4  17    3330     711   1
   3   4  17    2746     670   1
 -13 -13  -8   17741     834  -2
   4   4  17   17741     834   1
   5   4  17   25419     916   1
   6   4  17    1001     671   1
   7   4  17   15512    1453   1
   8   4  17   61739    1400   1
 -14  -9 -12   46094    1175  -2
   9   4  17   46094    1175   1
  10   4  17    3946     670   1
  11   4  17      80     641   1
  12   4  17     521     650   1
  10 -27   6    4275     682  -3
  13   4  17    4275     682   1
  14   4  17   76720    1598   1
 -15  -4 -17   28839    1418  -2
  15   4  17   28839    1418   1
   1   5  17     747     745   1
   2   5  17   39378    2589   1
   3   5  17   11829     761   1
   4   5  17     972     678   1
   5   5  17   57325    2743   1
 -13 -12 -10    9652    1275  -2
   6   5  17    9652    1275   1
   7   5  17    3732     673   1
   8   5  17   16443     774   1
   9   5  17   28771    1292   1
  10   5  17   13881     762   1
 -14  -8 -14     387     643  -2
  10 -26   4     387     643  -3
  11   5  17     387     643   1
  12   5  17     -22     639   1
  13   5  17    6182     760   1
  14   5  17     561     651   1
  15   5  17    1834     661   1
   0   6  17   34570    1625   1
   1   6  17     133     747   1
 -12 -16  -7    2625     730  -2
   2   6  17    2625     730   1
   3   6  17   15689    1543   1
   4   6  17    8606     741   1
   5   6  17    7430     747   1
   6   6  17  141152    2559   1
   7   6  17    3294     690   1
 -13 -11 -12   23098     845  -2
   8   6  17   23098     845   1
  10 -25   2    3609     663  -3
   9   6  17    3609     663   1
  10   6  17   79189    1609   1
  11   6  17   15565    1857   1
  12   6  17    1309     660   1
 -14  -7 -16   10254     830  -2
  13   6  17   10254     830   1
  14   6  17   31561    1186   1
  15   6  17    -110     654   1
  11 -19  -5   25269     972  -3
   1   7  17   25269     972   1
   2   7  17  131875    2562   1
   3   7  17   23798    1050   1
 -12 -15  -9   85801    1950  -2
   4   7  17   85801    1950   1
   5   7  17   14037     807   1
   6   7  17  305317    4821   1
  10 -24   0   35888    1054  -3
   7   7  17   35888    1054   1
   8   7  17   11171     752   1
   9   7  17    4019     662   1
 -13 -10 -14   37238    1061  -2
  10   7  17   37238    1061   1
  11   7  17    -221     640   1
  12   7  17    7144     779   1
  13   7  17   19688    1066   1
  14   7  17   37649    1064   1
 -14  -6 -18    1120     730  -2
  15   7  17    1120     730   1
   0   8  17    2569     983   1
 -11 -18  -7    1251     728  -2
   1   8  17    1251     728   1
   2   8  17   84787    2059   1
   3   8  17    -763     763   1
   4   8  17  119054    2439   1
  10 -23  -2    8289     804  -3
   5   8  17    8289     804   1
 -12 -14 -11   96317    1962  -2
   6   8  17   96317    1962   1
   7   8  17    5908     805   1
   8   8  17   19822     856   1
   9   8  17   34058     967   1
  10   8  17   27688    3392   1
  11   8  17   10732     739   1
 -13  -9 -16    1328     655  -2
  12   8  17    1328     655   1
  13   8  17    5115     724   1
  14   8  17     730     657   1
  15   8  17    9624     773   1
   1   9  17   26778    1029   1
   2   9  17   51625    1448   1
 -11 -17  -9   42258    1685  -2
  10 -22  -4   42258    1685  -3
   3   9  17   42258    1685   1
   4   9  17    7987     842   1
   5   9  17  131083    2555   1
   6   9  17  201442    3419   1
   7   9  17   14067     838   1
 -12 -13 -13   76179    2107  -2
   8   9  17   76179    2107   1
   9   9  17    6537     726   1
  10   9  17   82925    1632   1
  11   9  17    5988     701   1
  12   9  17    5829     700   1
  13   9  17    5557     689   1
 -13  -8 -18   45455    1196  -2
   8 -31   5   45455    1196  -3
  14   9  17   45455    1196   1
   0  10  17    4891    1078   1
  10 -21  -6     164     749  -3
   1  10  17     164     749   1
   2  10  17   12971     917   1
   3  10  17   11328     881   1
   4  10  17   71872    1740   1
 -11 -16 -11   56201    1557  -2
   5  10  17   56201    1557   1
   6  10  17   35705    1116   1
   7  10  17     943     727   1
   8  10  17    9762     797   1
   9  10  17   16621     841   1
 -12 -12 -15    3671     671  -2
  10  10  17    3671     671   1
  11  10  17   38233    1059   1
   8 -30   3    5443     694  -3
  12  10  17    5443     694   1
  13  10  17   35487    1061   1
  14  10  17    6454     824   1
 -10 -20  -8    7954     828  -2
   1  11  17    7954     828   1
   2  11  17  126192    2609   1
   3  11  17    3804     811   1
   9 -24  -4   99563    2166  -3
   4  11  17   99563    2166   1
   5  11  17   21310     958   1
   6  11  17   35131    1266   1
 -11 -15 -13   24416     968  -2
   7  11  17   24416     968   1
   8  11  17     850     725   1
   9  11  17    1812     736   1
   8 -29   1    5472     772  -3
  10  11  17    5472     772   1
  11  11  17    6824     705   1
 -12 -11 -17   19365    1917  -2
  12  11  17   19365    1917   1
 -12 -10 -18     837     679  -2
  13  11  17     837     679   1
  14  11  17    2449     704   1
   0  12  17    6890    1292   1
   1  12  17    1004     777   1
   9 -23  -6   59579    4316  -3
   2  12  17   59579    4316   1
 -10 -19 -10   14050     930  -2
   3  12  17   14050     930   1
   4  12  17   83144    1928   1
   5  12  17    1416     752   1
   6  12  17   71354    1624   1
   7  12  17    9151     871   1
   8 -28  -1   57601    1416  -3
   8  12  17   57601    1416   1
 -11 -14 -15     451     739  -2
   9  12  17     451     739   1
  10  12  17   24234     978   1
  11  12  17   14810     828   1
  12  12  17   14649    1122   1
  13  12  17    8795     951   1
   1  13  17    6039     838   1
   2  13  17    8609     837   1
   3  13  17   30668    1076   1
   4  13  17    1018     811   1
 -10 -18 -12   26996    1020  -2
   5  13  17   26996    1020   1
   8 -27  -3   94533    1952  -3
   6  13  17   94533    1952   1
   7  13  17    6844     808   1
   8  13  17    1269     756   1
   9  13  17     317     788   1
  10  13  17   21477     950   1
 -11 -13 -17   14063     872  -2
  11  13  17   14063     872   1
  12  13  17    3216     775   1
  13  13  17    5728     813   1
   0  14  17  155179    4532   1
   1  14  17    1660     835   1
  -9 -21 -10   13678     892  -2
   2  14  17   13678     892   1
   3  14  17    3384     784   1
   8 -26  -5   12017    1020  -3
   4  14  17   12017    1020   1
   5  14  17   53896    1382   1
   6  14  17   30509    1078   1
 -10 -17 -14   41528    1210  -2
   7  14  17   41528    1210   1
 -10 -16 -15    6113    1166  -2
   8  14  17    6113    1166   1
   7 -30  -1    9052     833  -3
   9  14  17    9052     833   1
  10  14  17    6194     871   1
  11  14  17    2596     870   1
  12  14  17    1480     741   1
 -11 -12 -19   17615    1192  -2
  13  14  17   17615    1192   1
   1  15  17   21159    1332   1
   8 -25  -7   31479    1134  -3
   2  15  17   31479    1134   1
   3  15  17   37121    1192   1
  -9 -20 -12   31525    1051  -2
   4  15  17   31525    1051   1
   5  15  17  123188    2371   1
   6  15  17    2936     782   1
   7 -29  -3     913     778  -3
   7  15  17     913     778   1
   8  15  17    1936     782   1
 -10 -16 -16   53602    2435  -2
   9  15  17   53602    2435   1
 -10 -15 -17     337     788  -2
  10  15  17     337     788   1
  11  15  17    4497     834   1
  12  15  17    -117     809   1
  -8 -24  -9    7607    1430  -2
   8 -24  -9    7607    1430  -3
   0  16  17    7607    1430   1
   1  16  17   25297    1943   1
   2  16  17   28113    2045   1
   3  16  17   15264     890   1
   4  16  17    9311     809   1
   7 -28  -5    5160     773  -3
   5  16  17    5160     773   1
  -9 -19 -14    2638     786  -2
   6  16  17    2638     786   1
   7  16  17   18407    1956   1
   8  16  17     315     791   1
   9  16  17    1917     801   1
  10  16  17    2280     833   1
 -10 -15 -18   33012    1192  -2
   6 -33   0   33012    1192  -3
  11  16  17   33012    1192   1
 -10 -14 -19    -330    1287  -2
  12  16  17    -330    1287   1
   1  17  17   12478     945   1
  -8 -23 -11   53843    1475  -2
   2  17  17   53843    1475   1
   7 -27  -7    7055    1109  -3
   3  17  17    7055    1109   1
   4  17  17   14920     845   1
   5  17  17   16440     855   1
   6  17  17   39766    1240   1
   7  17  17    2268     802   1
  -9 -18 -16    8189     877  -2
   8  17  17    8189     877   1
   6 -32  -2   35415    1226  -3
   9  17  17   35415    1226   1
  10  17  17   32238    1209   1
  11  17  17    5372     915   1
   0  18  17   29405    1786   1
   7 -26  -9   21033    1047  -3
   1  18  17   21033    1047   1
   2  18  17    1678     808   1
   3  18  17   28081    1113   1
  -8 -22 -13   22381     920  -2
   4  18  17   22381     920   1
  -8 -21 -14   16541     876  -2
   5  18  17   16541     876   1
   6  18  17     471     747   1
   6 -31  -4   41454    1263  -3
   7  18  17   41454    1263   1
   8  18  17    1289     808   1
   9  18  17    5890     871   1
  -9 -17 -18     518     852  -2
  10  18  17     518     852   1
  -7 -25 -11   18914    1715  -2
   1  19  17   18914    1715   1
   2  19  17   14631     925   1
   3  19  17   25975    1044   1
   4  19  17    9244     817   1
   6 -30  -6   81539    1754  -3
   5  19  17   81539    1754   1
  -8 -21 -15    1409     756  -2
   6  19  17    1409     756   1
  -8 -20 -16    6578    1514  -2
   7  19  17    6578    1514   1
   8  19  17    7845     873   1
   9  19  17   56463    1587   1
   0  20  17   13722    1352   1
   1  20  17   19394    1941   1
   2  20  17   34962    3073   1
  -7 -24 -13   23810    1193  -2
   6 -29  -8   23810    1193  -3
   3  20  17   23810    1193   1
   4  20  17   23593     996   1
   5  20  17   16949    1190   1
   6  20  17    7923     803   1
   7  20  17     206     761   1
   5 -33  -4    1953     848  -3
   8  20  17    1953     848   1
   6 -28 -10    2104     837  -3
   1  21  17    2104     837   1
   2  21  17     750     818   1
   3  21  17    1770     795   1
   4  21  17   13064     920   1
  -7 -23 -15    6173     795  -2
   5  21  17    6173     795   1
   5 -32  -6   12260     858  -3
   6  21  17   12260     858   1
   7  21  17   30459    1081   1
   0  22  17   16602    1417   1
  -6 -27 -12    5101     881  -2
   1  22  17    5101     881   1
  -6 -26 -13   26154    4513  -2
   2  22  17   26154    4513   1
   3  22  17     264     774   1
   5 -31  -8    4526     790  -3
   4  22  17    4526     790   1
   5  22  17    2990     776   1
   6  22  17   29501    1079   1
   1  23  17   16959    1021   1
   5 -30 -10     956     793  -3
   2  23  17     956     793   1
  -6 -26 -14   13618     982  -2
   3  23  17   13618     982   1
  -6 -25 -15    9304    1259  -2
   4  23  17    9304    1259   1
  -5 -29 -12   64120    5026  -2
   5 -29 -12   64120    5026  -3
   0  24  17   64120    5026   1
   1  24  17    2726    1375   1
   0   0  18  573189   17053   1
   1   0  18    8083    1068   1
 -15 -13  -5  110909    2944  -2
   2   0  18  110909    2944   1
   3   0  18   17593    1172   1
   4   0  18    4693    1013   1
   5   0  18    3955    1046   1
   6   0  18  139821    3753   1
   7   0  18   12647    1153   1
 -16  -8 -10  181042    4618  -2
   8   0  18  181042    4618   1
  13 -22   4   23964    1345  -3
   9   0  18   23964    1345   1
  10   0  18    4069     987   1
  11   0  18   10461    1095   1
  12   0  18    3863    1035   1
 -17  -4 -14   12477    2429  -2
  13   0  18   12477    2429   1
  14   0  18    8048    1080   1
   1   1  18     403     686   1
   2   1  18    2332     699   1
   3   1  18    -509     683   1
 -15 -12  -7   11932     844  -2
   4   1  18   11932     844   1
   5   1  18   14893     860   1
   6   1  18   36677    1115   1
  13 -21   2   30101    1041  -3
   7   1  18   30101    1041   1
   8   1  18    2072     712   1
   9   1  18   10890     813   1
 -16  -7 -12   42176    1316  -2
  10   1  18   42176    1316   1
  11   1  18   98021    2599   1
  12   1  18    6786     762   1
  13   1  18     945     724   1
  14   1  18   34123    1107   1
   0   2  18    3496     999   1
 -14 -15  -5     322     687  -2
   1   2  18     322     687   1
   2   2  18   78361    1678   1
   3   2  18    2000     745   1
   4   2  18   79884    1747   1
  13 -20   0   28866    1107  -3
   5   2  18   28866    1107   1
 -15 -11  -9   17418     851  -2
   6   2  18   17418     851   1
   7   2  18   21545     876   1
   8   2  18   73006    1590   1
   9   2  18   15043    1695   1
  10   2  18    8186     761   1
  11   2  18   10225     753   1
 -16  -6 -14   35483    1083  -2
  12   2  18   35483    1083   1
  13   2  18    2737     684   1
  14   2  18   15490     813   1
   1   3  18    2373     725   1
   2   3  18    1347     732   1
 -14 -14  -7   16386    2642  -2
  13 -19  -2   16386    2642  -3
   3   3  18   16386    2642   1
   4   3  18   34034    1054   1
   5   3  18   19583     879   1
   6   3  18    9915     768   1
   7   3  18     708     682   1
 -15 -10 -11  105123    2131  -2
   8   3  18  105123    2131   1
   9   3  18   11474     836   1
  10   3  18   11435     783   1
  11   3  18   16660     824   1
  12   3  18    3458     693   1
  13   3  18    3171     890   1
 -16  -5 -16    5738     701  -2
  11 -28   7    5738     701  -3
  14   3  18    5738     701   1
   0   4  18    5086    1165   1
  13 -18  -4    2088     784  -3
   1   4  18    2088     784   1
   2   4  18     210     745   1
   3   4  18    3801     749   1
   4   4  18   26691     990   1
 -14 -13  -9    5359     741  -2
   5   4  18    5359     741   1
   6   4  18   21494     883   1
   7   4  18    1326     715   1
   8   4  18    4844     718   1
   9   4  18    2504     676   1
 -15  -9 -13    4630     779  -2
  10   4  18    4630     779   1
  11   4  18    3822     684   1
  11 -27   5    6448     716  -3
  12   4  18    6448     716   1
  13   4  18    1221     658   1
  14   4  18    4366     690   1
 -13 -17  -6    2354     806  -2
   1   5  18    2354     806   1
   2   5  18    2926     849   1
   3   5  18    5265     723   1
   4   5  18   12928     808   1
   5   5  18     959     699   1
   6   5  18   34518    1070   1
 -14 -12 -11   48922    2374  -2
   7   5  18   48922    2374   1
   8   5  18   51699    1648   1
   9   5  18   45073    1224   1
  11 -26   3    6285     730  -3
  10   5  18    6285     730   1
  11   5  18   49067    1252   1
 -15  -8 -15   24392     904  -2
  12   5  18   24392     904   1
  13   5  18     988     665   1
  14   5  18     688     656   1
   0   6  18    3823    1165   1
   1   6  18    1582     822   1
  12 -20  -4   14120    1575  -3
   2   6  18   14120    1575   1
 -13 -16  -8   28714    1151  -2
   3   6  18   28714    1151   1
   4   6  18    1666     749   1
   5   6  18   11311     804   1
   6   6  18   21338     909   1
   7   6  18   91081    1880   1
  11 -25   1    4770     716  -3
   8   6  18    4770     716   1
 -14 -11 -13    6577     717  -2
   9   6  18    6577     717   1
  10   6  18    4388     706   1
  11   6  18   30529     980   1
  12   6  18   13901    1439   1
  13   6  18    5846     706   1
 -15  -7 -17    7330     713  -2
  14   6  18    7330     713   1
   1   7  18   19739    2435   1
   2   7  18    4328     814   1
   3   7  18   51148    1444   1
   4   7  18    4033     866   1
 -13 -15 -10   13562    1400  -2
   5   7  18   13562    1400   1
  11 -24  -1   54563    1941  -3
   6   7  18   54563    1941   1
   7   7  18   64158    1488   1
   8   7  18   41829    1115   1
   9   7  18   87318    1852   1
  10   7  18   16673     826   1
 -14 -10 -15   13174    1044  -2
  11   7  18   13174    1044   1
  12   7  18   42548    1133   1
  13   7  18    1993     663   1
  14   7  18    2207     699   1
   0   8  18   27958    1609   1
   1   8  18   55682    1413   1
 -12 -18  -8   34214    1186  -2
   2   8  18   34214    1186   1
   3   8  18  125863    2607   1
  11 -23  -3   16244     937  -3
   4   8  18   16244     937   1
   5   8  18   52615    1447   1
   6   8  18   27217    1033   1
 -13 -14 -12  137792    2571  -2
   7   8  18  137792    2571   1
   8   8  18   43400    1170   1
   9   8  18    7205     754   1
  10   8  18    9043     755   1
  11   8  18   66460    1464   1
  12   8  18    6160     708   1
 -14  -9 -17   12423    1917  -2
  13   8  18   12423    1917   1
  14   8  18   21420    3406   1
   1   9  18    9016     906   1
  11 -22  -5    5543     859  -3
   2   9  18    5543     859   1
   3   9  18   32240    1175   1
 -12 -17 -10    4908     834  -2
   4   9  18    4908     834   1
   5   9  18   11196     964   1
   6   9  18   66819    1656   1
   7   9  18   49686    1310   1
   8   9  18   19137     919   1
 -13 -13 -14    5654     735  -2
   9   9  18    5654     735   1
  10   9  18    8872     795   1
  11   9  18     -23     687   1
  12   9  18   17991     836   1
   9 -31   4    1162     679  -3
  13   9  18    1162     679   1
 -11 -21  -7   19267    1415  -2
  11 -21  -7   19267    1415  -3
   0  10  18   19267    1415   1
   1  10  18   58478    1653   1
   2  10  18    6790     885   1
   3  10  18    2148     828   1
   4  10  18    7894     859   1
  10 -25  -3   17836     980  -3
   5  10  18   17836     980   1
 -12 -16 -12   22350    1993  -2
   6  10  18   22350    1993   1
   7  10  18   99440    1996   1
   8  10  18    2953     767   1
   9  10  18    5754     780   1
  10  10  18    3810     735   1
 -13 -12 -16   26218     961  -2
   9 -30   2   26218     961  -3
  11  10  18   26218     961   1
 -13 -11 -17      70     684  -2
  12  10  18      70     684   1
  13  10  18    6312    1215   1
   1  11  18    3435     854   1
 -11 -20  -9    5077    1094  -2
   2  11  18    5077    1094   1
  10 -24  -5    4612     854  -3
   3  11  18    4612     854   1
   4  11  18    8715     870   1
   5  11  18    1290     811   1
   6  11  18   23480    1047   1
   7  11  18   35759    1164   1
 -12 -15 -14    3017     764  -2
   8  11  18    3017     764   1
   9 -29   0    4083     767  -3
   9  11  18    4083     767   1
  10  11  18    6739     793   1
  11  11  18   21914    1002   1
  12  11  18    4906     737   1
 -13 -11 -18     511     911  -2
  13  11  18     511     911   1
   0  12  18    1812    1186   1
  10 -23  -7    9725     869  -3
   1  12  18    9725     869   1
   2  12  18    5283     911   1
   3  12  18    -849     849   1
 -11 -19 -11    3394     867  -2
   4  12  18    3394     867   1
   5  12  18   93649    2095   1
   6  12  18    5008     840   1
   9 -28  -2   65314    2594  -3
   7  12  18   65314    2594   1
   8  12  18    4534     837   1
   9  12  18   10214     889   1
 -12 -14 -16    4651     771  -2
  10  12  18    4651     771   1
  11  12  18   12440     874   1
  12  12  18    9204    1090   1
 -10 -22  -9   28047    1143  -2
   1  13  18   28047    1143   1
   2  13  18     823     813   1
   3  13  18   40533    1375   1
   4  13  18    7616     944   1
   9 -27  -4  178242    3533  -3
   5  13  18  178242    3533   1
 -11 -18 -13    6598     848  -2
   6  13  18    6598     848   1
 -11 -17 -14  147667    2613  -2
   7  13  18  147667    2613   1
   8  13  18    5258     804   1
   9  13  18    6075     807   1
  10  13  18    9913     883   1
  11  13  18   35871    1246   1
 -12 -13 -18    8985     998  -2
  12  13  18    8985     998   1
   0  14  18    5705    1254   1
   1  14  18   10270     926   1
   2  14  18    1275     810   1
 -10 -21 -11   19139    1616  -2
   9 -26  -6   19139    1616  -3
   3  14  18   19139    1616   1
   4  14  18    5605     909   1
   5  14  18   17624    1002   1
   6  14  18    6858     851   1
   7  14  18  111914    2209   1
 -11 -17 -15     743     770  -2
   8 -30  -2     743     770  -3
   8  14  18     743     770   1
 -11 -16 -16    3152     788  -2
   9  14  18    3152     788   1
  10  14  18    4229     797   1
  11  14  18    -769     769   1
   9 -25  -8   38569   12316  -3
   1  15  18   38569   12316   1
   2  15  18    1298     829   1
   3  15  18    6253     864   1
   4  15  18   38936    1322   1
 -10 -20 -13   32004    1264  -2
   5  15  18   32004    1264   1
   8 -29  -4   28726    1058  -3
   6  15  18   28726    1058   1
   7  15  18    3286     797   1
   8  15  18   13038     890   1
   9  15  18    4519     826   1
 -11 -16 -17    9320     865  -2
  10  15  18    9320     865   1
 -11 -15 -18    -201     907  -2
  11  15  18    -201     907   1
   0  16  18   10373    1509   1
  -9 -24 -10    8744     916  -2
   1  16  18    8744     916   1
   2  16  18   86871    2084   1
   3  16  18   17598     976   1
   8 -28  -6   50704    1623  -3
   4  16  18   50704    1623   1
   5  16  18   14069     936   1
   6  16  18   83352    1874   1
 -10 -19 -15   36828    1160  -2
   7  16  18   36828    1160   1
   8  16  18   14133    1088   1
   9  16  18    6879     850   1
   7 -33  -1   26744    1079  -3
  10  16  18   26744    1079   1
   1  17  18   10743     983   1
   8 -27  -8   12344     950  -3
   2  17  18   12344     950   1
  -9 -23 -12    1736     831  -2
   3  17  18    1736     831   1
  -9 -22 -13    3807     832  -2
   4  17  18    3807     832   1
   5  17  18   36358    1196   1
   6  17  18   37754    1659   1
   7  17  18    5024     839   1
   7 -32  -3   17091     906  -3
   8  17  18   17091     906   1
 -10 -18 -17    1066     826  -2
   9  17  18    1066     826   1
  -8 -26 -10   11657    1330  -2
   8 -26 -10   11657    1330  -3
   0  18  18   11657    1330   1
   1  18  18    1525     920   1
   2  18  18   30952    1199   1
   3  18  18   10230     923   1
   4  18  18   17773     959   1
  -9 -22 -14    9534     851  -2
   5  18  18    9534     851   1
  -9 -21 -15    3418     812  -2
   7 -31  -5    3418     812  -3
   6  18  18    3418     812   1
   7  18  18    5507     842   1
   8  18  18   32546    1147   1
   1  19  18    9391     906   1
  -8 -25 -12   22624    1385  -2
   2  19  18   22624    1385   1
   3  19  18    8082     895   1
   7 -30  -7   12413     947  -3
   4  19  18   12413     947   1
   5  19  18    9926     872   1
   6  19  18    2528     815   1
   7  19  18    1393     815   1
   0  20  18   29859    2361   1
   7 -28 -10    -809     809  -3
   1  20  18    -809     809   1
   7 -29  -9    7729     909  -3
   2  20  18    7729     909   1
   3  20  18    3408     867   1
  -8 -24 -14   12851     918  -2
   4  20  18   12851     918   1
   5  20  18    1782     800   1
   6  20  18   20845     970   1
  -7 -27 -12    4340    1089  -2
   1  21  18    4340    1089   1
   2  21  18    -209     843   1
   3  21  18     572     835   1
   4  21  18   16754     943   1
   6 -32  -7   12253     984  -3
   5  21  18   12253     984   1
   0  22  18    1640    1213   1
   1  22  18     211     850   1
  -7 -27 -13    2866     894  -2
   2  22  18    2866     894   1
   1   1  19   48631    1226   1
   2   1  19    8487     778   1
   3   1  19  190174    3309   1
   4   1  19    2646     773   1
 -16 -12  -8  138163    2894  -2
   5   1  19  138163    2894   1
  14 -21   1   58566    1618  -3
   6   1  19   58566    1618   1
   7   1  19  185130    3448   1
   8   1  19   19159     910   1
   9   1  19  305683    5178   1
  10   1  19   10200    1036   1
 -17  -7 -13  248939    4286  -2
  11   1  19  248939    4286   1
  12   1  19    7557     754   1
  13   1  19    2661     690   1
   0   2  19     578     994   1
   1   2  19    2103     744   1
 -15 -15  -6    9396     962  -2
   2   2  19    9396     962   1
   3   2  19     991     767   1
  14 -20  -1    4838     799  -3
   4   2  19    4838     799   1
   5   2  19   13528     948   1
   6   2  19   78978    1750   1
 -16 -11 -10     950     754  -2
   7   2  19     950     754   1
   8   2  19    1094     715   1
   9   2  19   32873    1113   1
  10   2  19    7254     791   1
  11   2  19  197674    3498   1
  12   2  19   57359    1398   1
 -17  -6 -15   15413     822  -2
  13   2  19   15413     822   1
   1   3  19   95313    1999   1
  14 -19  -3   49662    1372  -3
   2   3  19   49662    1372   1
   3   3  19   19024     931   1
 -15 -14  -8   10241     903  -2
   4   3  19   10241     903   1
   5   3  19   62145    1502   1
   6   3  19  137228    2580   1
   7   3  19   29230    1068   1
   8   3  19    3877     791   1
 -16 -10 -12   23811     943  -2
   9   3  19   23811     943   1
  10   3  19     533     708   1
  11   3  19   42217    1188   1
  12   3  19    2452     724   1
  12 -28   6    6350     737  -3
  13   3  19    6350     737   1
 -14 -18  -5     856    1153  -2
  14 -18  -5     856    1153  -3
   0   4  19     856    1153   1
   1   4  19   12855     912   1
   2   4  19    4709     806   1
   3   4  19    6428     815   1
   4   4  19    3674     833   1
   5   4  19   31251    1050   1
 -15 -13 -10   72974    3447  -2
   6   4  19   72974    3447   1
   7   4  19   49207    1320   1
   8   4  19   14149     889   1
   9   4  19   52241    1344   1
  10   4  19    8500     785   1
 -16  -9 -14    7869     754  -2
  12 -27   4    7869     754  -3
  11   4  19    7869     754   1
  12   4  19   16294     842   1
  13   4  19   36090    1087   1
   1   5  19  135982    2740   1
 -14 -17  -7    5330     863  -2
   2   5  19    5330     863   1
   3   5  19   29044    1200   1
   4   5  19   48852    1303   1
   5   5  19   32159    1093   1
   6   5  19    9720     814   1
   7   5  19   50787    1414   1
 -15 -12 -12    3660     787  -2
   8   5  19    3660     787   1
  12 -26   2   10267     855  -3
   9   5  19   10267     855   1
  10   5  19   11327     802   1
  11   5  19    1882     677   1
  12   5  19     950     679   1
 -16  -8 -16    1659     684  -2
  13   5  19    1659     684   1
   0   6  19    -366    1156   1
  13 -20  -5   15334    1316  -3
   1   6  19   15334    1316   1
   2   6  19    3004     856   1
   3   6  19     752     813   1
 -14 -16  -9    9401     946  -2
   4   6  19    9401     946   1
   5   6  19    4530     793   1
   6   6  19   28020    1020   1
  12 -25   0    1261     724  -3
   7   6  19    1261     724   1
   8   6  19    2347     773   1
   9   6  19   51081    1408   1
 -15 -11 -14   20059     865  -2
  10   6  19   20059     865   1
  11   6  19    5875     721   1
  12   6  19    8060     750   1
  13   6  19     445     754   1
 -13 -19  -7   10126     916  -2
   1   7  19   10126     916   1
   2   7  19  126035    2821   1
   3   7  19   23825    1058   1
   4   7  19   65197    1745   1
  12 -24  -2   34733    1276  -3
   5   7  19   34733    1276   1
 -14 -15 -11  329116    5724  -2
   6   7  19  329116    5724   1
   7   7  19     639     749   1
   8   7  19    5581     783   1
   9   7  19    3444     733   1
  10   7  19   21792    1434   1
  11   7  19   24689    1790   1
 -15 -10 -16   21871    1716  -2
  12   7  19   21871    1716   1
   0   8  19   32259    1718   1
   1   8  19     624     909   1
   2   8  19   72702    1801   1
 -13 -18  -9   28988    2785  -2
  12 -23  -4   28988    2785  -3
   3   8  19   28988    2785   1
   4   8  19   15306    1013   1
   5   8  19   14985     939   1
   6   8  19   50084    1417   1
   7   8  19   34575    1180   1
 -14 -14 -13    5004     768  -2
   8   8  19    5004     768   1
   9   8  19   15292     862   1
  10   8  19    2119     726   1
  11   8  19    2429     704   1
  12   8  19    3153     707   1
  12 -22  -6    2575     966  -3
   1   9  19    2575     966   1
   2   9  19  121590    2569   1
   3   9  19   50615    1462   1
   4   9  19  119358    2526   1
 -13 -17 -11   65501    1647  -2
   5   9  19   65501    1647   1
  11 -26  -2   79126    1969  -3
   6   9  19   79126    1969   1
   7   9  19   16692     946   1
   8   9  19    3432     796   1
   9   9  19   25957    1026   1
 -14 -13 -15   25294    1002  -2
  10   9  19   25294    1002   1
 -14 -12 -16    1329     747  -2
  11   9  19    1329     747   1
  10 -31   3   22830     959  -3
  12   9  19   22830     959   1
   0  10  19   94114    4029   1
 -12 -21  -8    4687     912  -2
   1  10  19    4687     912   1
   2  10  19   10020     975   1
   3  10  19    5496     878   1
  11 -25  -4   64665    7522  -3
   4  10  19   64665    7522   1
   5  10  19   22957    1257   1
   6  10  19   53206    1473   1
 -13 -16 -13   29646    1196  -2
   7  10  19   29646    1196   1
   8  10  19   16195     926   1
   9  10  19    2125     769   1
  10 -30   1   63994    1628  -3
  10  10  19   63994    1628   1
  11  10  19     813     749   1
   1  11  19     659     878   1
  11 -24  -6   63105    2811  -3
   2  11  19   63105    2811   1
 -12 -20 -10   19671    1887  -2
   3  11  19   19671    1887   1
   4  11  19    3281     848   1
   5  11  19   19709    1005   1
   6  11  19  241584    4338   1
   7  11  19   11773     941   1
  10 -29  -1    6058     807  -3
   8  11  19    6058     807   1
 -13 -15 -15    3195     815  -2
   9  11  19    3195     815   1
  10  11  19   26577    1051   1
  11  11  19    2230     791   1
 -11 -23  -8   29114    2145  -2
  11 -23  -8   29114    2145  -3
   0  12  19   29114    2145   1
   1  12  19   16311    1780   1
   2  12  19   45589    1442   1
   3  12  19     -12     882   1
   4  12  19    8225     942   1
 -12 -19 -12    4620     875  -2
   5  12  19    4620     875   1
 -12 -18 -13   38184    1654  -2
  10 -28  -3   38184    1654  -3
   6  12  19   38184    1654   1
   7  12  19    1297     895   1
   8  12  19   37639    1204   1
   9  12  19      17     750   1
  10  12  19    3584     841   1
 -13 -14 -17    8490    1109  -2
  11  12  19    8490    1109   1
   1  13  19     784     882   1
 -11 -22 -10   16164    1710  -2
   2  13  19   16164    1710   1
   3  13  19     -28     872   1
  10 -27  -5   36865    2667  -3
   4  13  19   36865    2667   1
   5  13  19     -82     856   1
   6  13  19    1970     861   1
 -12 -18 -14    1994     851  -2
   7  13  19    1994     851   1
 -12 -17 -15   61444    1543  -2
   8  13  19   61444    1543   1
   9 -31  -1    1188     758  -3
   9  13  19    1188     758   1
  10  13  19   30375    1078   1
   0  14  19    5588    1275   1
   1  14  19    4938     915   1
  10 -26  -7   16133    1098  -3
   2  14  19   16133    1098   1
   3  14  19    2176     897   1
 -11 -21 -12   77994    2006  -2
   4  14  19   77994    2006   1
   5  14  19     226     866   1
   6  14  19    3853     870   1
   9 -30  -3    4120     845  -3
   7  14  19    4120     845   1
   8  14  19    9060     882   1
 -12 -17 -16   33356    1100  -2
   9  14  19   33356    1100   1
 -12 -16 -17   26887    2299  -2
  10  14  19   26887    2299   1
   1  15  19    5148     883   1
   2  15  19    5267     912   1
   3  15  19   45791    1494   1
   4  15  19   27116    1182   1
   9 -29  -5   12442    1004  -3
   5  15  19   12442    1004   1
 -11 -20 -14  112783    2493  -2
   6  15  19  112783    2493   1
   7  15  19   91828    2050   1
   8  15  19   28494    1098   1
   9  15  19   46880    1350   1
   0  16  19    1375    1213   1
   1  16  19   65269    1732   1
 -10 -24 -11    3685     968  -2
   2  16  19    3685     968   1
 -10 -23 -12   39163    1665  -2
   9 -28  -7   39163    1665  -3
   3  16  19   39163    1665   1
   4  16  19   14861    1015   1
   5  16  19   89823    2149   1
   6  16  19  148786    3055   1
   7  16  19  157369    3080   1
 -11 -19 -16   34020    1138  -2
   8  16  19   34020    1138   1
   9 -27  -9   25593    1212  -3
   1  17  19   25593    1212   1
   2  17  19    8256     910   1
   3  17  19   30507    1234   1
 -10 -23 -13    7031    1038  -2
   4  17  19    7031    1038   1
 -10 -22 -14   63206    1699  -2
   5  17  19   63206    1699   1
   6  17  19  100442    2343   1
   7  17  19   11629     930   1
   0  18  19    9140    1248   1
  -9 -26 -11  106348    2393  -2
   1  18  19  106348    2393   1
   2  18  19    3862     864   1
   3  18  19   94819    2295   1
   4  18  19   54157    1708   1
   5  18  19  116990    2713   1
   6  18  19  102103    2360   1
   1  19  19    1590     832   1
   2  19  19   13592    1256   1
  -9 -25 -13    9507     954  -2
   8 -30  -8    9507     954  -3
   3  19  19    9507     954   1
   4  19  19    3119     912   1
   5  19  19   59098    2234   1
  -8 -28 -11  105371    4654  -2
   8 -28 -11  105371    4654  -3
   0  20  19  105371    4654   1
   8 -29 -10   21542    1048  -3
   1  20  19   21542    1048   1
   2  20  19   12896    1107   1
   0   0  20 1134125   33121   1
   1   0  20   14001    2359   1
   2   0  20    5053    1074   1
   3   0  20   17286    1306   1
 -17 -13  -7  674635   16487  -2
   4   0  20  674635   16487   1
   5   0  20   24860    1804   1
   6   0  20   86534    3332   1
  15 -22   2   29900    2581  -3
   7   0  20   29900    2581   1
   8   0  20  284715    6892   1
   9   0  20   19396    1296   1
 -18  -8 -12   -1042    1042  -2
  10   0  20   -1042    1042   1
  11   0  20     -53    1047   1
  12   0  20   17900    1426   1
 -16 -16  -5    2915     741  -2
   1   1  20    2915     741   1
   2   1  20    6817     844   1
   3   1  20    -142     782   1
   4   1  20    1769     805   1
  15 -21   0   16577    1072  -3
   5   1  20   16577    1072   1
 -17 -12  -9   20375    1198  -2
   6   1  20   20375    1198   1
   7   1  20   16304    1038   1
   8   1  20    7821     859   1
   9   1  20    4032     756   1
  10   1  20   22797     982   1
  11   1  20   15784     910   1
 -18  -7 -14    4330     816  -2
  12   1  20    4330     816   1
   0   2  20   64542    2150   1
   1   2  20   15841     905   1
   2   2  20     522     783   1
 -16 -15  -7   13026     961  -2
  15 -20  -2   13026     961  -3
   3   2  20   13026     961   1
   4   2  20  419776    7178   1
   5   2  20    7530     939   1
   6   2  20   23306    1127   1
   7   2  20    5484     866   1
 -17 -11 -11  139635    2908  -2
   8   2  20  139635    2908   1
   9   2  20    2409     766   1
  10   2  20    3505     754   1
  11   2  20    4125     765   1
  12   2  20    5807     854   1
  15 -19  -4    2402     849  -3
   1   3  20    2402     849   1
   2   3  20     719     784   1
   3   3  20    2803     795   1
   4   3  20   71738    2729   1
 -16 -14  -9    3591     858  -2
   5   3  20    3591     858   1
   6   3  20    -478     765   1
   7   3  20      86     800   1
   8   3  20  103383    2249   1
   9   3  20   15313     982   1
 -17 -10 -13    4323     774  -2
  10   3  20    4323     774   1
  11   3  20      42     723   1
  13 -28   5   10259     930  -3
  12   3  20   10259     930   1
   0   4  20   16799    1380   1
 -15 -18  -6    8802     906  -2
   1   4  20    8802     906   1
   2   4  20    5542     887   1
   3   4  20   31481    1194   1
   4   4  20   34454    1194   1
   5   4  20    2928     840   1
   6   4  20      62     764   1
 -16 -13 -11    2698     930  -2
   7   4  20    2698     930   1
   8   4  20    4164     807   1
   9   4  20    6786     844   1
  13 -27   3    9797     831  -3
  10   4  20    9797     831   1
  11   4  20     650     729   1
   1   5  20     420     839   1
  14 -21  -4    1760     872  -3
   2   5  20    1760     872   1
 -15 -17  -8    6491     940  -2
   3   5  20    6491     940   1
   4   5  20    7253     968   1
   5   5  20     880     768   1
   6   5  20   19211    1423   1
   7   5  20    1518     778   1
  13 -26   1    9032     872  -3
   8   5  20    9032     872   1
 -16 -12 -13   52497    1436  -2
   9   5  20   52497    1436   1
  10   5  20     146     779   1
  11   5  20   26169     967   1
 -14 -20  -6   86487    2965  -2
  14 -20  -6   86487    2965  -3
   0   6  20   86487    2965   1
   1   6  20     -75     846   1
   2   6  20   15268    1043   1
   3   6  20   56210    1670   1
   4   6  20     123     842   1
 -15 -16 -10   20265    1703  -2
   5   6  20   20265    1703   1
  13 -25  -1   20062     986  -3
   6   6  20   20062     986   1
   7   6  20    1382     777   1
   8   6  20   25273    1033   1
   9   6  20   34856    1181   1
  10   6  20     396     770   1
 -16 -11 -15   17725    1212  -2
  11   6  20   17725    1212   1
   1   7  20   22806    1798   1
 -14 -19  -8    3766     953  -2
   2   7  20    3766     953   1
   3   7  20   18332    1112   1
  13 -24  -3    2514     841  -3
   4   7  20    2514     841   1
   5   7  20    3899     861   1
   6   7  20   47622    1489   1
 -15 -15 -12    8005     863  -2
   7   7  20    8005     863   1
   8   7  20    1695     797   1
   9   7  20    4558     822   1
  10   7  20   10941     869   1
  11   7  20    1611     778   1
   0   8  20     353    1291   1
   1   8  20   73260    2029   1
  13 -23  -5   10844    1091  -3
   2   8  20   10844    1091   1
   3   8  20    2806     886   1
 -14 -18 -10   22350    1054  -2
   4   8  20   22350    1054   1
   5   8  20    4508     867   1
   6   8  20   77958    1896   1
   7   8  20   90725    2157   1
   8   8  20    -254     803   1
 -15 -14 -14   90202    2006  -2
   9   8  20   90202    2006   1
 -15 -13 -15    6512     837  -2
  10   8  20    6512     837   1
   1   9  20    8283    1058   1
   2   9  20    5320    1003   1
   3   9  20    9877     924   1
   4   9  20    3302     861   1
  12 -26  -3   36977    3336  -3
   5   9  20   36977    3336   1
 -14 -17 -12   55787    2356  -2
   6   9  20   55787    2356   1
   7   9  20    6380     862   1
   8   9  20    4310     939   1
   9   9  20   11934     914   1
  10   9  20    -324     786   1
   0  10  20    9729    2284   1
   1  10  20   29847    1547   1
 -13 -21  -9   17438    2051  -2
   2  10  20   17438    2051   1
  12 -25  -5   42755    3353  -3
   3  10  20   42755    3353   1
   4  10  20    -830     830   1
   5  10  20   40913    1310   1
   6  10  20   11346     928   1
   7  10  20   51740    1442   1
 -14 -16 -14   15405     961  -2
   8  10  20   15405     961   1
  11 -30   0   53313    1582  -3
   9  10  20   53313    1582   1
  10  10  20     300     802   1
  12 -24  -7   12122    1741  -3
   1  11  20   12122    1741   1
   2  11  20    1034     903   1
   3  11  20     500     902   1
 -13 -20 -11    4085     903  -2
   4  11  20    4085     903   1
 -13 -19 -12    6593     887  -2
   5  11  20    6593     887   1
   6  11  20   12219     946   1
  11 -29  -2   70605    1751  -3
   7  11  20   70605    1751   1
   8  11  20   36588    1242   1
   9  11  20   11253     936   1
   0  12  20   15015    1748   1
 -12 -23  -9    8798    1066  -2
   1  12  20    8798    1066   1
   2  12  20    6564     973   1
   3  12  20    6866     945   1
   4  12  20    4806     922   1
   5  12  20    8746     930   1
 -13 -19 -13    2269     872  -2
   6  12  20    2269     872   1
 -13 -18 -14   20651    1082  -2
   7  12  20   20651    1082   1
   8  12  20    5592     868   1
   9  12  20   10472    1720   1
   1  13  20   26099    1298   1
   2  13  20    -227     917   1
 -12 -22 -11    2072     898  -2
   3  13  20    2072     898   1
   4  13  20    -861     861   1
   5  13  20   51198    1544   1
   6  13  20    7598     907   1
   7  13  20   61691    1649   1
 -13 -18 -15   25889    1101  -2
  10 -31  -2   25889    1101  -3
   8  13  20   25889    1101   1
   0  14  20   26044    2550   1
   1  14  20    1267     964   1
   2  14  20    2493     957   1
   3  14  20    8585     987   1
   4  14  20    -280     871   1
 -12 -21 -13   18429    1064  -2
   5  14  20   18429    1064   1
  10 -30  -4   13217     978  -3
   6  14  20   13217     978   1
   7  14  20   18500    1032   1
 -11 -25 -10   21640    1340  -2
   1  15  20   21640    1340   1
 -11 -24 -11    3163     975  -2
   2  15  20    3163     975   1
   3  15  20   19084    1101   1
  10 -29  -6    1944     897  -3
   4  15  20    1944     897   1
   5  15  20   34211    1287   1
   6  15  20   16985    1035   1
   0  16  20   33734    1773   1
   1  16  20     775     866   1
  10 -28  -8    7473    1015  -3
   2  16  20    7473    1015   1
 -11 -24 -12    1520     960  -2
   3  16  20    1520     960   1
 -11 -23 -13   68514    1911  -2
   4  16  20   68514    1911   1
   5  16  20    6101     935   1
   1  17  20    3409     970   1
   2  17  20    5757     916   1
   3  17  20   14342    1092   1
   4  17  20    1120    1059   1
   0  18  20   25387    1827   1
   1  18  20    5286    1050   1
 -10 -26 -12   23303    2402  -2
   2  18  20   23303    2402   1
   1   1  21    4042     814   1
 -17 -16  -6    5911     839  -2
   2   1  21    5911     839   1
   3   1  21    5618     858   1
  16 -21  -1    8066     905  -3
   4   1  21    8066     905   1
   5   1  21  167717    3631   1
   6   1  21    3566     985   1
 -18 -12 -10  117714    2846  -2
   7   1  21  117714    2846   1
   8   1  21   10663    1104   1
   9   1  21    5790     883   1
  10   1  21    -155     756   1
   0   2  21    1127    1197   1
   1   2  21   11718    1195   1
  16 -20  -3    3486     810  -3
   2   2  21    3486     810   1
   3   2  21    1666     799   1
 -17 -15  -8    5266     885  -2
   4   2  21    5266     885   1
   5   2  21    3728     894   1
   6   2  21    5283    1018   1
   7   2  21   32097    1526   1
   8   2  21   23002    1156   1
 -18 -11 -12     792     841  -2
   9   2  21     792     841   1
  10   2  21    1636     802   1
   1   3  21    6537     914   1
   2   3  21   66973    1720   1
   3   3  21   31818    1178   1
   4   3  21   17309    1017   1
   5   3  21   11889    1723   1
 -17 -14 -10   10912    1004  -2
   6   3  21   10912    1004   1
   7   3  21     221     932   1
   8   3  21   11823     979   1
   9   3  21   12838     964   1
  10   3  21     817     904   1
   0   4  21    1040    1243   1
   1   4  21    -342     845   1
 -16 -18  -7   14055    1004  -2
   2   4  21   14055    1004   1
  15 -22  -3   17222    1602  -3
   3   4  21   17222    1602   1
   4   4  21    3732     880   1
   5   4  21    4293     913   1
   6   4  21    3720     912   1
   7   4  21     292     841   1
 -17 -13 -12   18438    1327  -2
   8   4  21   18438    1327   1
  14 -27   2    8811     930  -3
   9   4  21    8811     930   1
  10   4  21    5470    1018   1
  15 -21  -5    7387     906  -3
   1   5  21    7387     906   1
   2   5  21   34846    1278   1
   3   5  21   41833    1444   1
 -16 -17  -9    -405     922  -2
   4   5  21    -405     922   1
   5   5  21   15109    1072   1
   6   5  21    7518     954   1
  14 -26   0    1663     814  -3
   7   5  21    1663     814   1
   8   5  21    2278     836   1
   9   5  21     743     807   1
   0   6  21   20674    1748   1
 -15 -20  -7    2492     904  -2
   1   6  21    2492     904   1
   2   6  21     145     915   1
   3   6  21   11203    1027   1
   4   6  21    8203     990   1
  14 -25  -2    3412     949  -3
   5   6  21    3412     949   1
 -16 -16 -11   37345    1403  -2
   6   6  21   37345    1403   1
   7   6  21   11416     968   1
   8   6  21   23257    1060   1
   9   6  21     -79     811   1
   1   7  21    1457     916   1
   2   7  21   33140    1344   1
 -15 -19  -9   41938    1451  -2
  14 -24  -4   41938    1451  -3
   3   7  21   41938    1451   1
   4   7  21   69885    1916   1
   5   7  21   13121     987   1
   6   7  21   96083    2184   1
   7   7  21    2007     932   1
 -16 -15 -13   55438    2430  -2
   8   7  21   55438    2430   1
 -16 -14 -14   19722    1050  -2
   9   7  21   19722    1050   1
   0   8  21   16845    1586   1
   1   8  21     481     981   1
   2   8  21    3164     986   1
   3   8  21     649     936   1
   4   8  21   23291    1116   1
 -15 -18 -11   23469    2940  -2
   5   8  21   23469    2940   1
  13 -27  -2    9234     920  -3
   6   8  21    9234     920   1
   7   8  21   14070     995   1
   8   8  21    3764     949   1
   1   9  21   47239    1632   1
   2   9  21   66369    1957   1
   3   9  21    7209    1021   1
  13 -26  -4   12623    1080  -3
   4   9  21   12623    1080   1
   5   9  21   16846     998   1
   6   9  21   88097    2070   1
 -15 -17 -13   29002    1196  -2
   7   9  21   29002    1196   1
   8   9  21   19323    1034   1
   0  10  21    6260    1597   1
   1  10  21    2914    1040   1
  13 -25  -6    2443    1009  -3
   2  10  21    2443    1009   1
 -14 -21 -10    4726     961  -2
   3  10  21    4726     961   1
   4  10  21   20376    1134   1
   5  10  21    6778     904   1
   6  10  21    -825     825   1
   7  10  21   28049    1134   1
   8  10  21    7639    4427   1
   1  11  21   28420    1441   1
   2  11  21   54196    1813   1
   3  11  21     573     914   1
   4  11  21   49400    1532   1
 -14 -20 -12    1462     890  -2
   5  11  21    1462     890   1
 -14 -19 -13   34621    1394  -2
   6  11  21   34621    1394   1
   7  11  21    8260     929   1
   0  12  21    2934    1564   1
   1  12  21    3566    1106   1
 -13 -23 -10   19290    1154  -2
   2  12  21   19290    1154   1
   3  12  21    9118    1310   1
   4  12  21   35558    1304   1
   5  12  21     654     893   1
   6  12  21   12831     971   1
   1  13  21    -314    1075   1
   2  13  21    1149     982   1
   3  13  21    3719     949   1
 -13 -22 -12    5932    1486  -2
   4  13  21    5932    1486   1
   5  13  21   29679    1222   1
   0  14  21   52394    2976   1
   1  14  21    3204    1010   1
   2  14  21     190     986   1
   3  14  21     837     916   1
   4  14  21    5084    1205   1
   1  15  21    4257    1141   1
   2  15  21    9173    1239   1
   0   0  22  221102    7958   1
 -18 -17  -5   75880    2474  -2
   1   0  22   75880    2474   1
   2   0  22  311933    8025   1
   3   0  22   34343    1792   1
   4   0  22   22054    1634   1
  17 -22   0   33458    1996  -3
   5   0  22   33458    1996   1
 -19 -13  -9    1551    1341  -2
   6   0  22    1551    1341   1
   7   0  22   32545    1954   1
   8   0  22    4633    1873   1
   1   1  22    8379     911   1
   2   1  22    8810     901   1
 -18 -16  -7    8332     970  -2
  17 -21  -2    8332     970  -3
   3   1  22    8332     970   1
   4   1  22    1319     945   1
   5   1  22     688     970   1
   6   1  22    4385    1002   1
   7   1  22    9271    1084   1
 -19 -12 -11    5186    1250  -2
   8   1  22    5186    1250   1
   0   2  22    1554    1200   1
  17 -20  -4   15036    1002  -3
   1   2  22   15036    1002   1
   2   2  22   34423    1191   1
   3   2  22   20853    1094   1
   4   2  22   34569    1281   1
 -18 -15  -9    2367     947  -2
   5   2  22    2367     947   1
   6   2  22   10352    2490   1
   7   2  22     226    1012   1
   8   2  22    2668    2170   1
 -17 -19  -6    -116     852  -2
   1   3  22    -116     852   1
   2   3  22    1444     884   1
   3   3  22    1593     899   1
   4   3  22   10578     994   1
   5   3  22    4964     969   1
   6   3  22    4648     980   1
 -18 -14 -11   10135    1707  -2
   7   3  22   10135    1707   1
   0   4  22    2987    1263   1
   1   4  22   17774    1052   1
  16 -22  -4   13530    1000  -3
   2   4  22   13530    1000   1
 -17 -18  -8    1047     906  -2
   3   4  22    1047     906   1
   4   4  22   11814    1061   1
   5   4  22   23610    1151   1
   6   4  22     273     924   1
   7   4  22    2325     978   1
   1   5  22    4625     934   1
   2   5  22    3102     945   1
   3   5  22    2787     982   1
   4   5  22    2940     950   1
 -17 -17 -10   10906    1058  -2
   5   5  22   10906    1058   1
   6   5  22    6237    1025   1
   7   5  22    3247    1085   1
   0   6  22   30675    1726   1
   1   6  22   53701    1630   1
 -16 -20  -8   30637    1318  -2
   2   6  22   30637    1318   1
   3   6  22   30731    1302   1
   4   6  22    3184     947   1
   5   6  22   29751    1300   1
   6   6  22   10260    1157   1
 -17 -16 -12    5111    1427  -2
   7   6  22    5111    1427   1
   1   7  22    4470    1193   1
   2   7  22    7108    1166   1
   3   7  22   27482    1267   1
 -16 -19 -10   11698    1558  -2
   4   7  22   11698    1558   1
   5   7  22    3167     938   1
   6   7  22    3504     918   1
   0   8  22   17942    1651   1
   1   8  22   30216    1565   1
   2   8  22   11302    1087   1
   3   8  22   25103    1242   1
   4   8  22    7397     992   1
  14 -27  -3   52956    2568  -3
   5   8  22   52956    2568   1
 -16 -18 -12   31647    2625  -2
   6   8  22   31647    2625   1
   1   9  22    1802    1031   1
   2   9  22    2720    1010   1
  14 -26  -5   22284    1336  -3
   3   9  22   22284    1336   1
   4   9  22    2755    1001   1
   5   9  22     762     993   1
   0  10  22   16300    2465   1
  14 -25  -7   46757    1667  -3
   1  10  22   46757    1667   1
   2  10  22   25987    1336   1
   3  10  22   53848    1735   1
   4  10  22    4888    1097   1
 -14 -24  -9   29510    1452  -2
   1  11  22   29510    1452   1
   2  11  22    5317    1089   1
   3  11  22    3923    1266   1
   0  12  22   26586    2961   1
   1  12  22   11425    2883   1
   1   1  23   12272    1003   1
   2   1  23   10008     989   1
   3   1  23  245587    4885   1
 -19 -16  -8    4423    1265  -2
   4   1  23    4423    1265   1
   0   2  23     170    1238   1
   1   2  23    2187     927   1
   2   2  23    1175     931   1
   3   2  23   14251    1031   1
   4   2  23     875    1062   1
   1   3  23   19765    1075   1
   2   3  23    2154     892   1
  17 -23  -3    3302     970  -3
   3   3  23    3302     970   1
   4   3  23    8216    1385   1
   0   4  23    -275    1231   1
  17 -22  -5    3475     911  -3
   1   4  23    3475     911   1
   2   4  23     819     909   1
   3   4  23    2596    1004   1
 -17 -21  -7   20240    1127  -2
   1   5  23   20240    1127   1
   2   5  23     976     959   1
   3   5  23   25206    5401   1
   0   6  23     526    1428   1
   1   6  23    6330    1759   1
   2   6  23    1874    1130   1
;
_shelx_hkl_checksum              88573
#END Tags that were not found in dictionaries
loop_
_space_group_symop_operation_xyz
'x, y, z'
'-x, -y, z+1/2'
'-x, y+1/2, -z+1/2'
'x, -y+1/2, -z'
'-x, -y, -z'
'x, y, -z-1/2'
'x, -y-1/2, z-1/2'
'-x, y-1/2, z'
loop_
_atom_site_label
_atom_site_type_symbol
_atom_site_fract_x
_atom_site_fract_y
_atom_site_fract_z
_atom_site_U_iso_or_equiv
_atom_site_adp_type
_atom_site_occupancy
_atom_site_site_symmetry_order
_atom_site_calc_flag
_atom_site_refinement_flags_posn
_atom_site_refinement_flags_adp
_atom_site_refinement_flags_occupancy
_atom_site_disorder_assembly
_atom_site_disorder_group
C1 C 0.3641(2) 0.25965(14) 0.7500 0.0166(5) Uani 1 2 d S T P . .
C4 C 0.20691(15) 0.25103(10) 0.69900(16) 0.0154(3) Uani 1 1 d . . . . .
C5 C 0.30446(16) 0.25628(10) 0.66749(17) 0.0159(4) Uani 1 1 d . . . . .
C6 C 0.32590(16) 0.29291(10) 0.58870(16) 0.0158(4) Uani 1 1 d . . . . .
C7 C 0.40769(16) 0.33400(10) 0.58961(16) 0.0157(3) Uani 1 1 d . . . . .
C8 C 0.46483(15) 0.33706(10) 0.66828(17) 0.0154(3) Uani 1 1 d . . . . .
C9 C 0.4431(2) 0.29930(15) 0.7500 0.0165(5) Uani 1 2 d S T P . .
C17 C 0.06254(14) 0.31585(10) 0.70125(16) 0.0138(3) Uani 1 1 d . . . . .
C18 C 0.13587(16) 0.28275(10) 0.65016(16) 0.0151(3) Uani 1 1 d . . . . .
C19 C 0.15868(15) 0.32086(10) 0.56899(15) 0.0142(3) Uani 1 1 d . . . . .
C20 C 0.25184(16) 0.32598(10) 0.53920(15) 0.0150(3) Uani 1 1 d . . . . .
C21 C 0.28709(16) 0.38647(10) 0.50927(14) 0.0140(3) Uani 1 1 d . . . . .
C22 C 0.38415(15) 0.39159(10) 0.54066(15) 0.0142(3) Uani 1 1 d . . . . .
C23 C 0.42099(14) 0.45027(10) 0.56739(15) 0.0129(3) Uani 1 1 d . . . . .
C24 C 0.48171(13) 0.45340(10) 0.65000(15) 0.0130(3) Uani 1 1 d . . . . .
C25 C 0.50022(14) 0.39742(10) 0.69916(16) 0.0147(3) Uani 1 1 d . . . . .
C36 C 0.01343(13) 0.42883(10) 0.69876(15) 0.0127(3) Uani 1 1 d . . . . .
C37 C 0.04020(14) 0.37339(10) 0.65200(15) 0.0132(3) Uani 1 1 d . . . . .
C38 C 0.10012(15) 0.37668(10) 0.57004(15) 0.0138(3) Uani 1 1 d . . . . .
C39 C 0.13220(15) 0.43530(10) 0.53695(14) 0.0131(3) Uani 1 1 d . . . . .
C40 C 0.22985(15) 0.44028(10) 0.50518(14) 0.0133(3) Uani 1 1 d . . . . .
C41 C 0.27523(15) 0.50130(10) 0.50666(14) 0.0126(3) Uani 1 1 d . . . . .
C42 C 0.37091(14) 0.50617(10) 0.53820(14) 0.0126(3) Uani 1 1 d . . . . .
C43 C 0.40738(14) 0.56688(10) 0.56716(14) 0.0128(3) Uani 1 1 d . . . . .
C44 C 0.46812(14) 0.56992(10) 0.64976(15) 0.0126(3) Uani 1 1 d . . . . .
C45 C 0.48971(13) 0.51244(9) 0.69959(15) 0.0123(3) Uani 1 1 d . . . . .
C56 C -0.00040(13) 0.54559(10) 0.69873(16) 0.0133(3) Uani 1 1 d . . . . .
C57 C 0.02440(14) 0.48807(10) 0.64989(15) 0.0126(3) Uani 1 1 d . . . . .
C58 C 0.08462(14) 0.49116(10) 0.56930(14) 0.0126(3) Uani 1 1 d . . . . .
C59 C 0.11855(15) 0.55187(10) 0.53729(14) 0.0136(3) Uani 1 1 d . . . . .
C60 C 0.21625(15) 0.55684(10) 0.50498(14) 0.0130(3) Uani 1 1 d . . . . .
C61 C 0.26036(15) 0.61586(10) 0.50910(14) 0.0141(3) Uani 1 1 d . . . . .
C62 C 0.35712(15) 0.62111(10) 0.54036(14) 0.0135(3) Uani 1 1 d . . . . .
C63 C 0.36723(15) 0.68010(10) 0.58925(15) 0.0143(3) Uani 1 1 d . . . . .
C64 C 0.42450(15) 0.68313(10) 0.66822(15) 0.0136(3) Uani 1 1 d . . . . .
C65 C 0.47340(14) 0.62706(10) 0.69900(15) 0.0130(3) Uani 1 1 d . . . . .
C76 C 0.02172(14) 0.66219(10) 0.70128(17) 0.0158(4) Uani 1 1 d . . . . .
C77 C 0.01323(14) 0.60292(10) 0.65198(16) 0.0147(3) Uani 1 1 d . . . . .
C78 C 0.07333(15) 0.60613(10) 0.57005(16) 0.0148(3) Uani 1 1 d . . . . .
C79 C 0.11813(15) 0.66709(10) 0.56897(16) 0.0148(3) Uani 1 1 d . . . . .
C80 C 0.21123(16) 0.67177(10) 0.53921(15) 0.0149(3) Uani 1 1 d . . . . .
C81 C 0.27685(16) 0.71200(10) 0.58894(16) 0.0148(3) Uani 1 1 d . . . . .
C82 C 0.3938(2) 0.71834(14) 0.7500 0.0148(5) Uani 1 2 d S T P . .
C85 C 0.08674(15) 0.70243(10) 0.64996(17) 0.0156(4) Uani 1 1 d . . . . .
C86 C 0.14982(16) 0.74122(10) 0.69887(17) 0.0161(4) Uani 1 1 d . . . . .
C87 C 0.24718(15) 0.74604(10) 0.66751(16) 0.0155(3) Uani 1 1 d . . . . .
C88 C 0.3071(2) 0.74932(14) 0.7500 0.0153(5) Uani 1 2 d S T P . .
S1 S 0.26748(11) 0.40969(8) 0.2500 0.0311(3) Uani 0.9 2 d DS T P A 1
S2 S 0.24827(11) 0.55560(8) 0.2500 0.0310(3) Uani 0.9 2 d DS T P A 1
C91 C 0.2584(3) 0.4821(3) 0.2500 0.0225(7) Uani 0.9 2 d DS T P A 1
S1B S 0.2631(13) 0.4326(7) 0.2500 0.039(4) Uiso 0.1 2 d DS . P B 2
S2B S 0.2487(14) 0.5795(8) 0.2500 0.046(4) Uiso 0.1 2 d DS . P B 2
C91B C 0.260(3) 0.5056(10) 0.2500 0.024(9) Uiso 0.1 2 d DS . P B 2
loop_
_atom_site_aniso_label
_atom_site_aniso_U_11
_atom_site_aniso_U_22
_atom_site_aniso_U_33
_atom_site_aniso_U_23
_atom_site_aniso_U_13
_atom_site_aniso_U_12
C1 0.0169(12) 0.0099(11) 0.0230(14) 0.000 0.000 0.0039(9)
C4 0.0185(8) 0.0096(7) 0.0182(8) -0.0016(6) 0.0000(7) -0.0017(6)
C5 0.0191(8) 0.0088(7) 0.0199(9) -0.0029(6) 0.0008(7) 0.0004(6)
C6 0.0185(9) 0.0109(7) 0.0180(9) -0.0047(6) 0.0035(7) 0.0014(6)
C7 0.0167(8) 0.0140(8) 0.0164(8) -0.0037(7) 0.0050(7) 0.0025(6)
C8 0.0119(7) 0.0140(8) 0.0204(9) -0.0024(7) 0.0041(7) 0.0037(6)
C9 0.0133(11) 0.0120(11) 0.0243(14) 0.000 0.000 0.0057(9)
C17 0.0129(7) 0.0108(7) 0.0178(8) -0.0003(6) -0.0013(6) -0.0051(6)
C18 0.0171(8) 0.0107(7) 0.0175(9) -0.0030(6) -0.0023(7) -0.0045(6)
C19 0.0176(8) 0.0129(7) 0.0120(7) -0.0049(6) -0.0020(6) -0.0033(6)
C20 0.0185(8) 0.0133(8) 0.0132(8) -0.0055(6) 0.0005(7) -0.0011(6)
C21 0.0188(8) 0.0137(8) 0.0094(7) -0.0046(6) 0.0023(6) -0.0011(6)
C22 0.0151(8) 0.0151(8) 0.0123(8) -0.0031(6) 0.0047(6) 0.0010(6)
C23 0.0126(7) 0.0141(8) 0.0120(7) -0.0027(6) 0.0048(6) 0.0003(6)
C24 0.0085(7) 0.0139(8) 0.0167(8) -0.0016(6) 0.0034(6) 0.0012(6)
C25 0.0095(7) 0.0138(8) 0.0209(9) -0.0018(7) 0.0028(7) 0.0027(6)
C36 0.0081(7) 0.0139(7) 0.0160(8) 0.0002(6) -0.0015(6) -0.0024(6)
C37 0.0106(7) 0.0138(8) 0.0151(8) -0.0018(6) -0.0032(6) -0.0036(6)
C38 0.0147(8) 0.0142(8) 0.0124(7) -0.0029(6) -0.0041(6) -0.0029(6)
C39 0.0147(8) 0.0149(8) 0.0096(7) -0.0018(6) -0.0035(6) -0.0018(6)
C40 0.0161(8) 0.0148(8) 0.0088(7) -0.0019(6) 0.0000(6) -0.0017(6)
C41 0.0167(8) 0.0143(7) 0.0068(6) 0.0004(6) 0.0013(6) -0.0016(6)
C42 0.0129(7) 0.0144(8) 0.0106(7) -0.0007(6) 0.0045(6) -0.0007(6)
C43 0.0135(7) 0.0142(8) 0.0106(7) 0.0012(6) 0.0036(6) -0.0011(6)
C44 0.0096(7) 0.0145(8) 0.0138(8) -0.0001(6) 0.0034(6) -0.0028(6)
C45 0.0073(6) 0.0130(7) 0.0167(8) -0.0006(6) 0.0020(6) -0.0002(5)
C56 0.0068(6) 0.0152(8) 0.0180(8) 0.0009(7) -0.0019(6) 0.0015(6)
C57 0.0087(7) 0.0148(8) 0.0143(8) 0.0010(6) -0.0035(6) -0.0008(6)
C58 0.0116(7) 0.0150(8) 0.0112(7) 0.0001(6) -0.0048(6) -0.0012(6)
C59 0.0144(8) 0.0154(8) 0.0109(7) 0.0015(6) -0.0053(6) -0.0005(6)
C60 0.0171(8) 0.0144(8) 0.0075(7) 0.0020(6) -0.0014(6) -0.0010(6)
C61 0.0182(8) 0.0147(8) 0.0093(7) 0.0039(6) 0.0000(6) -0.0012(6)
C62 0.0159(8) 0.0145(8) 0.0100(7) 0.0031(6) 0.0029(6) -0.0025(6)
C63 0.0162(8) 0.0125(7) 0.0143(8) 0.0047(6) 0.0020(6) -0.0035(6)
C64 0.0133(7) 0.0122(7) 0.0152(8) 0.0025(6) 0.0019(6) -0.0046(6)
C65 0.0097(7) 0.0135(7) 0.0157(8) 0.0019(6) 0.0012(6) -0.0034(6)
C76 0.0112(7) 0.0130(8) 0.0232(10) 0.0017(7) -0.0012(7) 0.0047(6)
C77 0.0101(7) 0.0145(8) 0.0195(9) 0.0018(7) -0.0045(6) 0.0018(6)
C78 0.0149(8) 0.0153(8) 0.0142(8) 0.0025(6) -0.0062(6) 0.0020(6)
C79 0.0160(8) 0.0133(8) 0.0152(8) 0.0043(6) -0.0041(7) 0.0019(6)
C80 0.0196(9) 0.0145(8) 0.0105(7) 0.0049(6) -0.0018(6) 0.0006(7)
C81 0.0182(8) 0.0110(7) 0.0152(8) 0.0055(6) 0.0002(7) -0.0024(6)
C82 0.0164(12) 0.0107(10) 0.0173(12) 0.000 0.000 -0.0050(9)
C85 0.0148(8) 0.0111(7) 0.0209(9) 0.0041(7) -0.0027(7) 0.0036(6)
C86 0.0165(8) 0.0103(8) 0.0215(9) 0.0025(7) -0.0006(7) 0.0035(6)
C87 0.0188(8) 0.0098(7) 0.0179(9) 0.0032(6) -0.0012(7) -0.0002(6)
C88 0.0189(12) 0.0089(10) 0.0181(12) 0.000 0.000 -0.0028(9)
S1 0.0367(6) 0.0308(7) 0.0257(5) 0.000 0.000 -0.0028(5)
S2 0.0350(6) 0.0335(7) 0.0245(5) 0.000 0.000 0.0042(5)
C91 0.0168(15) 0.036(3) 0.0146(15) 0.000 0.000 -0.0011(16)
loop_
_atom_type_symbol
_atom_type_description
_atom_type_scat_dispersion_real
_atom_type_scat_dispersion_imag
_atom_type_scat_source
C C 0.0004 0.0020 'International Tables Vol C Tables 4.2.6.8 and 6.1.1.4'
S S 0.1430 0.1480 'International Tables Vol C Tables 4.2.6.8 and 6.1.1.4'
loop_
_geom_angle_atom_site_label_1
_geom_angle_atom_site_label_2
_geom_angle_atom_site_label_3
_geom_angle
_geom_angle_site_symmetry_1
_geom_angle_site_symmetry_3
C9 C1 C5 119.72(16) . .
C9 C1 C5 119.72(16) . 6_557
C5 C1 C5 108.4(3) . 6_557
C18 C4 C4 119.89(13) . 6_557
C18 C4 C5 119.6(2) . .
C4 C4 C5 107.94(13) 6_557 .
C6 C5 C1 119.8(2) . .
C6 C5 C4 119.7(2) . .
C1 C5 C4 107.9(2) . .
C5 C6 C20 120.2(2) . .
C5 C6 C7 120.0(2) . .
C20 C6 C7 107.08(19) . .
C8 C7 C22 119.1(2) . .
C8 C7 C6 120.2(2) . .
C22 C7 C6 108.6(2) . .
C7 C8 C25 119.5(2) . .
C7 C8 C9 120.1(2) . .
C25 C8 C9 108.6(2) . .
C1 C9 C8 120.17(16) . 6_557
C1 C9 C8 120.17(16) . .
C8 C9 C8 107.3(3) 6_557 .
C17 C17 C37 119.12(12) 6_557 .
C17 C17 C18 120.14(13) 6_557 .
C37 C17 C18 108.79(19) . .
C4 C18 C19 120.4(2) . .
C4 C18 C17 120.0(2) . .
C19 C18 C17 106.94(19) . .
C20 C19 C38 118.96(19) . .
C20 C19 C18 120.0(2) . .
C38 C19 C18 108.68(19) . .
C19 C20 C21 119.3(2) . .
C19 C20 C6 120.2(2) . .
C21 C20 C6 108.90(19) . .
C40 C21 C20 122.4(2) . .
C40 C21 C22 120.06(19) . .
C20 C21 C22 107.72(19) . .
C23 C22 C7 122.2(2) . .
C23 C22 C21 120.24(19) . .
C7 C22 C21 107.73(19) . .
C22 C23 C42 117.84(19) . .
C22 C23 C24 118.63(19) . .
C42 C23 C24 119.04(18) . .
C25 C24 C45 118.3(2) . .
C25 C24 C23 118.34(19) . .
C45 C24 C23 118.76(18) . .
C24 C25 C8 122.2(2) . .
C24 C25 C25 119.96(13) . 6_557
C8 C25 C25 107.76(13) . 6_557
C37 C36 C57 118.0(2) . .
C37 C36 C36 118.36(13) . 6_557
C57 C36 C36 118.83(12) . 6_557
C36 C37 C17 122.4(2) . .
C36 C37 C38 120.14(19) . .
C17 C37 C38 107.76(19) . .
C39 C38 C19 122.3(2) . .
C39 C38 C37 120.27(19) . .
C19 C38 C37 107.83(19) . .
C38 C39 C58 117.95(19) . .
C38 C39 C40 118.35(19) . .
C58 C39 C40 118.97(18) . .
C21 C40 C41 118.07(19) . .
C21 C40 C39 118.50(19) . .
C41 C40 C39 118.83(19) . .
C42 C41 C60 119.64(19) . .
C42 C41 C40 119.38(19) . .
C60 C41 C40 118.16(19) . .
C41 C42 C23 119.82(18) . .
C41 C42 C43 119.46(19) . .
C23 C42 C43 118.19(19) . .
C62 C43 C42 117.96(19) . .
C62 C43 C44 118.83(19) . .
C42 C43 C44 118.68(18) . .
C65 C44 C45 118.16(19) . .
C65 C44 C43 118.24(19) . .
C45 C44 C43 119.00(18) . .
C45 C45 C24 119.35(12) 6_557 .
C45 C45 C44 119.48(12) 6_557 .
C24 C45 C44 118.36(19) . .
C77 C56 C57 118.0(2) . .
C77 C56 C56 118.43(13) . 6_557
C57 C56 C56 118.75(12) . 6_557
C58 C57 C36 119.37(19) . .
C58 C57 C56 119.46(18) . .
C36 C57 C56 118.32(19) . .
C57 C58 C39 119.92(19) . .
C57 C58 C59 119.42(19) . .
C39 C58 C59 118.35(19) . .
C78 C59 C58 118.3(2) . .
C78 C59 C60 118.69(19) . .
C58 C59 C60 118.54(19) . .
C61 C60 C41 118.00(19) . .
C61 C60 C59 118.29(19) . .
C41 C60 C59 118.94(18) . .
C60 C61 C80 122.1(2) . .
C60 C61 C62 120.34(19) . .
C80 C61 C62 107.68(19) . .
C43 C62 C63 121.9(2) . .
C43 C62 C61 120.11(19) . .
C63 C62 C61 108.08(19) . .
C64 C63 C62 119.38(19) . .
C64 C63 C81 119.9(2) . .
C62 C63 C81 108.44(19) . .
C63 C64 C65 119.25(19) . .
C63 C64 C82 120.0(2) . .
C65 C64 C82 108.86(19) . .
C44 C65 C64 122.2(2) . .
C44 C65 C65 120.03(12) . 6_557
C64 C65 C65 107.68(12) . 6_557
C76 C76 C77 119.11(13) 6_557 .
C76 C76 C85 120.22(13) 6_557 .
C77 C76 C85 108.6(2) . .
C56 C77 C76 122.4(2) . .
C56 C77 C78 120.4(2) . .
C76 C77 C78 107.61(19) . .
C59 C78 C79 122.2(2) . .
C59 C78 C77 120.07(19) . .
C79 C78 C77 108.09(19) . .
C80 C79 C78 119.1(2) . .
C80 C79 C85 119.9(2) . .
C78 C79 C85 108.70(19) . .
C79 C80 C61 119.4(2) . .
C79 C80 C81 120.2(2) . .
C61 C80 C81 108.66(19) . .
C87 C81 C80 120.2(2) . .
C87 C81 C63 120.3(2) . .
C80 C81 C63 107.14(19) . .
C88 C82 C64 120.44(16) . .
C88 C82 C64 120.44(16) . 6_557
C64 C82 C64 106.9(3) . 6_557
C86 C85 C79 120.3(2) . .
C86 C85 C76 119.9(2) . .
C79 C85 C76 107.02(19) . .
C85 C86 C87 119.6(2) . .
C85 C86 C86 119.85(14) . 6_557
C87 C86 C86 107.90(13) . 6_557
C81 C87 C88 119.8(2) . .
C81 C87 C86 119.7(2) . .
C88 C87 C86 108.1(2) . .
C82 C88 C87 119.57(16) . .
C82 C88 C87 119.57(16) . 6_557
C87 C88 C87 108.1(3) . 6_557
S1 C91 S2 179.5(3) . .
S1B C91B S2B 176(4) . .
loop_
_geom_bond_atom_site_label_1
_geom_bond_atom_site_label_2
_geom_bond_distance
_geom_bond_site_symmetry_2
C1 C9 1.396(5) .
C1 C5 1.446(3) .
C1 C5 1.446(3) 6_557
C4 C18 1.393(3) .
C4 C4 1.450(5) 6_557
C4 C5 1.454(3) .
C5 C6 1.395(3) .
C6 C20 1.442(3) .
C6 C7 1.446(3) .
C7 C8 1.381(3) .
C7 C22 1.441(3) .
C8 C25 1.439(3) .
C8 C9 1.442(3) .
C9 C8 1.442(3) 6_557
C17 C17 1.386(4) 6_557
C17 C37 1.438(3) .
C17 C18 1.446(3) .
C18 C19 1.443(3) .
C19 C20 1.387(3) .
C19 C38 1.442(3) .
C20 C21 1.437(3) .
C21 C40 1.397(3) .
C21 C22 1.447(3) .
C22 C23 1.398(3) .
C23 C42 1.439(3) .
C23 C24 1.456(3) .
C24 C25 1.399(3) .
C24 C45 1.438(3) .
C25 C25 1.445(5) 6_557
C36 C37 1.399(3) .
C36 C57 1.440(3) .
C36 C36 1.456(4) 6_557
C37 C38 1.442(3) .
C38 C39 1.401(3) .
C39 C58 1.434(3) .
C39 C40 1.456(3) .
C40 C41 1.441(3) .
C41 C42 1.428(3) .
C41 C60 1.440(3) .
C42 C43 1.443(3) .
C43 C62 1.401(3) .
C43 C44 1.456(3) .
C44 C65 1.398(3) .
C44 C45 1.439(3) .
C45 C45 1.433(4) 6_557
C56 C77 1.395(3) .
C56 C57 1.443(3) .
C56 C56 1.457(4) 6_557
C57 C58 1.428(3) .
C58 C59 1.444(3) .
C59 C78 1.393(3) .
C59 C60 1.459(3) .
C60 C61 1.396(3) .
C61 C80 1.436(3) .
C61 C62 1.442(3) .
C62 C63 1.435(3) .
C63 C64 1.385(3) .
C63 C81 1.444(3) .
C64 C65 1.440(3) .
C64 C82 1.447(3) .
C65 C65 1.450(4) 6_557
C76 C76 1.385(5) 6_557
C76 C77 1.441(3) .
C76 C85 1.449(3) .
C77 C78 1.443(3) .
C78 C79 1.436(3) .
C79 C80 1.386(3) .
C79 C85 1.442(3) .
C80 C81 1.443(3) .
C81 C87 1.393(3) .
C82 C88 1.390(5) .
C82 C64 1.447(3) 6_557
C85 C86 1.397(3) .
C86 C87 1.450(3) .
C86 C86 1.453(5) 6_557
C87 C88 1.448(3) .
C88 C87 1.448(3) 6_557
S1 C91 1.537(6) .
S2 C91 1.560(6) .
S1B C91B 1.544(18) .
S2B C91B 1.570(18) .
