#------------------------------------------------------------------------------
#$Date: 2016-03-24 03:13:03 +0200 (Thu, 24 Mar 2016) $
#$Revision: 179619 $
#$URL: svn://www.crystallography.net/cod/cif/4/50/83/4508335.cif $
#------------------------------------------------------------------------------
#
# This file is available in the Crystallography Open Database (COD),
# http://www.crystallography.net/
#
# All data on this site have been placed in the public domain by the
# contributors.
#
data_4508335
loop_
_publ_author_name
'Bowles, Faye L.'
'Mercado, Brandon Q.'
'Ghiassi, Kamran B.'
'Chen, Susanne Y.'
'Olmstead, Marilyn M.'
'Yang, Hua'
'Liu, Ziyang'
'Balch, Alan L.'
_publ_section_title
;
 Ordered Structures from Crystalline Carbon Disulfide Solvates of the
 Nano-Tubular FullerenesD5h(1)-C90andD5h-C70
;
_journal_issue                   10
_journal_name_full               'Crystal Growth &amp; Design'
_journal_page_first              4591
_journal_paper_doi               10.1021/cg401138g
_journal_volume                  13
_journal_year                    2013
_chemical_formula_moiety         'C70, 3(C S2)'
_chemical_formula_sum            'C73 S6'
_chemical_formula_weight         1069.09
_chemical_name_common            'C70 3CS2'
_chemical_name_systematic        'C70 3CS2'
_space_group_crystal_system      triclinic
_space_group_IT_number           2
_space_group_name_Hall           '-P 1'
_space_group_name_H-M_alt        'P -1'
_symmetry_space_group_name_Hall  '-P 1'
_symmetry_space_group_name_H-M   'P -1'
_atom_sites_solution_primary     direct
_atom_sites_solution_secondary   difmap
_audit_creation_method           SHELXL-2013
_cell_angle_alpha                86.279(3)
_cell_angle_beta                 73.297(2)
_cell_angle_gamma                89.643(3)
_cell_formula_units_Z            2
_cell_length_a                   10.1998(4)
_cell_length_b                   14.2540(6)
_cell_length_c                   14.3062(6)
_cell_measurement_reflns_used    9711
_cell_measurement_temperature    90(2)
_cell_measurement_theta_max      71.991
_cell_measurement_theta_min      4.747
_cell_volume                     1987.82(14)
_computing_cell_refinement       'SAINT (Bruker, 2013)'
_computing_data_collection       'Apex2 (Bruker, 2013)'
_computing_data_reduction        'SAINT (Bruker, 2013)'
_computing_publication_material  'SHELXL-2013 (Sheldrick, 2013)'
_computing_structure_refinement  'SHELXL-2013 (Sheldrick, 2013)'
_computing_structure_solution    'SHELXS-2013 (Sheldrick, 2013)'
_diffrn_ambient_temperature      90(2)
_diffrn_detector_area_resol_mean 8.3
_diffrn_measured_fraction_theta_full 0.941
_diffrn_measured_fraction_theta_max 0.876
_diffrn_measurement_device_type  'Bruker ApexDUO'
_diffrn_measurement_method       \w
_diffrn_radiation_type           CuK\a
_diffrn_radiation_wavelength     1.54178
_diffrn_reflns_av_R_equivalents  0.0547
_diffrn_reflns_av_unetI/netI     0.0524
_diffrn_reflns_Laue_measured_fraction_full 0.941
_diffrn_reflns_Laue_measured_fraction_max 0.876
_diffrn_reflns_limit_h_max       12
_diffrn_reflns_limit_h_min       -12
_diffrn_reflns_limit_k_max       17
_diffrn_reflns_limit_k_min       -17
_diffrn_reflns_limit_l_max       17
_diffrn_reflns_limit_l_min       -17
_diffrn_reflns_number            23264
_diffrn_reflns_point_group_measured_fraction_full 0.941
_diffrn_reflns_point_group_measured_fraction_max 0.876
_diffrn_reflns_theta_full        29.000
_diffrn_reflns_theta_max         72.139
_diffrn_reflns_theta_min         3.232
_diffrn_source                   'fine-focus sealed tube'
_exptl_absorpt_coefficient_mu    3.661
_exptl_absorpt_correction_T_max  0.7535
_exptl_absorpt_correction_T_min  0.4407
_exptl_absorpt_correction_type   multi-scan
_exptl_absorpt_process_details   'SADABS (Shelrick, 2013)'
_exptl_crystal_colour            black
_exptl_crystal_density_diffrn    1.786
_exptl_crystal_description       block
_exptl_crystal_F_000             1068
_exptl_crystal_size_max          0.930
_exptl_crystal_size_mid          0.866
_exptl_crystal_size_min          0.394
_refine_diff_density_max         0.651
_refine_diff_density_min         -0.811
_refine_diff_density_rms         0.150
_refine_ls_extinction_method     none
_refine_ls_goodness_of_fit_ref   1.129
_refine_ls_hydrogen_treatment    undef
_refine_ls_matrix_type           full
_refine_ls_number_parameters     712
_refine_ls_number_reflns         6886
_refine_ls_number_restraints     0
_refine_ls_restrained_S_all      1.129
_refine_ls_R_factor_all          0.0842
_refine_ls_R_factor_gt           0.0815
_refine_ls_shift/su_max          0.000
_refine_ls_shift/su_mean         0.000
_refine_ls_structure_factor_coef Fsqd
_refine_ls_weighting_details
;
 w=1/[\s^2^(Fo^2^)+(0.1013P)^2^+15.2163P]
 where P=(Fo^2^+2Fc^2^)/3
;
_refine_ls_weighting_scheme      calc
_refine_ls_wR_factor_gt          0.2453
_refine_ls_wR_factor_ref         0.2471
_reflns_Friedel_coverage         0.000
_reflns_number_gt                6512
_reflns_number_total             6886
_reflns_threshold_expression     'I > 2\s(I)'
_cod_data_source_file            cg401138g_si_002.cif
_cod_data_source_block           fb24
_cod_database_code               4508335
#BEGIN Tags that were not found in dictionaries:
_shelx_space_group_comment
;
The symmetry employed for this shelxl refinement is uniquely defined
by the following loop, which should always be used as a source of
symmetry information in preference to the above space-group names.
They are only intended as comments.
;
_shelx_estimated_absorpt_t_min   0.132
_shelx_estimated_absorpt_t_max   0.326
_shelxl_version_number           2013-2
_shelx_res_file
;
TITL fb24 in P-1   C70.3CS2
CELL 1.54178  10.1998  14.2540  14.3062  86.279  73.297  89.643
ZERR    2.00   0.0004   0.0006   0.0006   0.003   0.002   0.003
LATT  1
SFAC C S
UNIT 146 12
L.S. 12
BOND
acta 58
omit 5 -2 4
omit -1 1 2
omit 5 8 6
omit -1 2 1
omit 0 2 2
SIZE 0.394 0.866 0.930
TEMP -183

WGHT    0.101300   15.216300
FVAR       0.16211
C1    1    0.323705    0.491655    0.305484    11.00000    0.03506    0.00603 =
         0.03183   -0.00354   -0.01156    0.00135
C2    1    0.245435    0.517993    0.398940    11.00000    0.03411    0.01037 =
         0.02301    0.00680   -0.00504   -0.00703
C3    1    0.319991    0.548985    0.461031    11.00000    0.03260    0.01323 =
         0.02124    0.00567   -0.00707   -0.00252
C4    1    0.261436    0.610517    0.538635    11.00000    0.03431    0.02395 =
         0.01174    0.00797   -0.00425   -0.00693
C5    1    0.367934    0.670328    0.550185    11.00000    0.02701    0.02628 =
         0.01083    0.00292   -0.00480   -0.00252
C6    1    0.494304    0.646800    0.477772    11.00000    0.02741    0.02064 =
         0.01379   -0.00060   -0.00811    0.00610
C7    1    0.586957    0.716579    0.430732    11.00000    0.01889    0.02580 =
         0.02089   -0.00683   -0.01013    0.00553
C8    1    0.653646    0.713069    0.326943    11.00000    0.01069    0.02760 =
         0.02257   -0.00878   -0.00396    0.00450
C9    1    0.634625    0.637137    0.273806    11.00000    0.01894    0.02193 =
         0.02867   -0.00992   -0.00569    0.01217
C10   1    0.656217    0.656189    0.171715    11.00000    0.01156    0.02950 =
         0.02314   -0.01424    0.00007    0.00479
C11   1    0.591696    0.601160    0.115777    11.00000    0.02016    0.02772 =
         0.02461   -0.01991   -0.00124    0.01112
C12   1    0.498081    0.530703    0.163217    11.00000    0.03067    0.01722 =
         0.03094   -0.01692   -0.01000    0.01190
C13   1    0.374184    0.517476    0.134889    11.00000    0.02947    0.01427 =
         0.03048   -0.01572   -0.00809    0.00544
C14   1    0.266088    0.494560    0.223592    11.00000    0.03618    0.00928 =
         0.02861   -0.00959   -0.01124   -0.00269
C15   1    0.137270    0.529737    0.234569    11.00000    0.02792    0.01254 =
         0.02880   -0.00674   -0.00857   -0.00751
C16   1    0.058212    0.562825    0.326909    11.00000    0.02482    0.01713 =
         0.02342    0.00038   -0.00228   -0.01523
C17   1    0.108239    0.555246    0.410009    11.00000    0.02613    0.01623 =
         0.02478    0.00616   -0.00451   -0.01095
C18   1    0.056095    0.620631    0.481783    11.00000    0.02182    0.02934 =
         0.01706    0.00537    0.00344   -0.01530
C19   1    0.131483    0.645189    0.548565    11.00000    0.02941    0.03130 =
         0.00931    0.00640    0.00523   -0.00560
C20   1    0.102497    0.741781    0.571524    11.00000    0.02328    0.03747 =
         0.00651   -0.00087    0.00921   -0.00441
C21   1    0.205059    0.799890    0.582157    11.00000    0.02411    0.03600 =
         0.00500   -0.00727    0.00225    0.00284
C22   1    0.341204    0.763138    0.571490    11.00000    0.02720    0.03207 =
         0.00603   -0.00421   -0.00288    0.00161
C23   1    0.439513    0.836934    0.521685    11.00000    0.02586    0.02434 =
         0.01166   -0.00939   -0.00748   -0.00134
C24   1    0.560287    0.813290    0.452296    11.00000    0.02110    0.02573 =
         0.01512   -0.00826   -0.00763    0.00151
C25   1    0.466623    0.513762    0.268387    11.00000    0.03173    0.00911 =
         0.03427   -0.00901   -0.01046    0.00928
C26   1    0.534856    0.562630    0.324073    11.00000    0.02653    0.01443 =
         0.02630   -0.00527   -0.00943    0.01068
C27   1    0.464051    0.571443    0.423698    11.00000    0.03125    0.01447 =
         0.02512    0.00158   -0.01103    0.00878
C28   1    0.608761    0.869669    0.361666    11.00000    0.01555    0.02378 =
         0.01641   -0.00709   -0.00304   -0.00660
C29   1    0.668033    0.807243    0.284743    11.00000    0.00916    0.02823 =
         0.02113   -0.00772   -0.00190   -0.00197
C30   1    0.660809    0.828486    0.187429    11.00000    0.00834    0.02813 =
         0.01923   -0.00787    0.00338   -0.00897
C31   1    0.669773    0.750047    0.129942    11.00000    0.00665    0.03200 =
         0.01975   -0.01060    0.00489   -0.00273
C32   1    0.612813    0.753717    0.047179    11.00000    0.01671    0.03758 =
         0.01034   -0.00912    0.00766   -0.00199
C33   1    0.566494    0.660773    0.037950    11.00000    0.02275    0.03315 =
         0.01326   -0.01542    0.00538    0.00709
C34   1    0.447756    0.649222    0.010408    11.00000    0.02747    0.02759 =
         0.01061   -0.01400    0.00097    0.00303
C35   1    0.348745    0.575782    0.060124    11.00000    0.02887    0.02192 =
         0.02064   -0.01730   -0.00547    0.00245
C36   1    0.213130    0.612224    0.071501    11.00000    0.02563    0.02455 =
         0.01846   -0.01530   -0.00816    0.00170
C37   1    0.108736    0.589478    0.156869    11.00000    0.02357    0.01951 =
         0.02469   -0.00930   -0.00885   -0.00786
C38   1    0.015056    0.660070    0.202805    11.00000    0.01572    0.02441 =
         0.02448   -0.00638   -0.00659   -0.00502
C39   1   -0.016810    0.643405    0.307718    11.00000    0.01202    0.02482 =
         0.02473   -0.00250   -0.00076   -0.01076
C40   1   -0.044083    0.718287    0.371125    11.00000    0.00898    0.03209 =
         0.02257   -0.00592    0.00232   -0.00414
C41   1   -0.018226    0.700405    0.463371    11.00000    0.01269    0.03249 =
         0.01796   -0.00240    0.00927   -0.00615
C42   1    0.009888    0.775890    0.517286    11.00000    0.01405    0.03995 =
         0.01296   -0.00653    0.00990   -0.00222
C43   1    0.023707    0.866984    0.476111    11.00000    0.01349    0.03374 =
         0.01851   -0.01572    0.00468    0.00613
C44   1    0.130451    0.927738    0.487794    11.00000    0.02250    0.02441 =
         0.01595   -0.01562    0.00232    0.00763
C45   1    0.218588    0.895157    0.539819    11.00000    0.02594    0.02654 =
         0.01270   -0.01512    0.00206    0.00369
C46   1    0.364058    0.918367    0.501978    11.00000    0.02481    0.01906 =
         0.01514   -0.01240   -0.00389    0.00000
C47   1    0.411438    0.972520    0.414435    11.00000    0.02615    0.01292 =
         0.02094   -0.01153   -0.00388   -0.00108
C48   1    0.537225    0.947376    0.342412    11.00000    0.02006    0.01696 =
         0.01938   -0.00528   -0.00088   -0.00795
C49   1    0.521091    0.966862    0.246058    11.00000    0.02351    0.01302 =
         0.02161   -0.00025   -0.00451   -0.00912
C50   1    0.585193    0.910824    0.167832    11.00000    0.01774    0.02061 =
         0.01884    0.00036    0.00163   -0.01435
C51   1    0.522681    0.909613    0.091426    11.00000    0.02246    0.02167 =
         0.01195    0.00493    0.00498   -0.01061
C52   1    0.541797    0.832077    0.028747    11.00000    0.02592    0.03288 =
         0.00456    0.00025    0.00712   -0.00900
C53   1    0.418502    0.820213   -0.000671    11.00000    0.02670    0.02974 =
         0.00705   -0.00045    0.00087   -0.00324
C54   1    0.371455    0.730665   -0.009064    11.00000    0.02475    0.03010 =
         0.00695   -0.00748    0.00008   -0.00173
C55   1    0.226390    0.707682    0.028810    11.00000    0.02667    0.02621 =
         0.01255   -0.00955   -0.00673    0.00099
C56   1    0.135916    0.775755    0.073350    11.00000    0.02279    0.02724 =
         0.01540   -0.00504   -0.00978    0.00316
C57   1    0.028845    0.751249    0.162031    11.00000    0.01385    0.02409 =
         0.02299   -0.00656   -0.00955   -0.00016
C58   1    0.010319    0.829419    0.224358    11.00000    0.01405    0.02390 =
         0.02547   -0.00714   -0.00824    0.00693
C59   1   -0.030178    0.814763    0.328002    11.00000    0.01061    0.03073 =
         0.02251   -0.00899   -0.00203    0.00494
C60   1    0.007876    0.886204    0.379184    11.00000    0.01321    0.02744 =
         0.02097   -0.01156    0.00249    0.01113
C61   1    0.104543    0.958881    0.330245    11.00000    0.02400    0.01473 =
         0.02448   -0.01096   -0.00630    0.01162
C62   1    0.181554    0.983942    0.396378    11.00000    0.02867    0.01281 =
         0.02224   -0.01362   -0.00429    0.00698
C63   1    0.318395    1.006204    0.360197    11.00000    0.03386    0.00749 =
         0.02354   -0.00888   -0.00688    0.00056
C64   1    0.386566    1.002825    0.257231    11.00000    0.03009    0.00615 =
         0.02353   -0.00168   -0.00421   -0.00475
C65   1    0.312418    0.983851    0.190084    11.00000    0.03444    0.00712 =
         0.01908    0.00163   -0.00724   -0.00062
C66   1    0.388305    0.945390    0.102002    11.00000    0.03153    0.01335 =
         0.01593    0.00660   -0.00345   -0.00467
C67   1    0.323817    0.890370    0.046420    11.00000    0.03082    0.01860 =
         0.01164    0.00346   -0.00578   -0.00259
C68   1    0.185163    0.868185    0.082183    11.00000    0.02604    0.02018 =
         0.01528   -0.00087   -0.00914    0.00262
C69   1    0.107425    0.901325    0.175407    11.00000    0.02302    0.01701 =
         0.02081   -0.00328   -0.00974    0.00781
C70   1    0.166401    0.960762    0.228127    11.00000    0.02650    0.01197 =
         0.01996   -0.00301   -0.00652    0.00646
C71   1    0.323476    0.242994    0.249759    11.00000    0.05054    0.01424 =
         0.01800   -0.00411   -0.00438    0.00401
C72   1    0.040605    0.895860    0.889377    11.00000    0.02540    0.02788 =
         0.01513   -0.00353   -0.00178   -0.00131
C73   1    0.944030    0.392787    0.117597    11.00000    0.02394    0.02049 =
         0.01297   -0.00629   -0.00198    0.00226
S1    2    0.186259    0.229372    0.226345    11.00000    0.03702    0.04040 =
         0.03153   -0.00669   -0.00539    0.00314
S2    2    0.462246    0.256096    0.271970    11.00000    0.05864    0.03068 =
         0.04884   -0.00551   -0.02874   -0.00083
S3    2   -0.094612    0.895721    0.972141    11.00000    0.02192    0.03005 =
         0.02660    0.00593   -0.00031   -0.00214
S4    2    0.177293    0.897110    0.806884    11.00000    0.03432    0.09217 =
         0.02781   -0.02195    0.00992   -0.01293
S5    2    0.809949    0.410825    0.198806    11.00000    0.03024    0.04864 =
         0.02296   -0.00793    0.00768    0.00576
S6    2    1.076955    0.375997    0.036308    11.00000    0.02115    0.03411 =
         0.02617   -0.01540   -0.00001    0.00329
HKLF 4

REM  fb24 in P-1   C70.3CS2
REM R1 =  0.0815 for    6512 Fo > 4sig(Fo)  and  0.0842 for all    6886 data
REM    712 parameters refined using      0 restraints

END

WGHT      0.1013     15.2265

REM Highest difference peak  0.651,  deepest hole -0.811,  1-sigma level  0.150
Q1    1   0.2038  0.1002  0.2049  11.00000  0.05    0.65
Q2    1   1.0859  0.2461  0.0355  11.00000  0.05    0.63
Q3    1   0.4029  0.2614  0.3294  11.00000  0.05    0.60
Q4    1   0.8152  0.2762  0.1869  11.00000  0.05    0.60
Q5    1   1.0780  0.5088  0.0280  11.00000  0.05    0.58
Q6    1   0.1986  0.8130  0.7858  11.00000  0.05    0.57
Q7    1   0.1591  0.0954  0.2579  11.00000  0.05    0.57
Q8    1   0.8083  0.3410  0.2016  11.00000  0.05    0.54
Q9    1   0.4917  0.5933 -0.0905  11.00000  0.05    0.53
Q10   1   1.0623  0.3002  0.0485  11.00000  0.05    0.53
Q11   1  -0.1167  0.7634  0.1490  11.00000  0.05    0.52
Q12   1   0.1474  0.8218  0.8438  11.00000  0.05    0.51
Q13   1   0.3385  0.1375  0.3035  11.00000  0.05    0.49
Q14   1   0.3392  0.3843  0.2898  11.00000  0.05    0.49
Q15   1   0.1744  0.9847  0.8174  11.00000  0.05    0.48
Q16   1   0.3748  0.3789  0.1225  11.00000  0.05    0.48
Q17   1  -0.0765  1.0209  0.9670  11.00000  0.05    0.47
Q18   1   0.2306  1.0446  0.7714  11.00000  0.05    0.47
Q19   1   0.7018  0.6284 -0.0366  11.00000  0.05    0.47
Q20   1   0.9807  0.5192  0.0835  11.00000  0.05    0.47
;
_shelx_res_checksum              37348
_shelx_hkl_file
;
  -2   0   0  442.55   33.75
  -2   0   0  387.76   32.75
   2   0   0  397.22   36.12
  -3   0   0    1.58    0.20
  -3   0   0    1.43    0.31
   3   0   0    1.52    0.21
  -4   0   0   78.44    6.17
  -4   0   0   67.60    5.92
  -4   0   0   74.04    5.78
   4   0   0   74.67    6.53
   4   0   0   68.42    6.15
   4   0   0   78.46    7.28
  -5   0   0   58.52    4.44
  -5   0   0   51.18    4.11
  -5   0   0   46.44    4.21
  -5   0   0   49.93    3.66
   5   0   0   57.21    4.67
   5   0   0   49.11    4.42
  -6   0   0   79.21    6.24
  -6   0   0   81.88    6.71
  -6   0   0   76.88    5.56
  -6   0   0   79.88    6.42
   6   0   0   73.13    7.09
   6   0   0   76.44    6.72
   6   0   0   87.18    7.93
  -7   0   0   32.32    2.34
  -7   0   0   38.77    2.80
  -7   0   0   33.30    2.67
  -7   0   0   30.41    2.84
   7   0   0   31.27    3.09
   7   0   0   34.15    2.41
   7   0   0   31.42    3.02
  -8   0   0   18.99    1.51
  -8   0   0   17.63    1.28
   8   0   0   17.18    1.36
  -9   0   0   18.53    1.32
  -9   0   0   19.24    1.56
  -9   0   0   17.29    1.23
  -9   0   0   17.96    1.31
   9   0   0   19.39    1.45
 -10   0   0    5.98    0.48
 -10   0   0    6.09    0.44
  10   0   0    6.36    1.12
 -11   0   0   16.34    1.15
 -11   0   0   16.28    1.08
 -12   0   0    2.13    0.18
 -12   0   0    2.38    0.16
 -12   1   0    0.02    0.03
 -12   1   0   -0.04    0.05
 -11   1   0    3.53    0.26
 -11   1   0    3.58    0.30
  10  -1   0    0.49    0.30
  10  -1   0    1.57    0.57
 -10   1   0    1.09    0.17
 -10   1   0    1.26    0.14
   9  -1   0    0.81    0.29
  -9   1   0    1.53    0.16
  -9   1   0    1.10    0.12
  -9   1   0    1.06    0.19
   8  -1   0   17.11    1.20
   8  -1   0   15.04    1.64
  -8   1   0   15.25    1.34
  -8   1   0   15.73    1.14
   7  -1   0   44.93    3.86
   7  -1   0   40.81    3.98
  -7   1   0   44.53    3.47
  -7   1   0   44.84    3.81
  -7   1   0   42.37    3.06
  -7   1   0   43.17    3.72
   6  -1   0    0.19    0.33
  -6   1   0    1.07    0.39
   5  -1   0   76.06    6.56
   5  -1   0   69.39    6.19
  -5   1   0   65.30    5.17
  -5   1   0   75.11    5.80
  -5   1   0   82.89    6.21
   4  -1   0   17.84    1.52
   4  -1   0   16.74    1.48
  -4   1   0   18.12    1.51
  -4   1   0   14.10    1.38
  -4   1   0   16.73    1.35
   3  -1   0   41.95    3.53
  -3   1   0   40.63    3.36
  -3   1   0   36.79    3.21
  -2   1   0  323.03   26.65
   1   1   0   38.19    3.74
  -2  -1   0  265.62   24.43
  -2  -1   0  317.64   25.19
   2   1   0  301.81   25.17
   2   1   0  335.75   26.97
  -3  -1   0  104.06    9.22
  -3  -1   0  113.90    9.55
   3   1   0  112.39    9.54
   3   1   0  119.51   11.27
   3   1   0  125.37   10.18
  -4  -1   0   67.37    5.98
  -4  -1   0   74.04    5.85
  -4  -1   0   74.08    6.23
   4   1   0   77.97    6.24
   4   1   0   78.28    6.62
   4   1   0   74.74    7.35
   5   1   0   21.15    1.97
  -6  -1   0   38.59    3.33
  -6  -1   0   39.59    3.11
  -6  -1   0   36.53    3.19
  -6  -1   0   41.35    3.41
  -6  -1   0   37.36    2.74
   6   1   0   36.47    4.04
   6   1   0   39.04    3.57
   6   1   0   39.67    2.81
   6   1   0   41.63    3.45
  -7  -1   0    5.12    0.53
  -7  -1   0    4.61    0.48
  -7  -1   0    3.75    0.32
   7   1   0    4.73    0.83
   7   1   0    4.28    0.40
   7   1   0    4.84    0.64
  -8  -1   0    9.72    0.92
  -8  -1   0   10.10    0.75
  -8  -1   0   11.30    1.03
   8   1   0   14.46    2.23
   8   1   0    9.69    0.85
  -9  -1   0    7.46    0.59
  -9  -1   0    8.02    0.55
  -9  -1   0    6.74    0.72
  -9  -1   0    8.24    0.66
  -9  -1   0    7.39    0.44
  -9  -1   0    6.93    0.53
   9   1   0    8.02    0.73
 -10  -1   0   22.00    1.51
 -10  -1   0   21.92    1.42
 -10  -1   0   23.60    1.62
  10   1   0   20.43    2.12
  10   1   0   18.61    1.66
 -11  -1   0    6.70    0.55
 -11  -1   0    6.75    0.46
 -11  -1   0    6.55    0.50
 -11   2   0    2.00    0.17
 -11   2   0    2.08    0.21
  10  -2   0    0.17    0.25
 -10   2   0    0.98    0.12
 -10   2   0    0.62    0.15
   9  -2   0    8.54    0.84
  -9   2   0   11.36    0.72
  -9   2   0    9.44    0.93
  -9   2   0   10.87    0.76
  -9   2   0   11.61    0.79
  -8   2   0   12.12    0.84
  -8   2   0   11.39    1.02
  -8   2   0   10.99    1.01
   7  -2   0    4.01    0.71
   7  -2   0    4.15    0.56
  -7   2   0    4.22    0.32
  -7   2   0    4.56    0.72
  -7   2   0    4.47    0.41
  -7   2   0    4.00    0.46
   6  -2   0   56.23    4.97
   6  -2   0   55.79    4.74
  -6   2   0   52.56    3.89
  -6   2   0   56.49    4.38
  -6   2   0   53.42    4.53
  -6   2   0   57.26    4.73
   5  -2   0   52.56    4.33
   5  -2   0   43.37    4.10
  -5   2   0   45.18    3.40
  -5   2   0   51.81    3.82
   4  -2   0   21.26    1.93
  -4   2   0   21.14    1.71
  -4   2   0   21.81    1.89
  -3   2   0  111.66    9.33
  -3   2   0  118.17    9.64
  -3   2   0  118.68   11.69
   2  -2   0   43.69    3.65
  -2   2   0   46.53    3.66
  -2   2   0   45.57    3.78
   1  -2   0    4.64    0.38
   0   2   0    0.57    0.27
   1   2   0   20.33    1.80
   1   2   0   15.94    1.46
  -2  -2   0   51.49    4.43
   2   2   0   50.64    4.73
   2   2   0   55.86    4.44
   2   2   0   54.79    5.23
  -3  -2   0   87.19    7.14
  -3  -2   0   80.99    6.88
   3   2   0   90.10    7.14
   3   2   0   84.81    8.42
  -4  -2   0    8.56    0.88
  -4  -2   0    8.20    0.75
  -4  -2   0    8.63    0.74
   4   2   0    8.35    1.07
   4   2   0    9.53    0.88
   4   2   0    8.99    0.89
  -5  -2   0  143.90   11.70
  -5  -2   0  149.23   12.44
  -5  -2   0  148.68   10.48
  -5  -2   0  142.73   11.98
   5   2   0  157.30   12.46
   5   2   0  160.53   13.27
   5   2   0  142.37   14.66
  -6  -2   0    1.14    0.11
  -6  -2   0    1.89    0.28
  -6  -2   0    0.54    0.19
   6   2   0    2.48    0.67
   6   2   0    0.75    0.45
   6   2   0    0.82    0.19
  -7  -2   0    0.08    0.19
  -7  -2   0    0.22    0.06
  -7  -2   0    0.18    0.18
   7   2   0   -0.23    0.53
   7   2   0    0.11    0.21
   7   2   0    0.24    0.29
  -8  -2   0   33.17    2.85
  -8  -2   0   35.96    2.50
   8   2   0   38.72    2.65
   8   2   0   32.37    3.26
   8   2   0   36.28    4.31
  -9  -2   0   17.18    0.98
  -9  -2   0   17.96    1.23
  -9  -2   0   18.07    1.31
  -9  -2   0   15.99    1.14
  -9  -2   0   16.46    1.22
  -9  -2   0   15.28    1.44
   9   2   0   17.56    1.40
   9   2   0   19.99    1.94
 -10  -2   0    6.49    0.53
 -10  -2   0    7.61    0.60
 -10  -2   0    6.80    0.49
 -10  -2   0    7.01    0.41
  10   2   0    7.82    1.13
  10   2   0    7.24    0.69
 -11  -2   0    3.66    0.34
 -11  -2   0    3.25    0.25
 -11  -2   0    3.60    0.29
 -11   3   0    1.11    0.11
 -11   3   0    1.15    0.15
  10  -3   0    0.66    0.24
  10  -3   0    2.04    0.51
 -10   3   0    0.95    0.12
 -10   3   0    0.63    0.15
  -9   3   0    5.16    0.37
  -9   3   0    4.04    0.53
  -9   3   0    5.15    0.38
  -9   3   0    5.29    0.43
  -8   3   0    1.74    0.30
  -8   3   0    1.86    0.17
  -8   3   0    2.11    0.23
   7  -3   0  156.78   13.21
   7  -3   0  151.41   14.00
  -7   3   0  166.35   13.17
  -7   3   0  161.07   13.41
  -7   3   0  152.41   12.35
  -7   3   0  156.16   11.05
   6  -3   0   48.14    4.34
   6  -3   0   48.01    4.54
   6  -3   0   53.95    5.14
  -6   3   0   49.72    3.55
  -6   3   0   49.99    4.00
  -6   3   0   49.69    4.32
  -6   3   0   53.47    4.31
   5  -3   0   20.95    1.91
  -5   3   0   21.11    1.82
  -5   3   0   21.96    1.52
  -4   3   0    6.72    0.70
  -4   3   0    6.06    0.54
  -4   3   0    5.63    0.61
   3  -3   0   22.20    1.90
  -3   3   0   24.22    1.94
  -3   3   0   23.73    2.38
  -3   3   0   23.35    2.00
   2  -3   0    4.42    0.38
  -2   3   0    4.41    0.49
  -2   3   0    4.92    0.47
   0  -3   0    0.05    0.02
   1   3   0  519.58   43.58
   1   3   0  468.71   48.12
   2   3   0  129.26   12.74
   2   3   0  131.70   11.56
  -3  -3   0    0.68    0.12
  -3  -3   0    0.73    0.22
   3   3   0    0.87    0.24
   3   3   0    1.46    0.38
  -4  -3   0   99.79    8.29
  -4  -3   0  103.41    7.25
  -4  -3   0  100.75    8.61
   4   3   0  108.69    8.63
   4   3   0   97.74   10.14
   4   3   0  108.57    9.19
  -5  -3   0   36.50    2.75
  -5  -3   0   37.57    2.44
   5   3   0   27.72    3.01
  -7  -3   0   61.50    4.40
  -7  -3   0   63.45    5.11
  -7  -3   0   56.55    4.95
   7   3   0   59.76    5.74
   7   3   0   57.14    6.67
   7   3   0   70.64    5.49
   7   3   0   63.82    4.55
   7   3   0   66.62    5.54
  -8  -3   0    6.18    0.67
  -8  -3   0    7.02    0.59
  -8  -3   0    7.26    0.51
   8   3   0    6.32    0.68
  -9  -3   0    4.85    0.35
  -9  -3   0    4.05    0.50
  -9  -3   0    5.21    0.45
  -9  -3   0    4.37    0.34
  -9  -3   0    4.47    0.39
  -9  -3   0    4.61    0.28
   9   3   0    4.46    0.57
 -10  -3   0    0.19    0.04
 -10  -3   0    0.23    0.15
 -10  -3   0    0.20    0.10
  10   3   0    0.37    0.29
 -11  -3   0    0.05    0.12
 -11  -3   0    0.08    0.08
 -11  -3   0    0.06    0.05
 -11  -3   0    0.13    0.03
 -11   4   0    5.01    0.40
 -11   4   0    5.47    0.37
 -10   4   0    2.32    0.24
  -9   4   0    0.78    0.11
  -9   4   0    0.76    0.16
  -8   4   0    0.54    0.21
  -8   4   0    0.81    0.15
   7  -4   0   11.04    1.22
  -7   4   0   10.58    0.76
  -7   4   0   10.21    1.14
  -7   4   0   10.83    0.93
  -7   4   0   10.04    0.91
   6  -4   0   24.10    2.79
   6  -4   0   27.23    2.41
   6  -4   0   28.11    2.39
  -6   4   0   24.56    2.11
  -6   4   0   27.02    2.35
  -6   4   0   27.24    2.26
  -6   4   0   25.77    1.86
   5  -4   0   15.20    1.40
  -4   4   0    2.35    0.20
  -4   4   0    2.49    0.39
  -4   4   0    2.36    0.41
  -4   4   0    2.37    0.27
   3  -4   0   33.05    2.77
  -3   4   0   33.93    2.89
  -3   4   0   37.24    3.47
  -3   4   0   32.21    2.82
   2  -4   0   52.13    3.93
  -2   4   0   50.23    4.05
  -2   4   0   42.95    3.96
   1  -4   0  166.42   14.86
  -1   4   0  205.66   14.93
   0  -4   0   11.94    1.13
   0  -4   0   15.86    1.15
  -1  -4   0  205.24   18.28
   1   4   0  257.63   20.22
   1   4   0  223.28   22.26
  -2  -4   0   74.40    6.48
   2   4   0   83.73    6.75
   2   4   0   75.54    7.91
   2   4   0   89.87    7.21
  -3  -4   0    3.05    0.31
   3   4   0    3.18    0.51
   3   4   0    3.47    0.46
   3   4   0    2.99    0.56
  -4  -4   0    1.29    0.21
  -4  -4   0    1.32    0.14
  -4  -4   0    1.50    0.24
   4   4   0    1.64    0.44
   4   4   0    1.44    0.33
   4   4   0    1.89    0.56
  -5  -4   0   66.93    4.44
  -5  -4   0   57.38    5.10
  -5  -4   0   69.45    4.97
   5   4   0   56.93    5.39
  -6  -4   0   46.72    3.80
  -6  -4   0   44.14    3.27
  -6  -4   0   44.36    3.69
   6   4   0   48.57    3.39
   6   4   0   51.93    4.08
   6   4   0   43.43    4.12
   6   4   0   44.67    4.30
  -7  -4   0    5.76    0.59
  -7  -4   0    5.38    0.56
  -7  -4   0    5.65    0.42
   7   4   0    5.26    0.82
   7   4   0    5.69    1.03
   7   4   0    5.66    1.12
   7   4   0    4.54    0.55
  -8  -4   0   13.35    0.76
  -8  -4   0   13.53    1.03
  -8  -4   0   14.16    0.96
  -8  -4   0   11.62    1.14
   8   4   0   12.96    1.68
   8   4   0   12.89    1.12
   8   4   0   13.87    1.53
 -10  -4   0    3.40    0.27
 -10  -4   0    3.89    0.37
 -10  -4   0    3.75    0.22
  10   4   0    3.18    0.44
  10   4   0    3.30    0.79
 -11  -4   0    8.96    0.65
 -11  -4   0   11.01    0.76
 -11   5   0    1.34    0.11
 -11   5   0    1.21    0.14
  -9   5   0    0.59    0.10
  -9   5   0    0.66    0.14
  -8   5   0   25.18    1.66
  -6   5   0    0.53    0.08
  -5   5   0   66.40    4.68
  -4   5   0   61.96    4.43
  -4   5   0   62.04    4.37
   3  -5   0   54.31    4.18
   3  -5   0   46.65    4.16
  -3   5   0   52.32    3.69
  -3   5   0   52.92    4.24
  -2   5   0   30.31    2.54
   1  -5   0   33.48    2.41
   1  -5   0   25.62    2.38
   0  -5   0    1.67    0.20
   0   5   0    2.48    0.43
  -1  -5   0   37.60    2.97
  -1  -5   0   34.47    2.95
   1   5   0   37.54    3.34
  -2  -5   0    5.01    0.46
   2   5   0    5.75    0.66
  -3  -5   0   20.18    1.68
   3   5   0   20.36    1.47
   3   5   0   20.60    1.95
  -4  -5   0   81.90    6.49
  -4  -5   0   83.13    5.67
   4   5   0   79.87    7.25
   4   5   0   76.36    6.81
  -5  -5   0   29.38    2.09
  -6  -5   0    7.86    0.55
  -6  -5   0    8.25    0.71
   6   5   0    6.64    1.12
   6   5   0    5.94    0.92
   6   5   0    6.35    0.64
  -7  -5   0   40.45    2.86
  -7  -5   0   43.38    3.36
   7   5   0   39.61    3.01
   7   5   0   39.55    3.89
   7   5   0   38.64    3.68
  -8  -5   0   39.23    2.78
  -8  -5   0   38.56    2.21
  -8  -5   0   39.16    2.86
   8   5   0   41.03    2.94
   8   5   0   37.11    4.04
   8   5   0   40.38    3.66
  -9  -5   0    0.83    0.08
  -9  -5   0    0.81    0.10
  -9  -5   0    0.86    0.18
   9   5   0    1.12    0.71
 -10  -5   0    0.07    0.13
 -10  -5   0    0.14    0.04
  11   5   0    5.99    1.47
  -4   6   0   37.81    2.72
   3  -6   0   41.93    3.36
  -3   6   0   40.37    2.95
   2  -6   0    1.49    0.17
  -2   6   0    1.22    0.16
   1  -6   0   30.27    2.18
   1  -6   0   23.37    2.15
  -1   6   0   25.96    1.91
   0  -6   0  122.62   10.23
   0   6   0  130.74    9.03
  -1  -6   0   95.88    8.00
  -1  -6   0  105.43    8.06
   1   6   0   97.36    8.91
   1   6   0   99.86    7.11
  -2  -6   0    0.63    0.13
   2   6   0    0.71    0.10
   2   6   0    1.22    0.44
   2   6   0    0.88    0.35
  -3  -6   0  106.17    6.84
  -3  -6   0   91.96    7.80
   3   6   0   90.36    6.92
   3   6   0   99.49    8.72
  -4  -6   0   16.05    1.11
  -4  -6   0   15.13    1.30
   4   6   0   14.79    1.12
   4   6   0   15.29    1.60
  -5  -6   0    3.12    0.25
  -5  -6   0    2.74    0.35
   5   6   0    2.64    0.54
   5   6   0    3.47    0.64
  -7  -6   0    0.55    0.10
   7   6   0    0.87    0.34
   7   6   0    0.56    0.64
  -8  -6   0   23.61    1.34
  -8  -6   0   24.03    1.74
  -8  -6   0   23.47    1.68
   8   6   0   23.11    2.51
   8   6   0   23.02    2.42
  -9  -6   0    1.50    0.11
  -9  -6   0    1.27    0.21
   9   6   0    1.37    0.40
   9   6   0    0.68    0.75
 -10  -6   0    0.99    0.18
 -11  -6   0    0.72    0.13
  11   6   0    0.86    0.79
  -5   7   0    4.68    0.37
   4  -7   0    7.25    0.50
  -4   7   0    7.99    0.58
  -3   7   0   34.78    2.50
   2  -7   0    6.36    0.56
  -2   7   0    5.97    0.47
   1  -7   0   10.24    0.84
   1  -7   0    8.54    0.81
  -1   7   0   10.06    0.72
   0  -7   0   24.03    1.90
   0  -7   0   21.60    1.87
  -1  -7   0    0.18    0.10
  -1  -7   0    0.08    0.08
   1   7   0    0.34    0.34
   1   7   0    0.51    0.67
  -2  -7   0   10.27    0.95
  -2  -7   0   12.87    0.85
   2   7   0   10.10    0.82
   2   7   0   12.20    1.35
  -3  -7   0   83.99    6.89
  -3  -7   0   94.60    6.04
   3   7   0   84.20    7.61
   3   7   0   81.83    6.11
   3   7   0   82.58    7.74
  -4  -7   0    2.66    0.32
  -4  -7   0    2.89    0.25
   4   7   0    4.65    0.70
   4   7   0    2.65    0.26
   4   7   0    3.61    0.62
  -5  -7   0    6.99    0.50
  -5  -7   0    5.87    0.62
  -6  -7   0   11.06    0.86
  -6  -7   0   13.13    1.08
   6   7   0    9.70    1.43
   6   7   0   12.96    1.38
  -7  -7   0   38.64    2.69
  -7  -7   0   39.36    2.76
  -7  -7   0   39.82    2.14
   7   7   0   36.96    3.92
   7   7   0   33.20    3.50
  -8  -7   0    7.21    0.57
  -8  -7   0    7.34    0.41
  -8  -7   0    6.67    0.52
   8   7   0    6.09    0.90
   8   7   0    6.57    1.10
  -9  -7   0   12.72    1.04
   9   7   0   14.61    1.52
  10   7   0    5.16    1.25
   4  -8   0    1.59    0.13
  -4   8   0    1.69    0.16
  -3   8   0   16.40    1.20
  -2   8   0   32.96    2.38
   0  -8   0  141.56   13.39
   0   8   0  192.57   11.92
  -1  -8   0   45.62    2.94
  -1  -8   0   36.34    3.30
   1   8   0   40.36    2.93
  -4  -8   0    3.15    0.36
   4   8   0    3.97    0.84
  -5  -8   0    1.07    0.23
   5   8   0    0.59    0.65
   5   8   0    1.35    0.60
  -7  -8   0   20.67    1.58
  -7  -8   0   19.72    1.52
   7   8   0   19.06    2.33
   7   8   0   24.12    2.30
   7   8   0   22.65    2.36
   8   8   0    8.58    1.68
   8   8   0   12.73    1.38
  -9  -8   0   68.55    4.59
   9   8   0   58.40    6.45
  -5   9   0    1.58    0.17
   4  -9   0    9.50    0.61
  -4   9   0    8.87    0.69
   3  -9   0    6.14    0.42
  -3   9   0    6.19    0.48
  -2   9   0    6.74    0.53
   1  -9   0   33.36    2.58
  -1   9   0   38.66    2.60
   0  -9   0    5.10    0.33
   0  -9   0    4.59    0.36
   0  -9   0    4.53    0.36
   0   9   0    5.18    0.40
  -1  -9   0    1.59    0.12
  -1  -9   0    1.80    0.23
  -1  -9   0    1.59    0.13
  -2  -9   0    2.83    0.27
  -2  -9   0    2.42    0.29
  -2  -9   0    2.26    0.19
   2   9   0    2.03    0.61
   2   9   0    2.77    0.25
  -3  -9   0    0.60    0.16
  -3  -9   0    0.50    0.13
   3   9   0    0.47    0.12
   3   9   0   -0.06    0.50
  -4  -9   0    1.72    0.27
  -4  -9   0    1.75    0.19
   4   9   0    1.49    0.20
   4   9   0    1.80    0.92
   4   9   0    1.50    0.69
   5   9   0    1.72    0.91
  -6  -9   0    7.97    0.61
  -6  -9   0    7.88    0.51
  -6  -9   0    8.11    0.64
   6   9   0    8.75    1.38
   7   9   0    3.06    0.90
  -8  -9   0    7.80    0.63
   8   9   0    7.97    1.10
  -9  -9   0    7.56    0.60
 -10  -9   0   42.99    3.10
  -5  10   0    1.47    0.17
   4 -10   0   11.77    0.73
  -4  10   0   10.05    0.82
   3 -10   0    5.42    0.35
  -3  10   0    4.58    0.40
   2 -10   0   51.16    2.91
   2 -10   0   40.40    3.25
  -2  10   0   44.28    3.26
   1 -10   0   10.94    0.84
   1 -10   0   11.20    0.84
   1 -10   0   12.57    0.77
  -1  10   0   11.64    0.87
   0 -10   0    5.77    0.44
   0 -10   0    5.72    0.40
   0  10   0    6.14    0.48
  -1 -10   0   56.18    3.87
  -1 -10   0   52.89    3.45
   1  10   0   56.52    3.88
   1  10   0   49.10    4.99
  -2 -10   0   33.82    2.48
  -2 -10   0   37.83    2.84
   2  10   0   35.06    2.50
   2  10   0   30.09    3.33
  -3 -10   0   15.58    1.27
  -3 -10   0   16.16    1.10
   3  10   0   13.86    1.10
   3  10   0   11.60    1.68
  -4 -10   0    9.90    0.72
  -4 -10   0   10.84    0.89
   4  10   0    6.81    1.34
   4  10   0    8.87    0.74
  -5 -10   0    5.80    0.37
  -5 -10   0    5.47    0.46
  -6 -10   0    5.62    0.45
  -6 -10   0    6.10    0.38
  -6 -10   0    5.49    0.48
  -7 -10   0    4.41    0.41
   7  10   0    6.41    0.96
  -8 -10   0    6.83    0.55
   8  10   0    6.75    1.03
  -5  11   0   22.52    1.34
  -4  11   0   14.03    1.01
  -4  11   0   12.91    0.92
   3 -11   0   63.64    4.58
   3 -11   0   70.03    4.10
   3 -11   0   62.22    4.58
  -3  11   0   59.57    4.58
   2 -11   0   48.43    3.60
   2 -11   0   53.42    3.22
   2 -11   0   48.51    3.60
  -2  11   0   50.02    3.61
   1 -11   0   17.60    1.11
   1 -11   0   16.75    1.23
  -1  11   0   16.62    1.26
   0 -11   0   17.83    1.29
   0 -11   0   17.10    1.16
   0  11   0   18.56    1.32
  -1 -11   0    4.25    0.30
   1  11   0    3.44    0.35
   2  11   0   12.99    0.98
  -3 -11   0    4.81    0.32
   3  11   0    4.51    0.41
   3  11   0    4.79    0.91
  -4 -11   0   45.58    2.82
   4  11   0   45.82    4.74
  -5 -11   0   10.27    0.65
  -7 -11   0    4.74    0.40
   7  11   0    4.87    0.90
  -8 -11   0    0.51    0.12
   8  11   0    1.11    0.50
  -5  12   0    4.92    0.32
   4 -12   0    1.71    0.15
  -4  12   0    1.67    0.24
  -4  12   0    1.90    0.17
  -4  12   0    1.79    0.18
   3 -12   0   13.06    0.93
  -3  12   0   13.07    0.79
  -3  12   0   12.50    0.96
  -3  12   0   12.46    0.89
   2 -12   0    0.85    0.09
  -2  12   0    1.00    0.16
  -2  12   0    1.11    0.22
  -2  12   0    1.39    0.34
  -2  12   0    0.84    0.08
   1 -12   0   43.02    2.89
  -1  12   0   39.54    2.58
  -1  12   0   40.91    2.91
  -1  12   0   36.99    4.10
   0 -12   0   12.99    0.95
   0  12   0   12.65    0.98
   0  12   0   13.30    1.47
  -1 -12   0   33.18    2.14
  -1 -12   0   34.73    2.50
   1  12   0   33.33    2.52
   1  12   0   34.82    3.61
   1  12   0   37.81    2.25
  -2 -12   0    0.52    0.07
   2  12   0    0.68    0.52
   2  12   0    0.45    0.15
  -3 -12   0    2.84    0.20
   3  12   0    3.65    0.65
   3  12   0    2.53    0.29
  -4 -12   0    3.74    0.26
   4  12   0    4.47    0.86
  -6 -12   0    8.89    0.55
   6  12   0    8.15    1.18
  -7 -12   0    9.85    0.75
   7  12   0    9.89    1.23
  -8 -12   0    1.72    0.18
   8  12   0    2.01    0.47
  -6  13   0   14.59    0.87
  -5  13   0    0.22    0.07
   4 -13   0    0.11    0.04
  -4  13   0   -0.08    0.14
  -4  13   0    0.02    0.07
   3 -13   0    0.66    0.08
  -3  13   0    0.49    0.19
  -3  13   0    0.88    0.11
  -3  13   0    0.70    0.12
   2 -13   0   16.88    1.21
  -2  13   0   16.89    1.01
  -2  13   0   16.36    1.13
  -2  13   0   15.93    1.23
  -2  13   0   17.00    0.93
   1 -13   0    0.55    0.08
  -1  13   0    0.66    0.33
  -1  13   0    0.46    0.13
  -1  13   0    0.49    0.07
  -1  13   0    0.55    0.20
  -1  13   0    0.47    0.11
   0 -13   0   13.99    1.03
   0  13   0   14.46    0.98
   0  13   0   14.36    0.80
   0  13   0   14.14    1.57
   0  13   0   13.67    0.86
   0  13   0   13.88    1.06
  -1 -13   0   11.12    0.84
  -1 -13   0   10.96    0.72
   1  13   0   13.09    0.83
   1  13   0   11.73    0.66
   1  13   0   11.44    1.36
   1  13   0   11.01    0.88
  -2 -13   0    1.17    0.11
   2  13   0    1.22    0.24
   2  13   0    2.23    0.53
   2  13   0    1.18    0.19
  -3 -13   0    0.10    0.05
   3  13   0    0.12    0.12
   3  13   0    0.50    0.51
  -4 -13   0    1.67    0.14
   4  13   0    2.00    0.60
   5  13   0    0.35    0.50
  -6 -13   0    9.32    0.57
   6  13   0    8.27    1.15
   7  13   0   -0.05    0.39
  -6  14   0   13.73    0.82
  -5  14   0    1.14    0.11
  -5  14   0    0.95    0.16
   4 -14   0    2.06    0.16
  -4  14   0    2.04    0.24
  -4  14   0    2.13    0.17
   3 -14   0    3.29    0.26
  -3  14   0    3.54    0.33
  -3  14   0    3.37    0.24
   2 -14   0    0.43    0.06
  -2  14   0    0.73    0.19
  -2  14   0    0.57    0.10
   1 -14   0    0.22    0.05
   1 -14   0    0.14    0.05
  -1  14   0    0.30    0.29
  -1  14   0    0.33    0.09
  -1  14   0    0.20    0.05
  -1  14   0    0.34    0.18
   0 -14   0   12.82    0.95
   0 -14   0   11.93    0.82
   0  14   0   13.09    1.45
   0  14   0   13.26    0.74
   0  14   0   14.53    0.92
   0  14   0   13.16    0.80
  -1 -14   0    9.13    0.60
   1  14   0   10.15    0.70
   1  14   0    8.92    0.55
   1  14   0   10.48    1.15
  -2 -14   0   21.32    1.34
   2  14   0   21.13    1.21
   2  14   0   23.94    1.44
   2  14   0   20.11    2.29
  -3 -14   0    0.86    0.09
   3  14   0    1.14    0.45
  -5 -14   0    6.30    0.40
   5  14   0    6.11    0.90
  -5  15   0    2.64    0.18
  -4  15   0    3.07    0.29
  -4  15   0    3.50    0.23
  -3  15   0    1.71    0.21
  -3  15   0    1.61    0.14
   2 -15   0    2.34    0.19
  -2  15   0    2.52    0.19
  -2  15   0    2.80    0.28
   1 -15   0   11.58    0.83
   1 -15   0   12.88    0.96
  -1  15   0   13.26    0.80
  -1  15   0   14.65    0.74
  -1  15   0   14.38    0.91
   0 -15   0   20.74    1.57
   0 -15   0   20.15    1.35
   0  15   0   23.38    1.43
   0  15   0   22.47    1.21
   0  15   0   22.44    1.29
   0  15   0   21.51    2.26
  -1 -15   0    1.15    0.11
   1  15   0    1.56    0.23
   1  15   0    1.39    0.11
   1  15   0    1.95    0.41
  -2 -15   0    2.22    0.16
   2  15   0    2.03    0.15
  -3 -15   0    4.83    0.30
   3  15   0    4.36    0.28
   3  15   0    4.51    0.70
  -4 -15   0    8.28    0.52
  -5 -15   0    6.32    0.39
   5  15   0    5.88    0.80
  -4  16   0    2.94    0.25
  -4  16   0    3.32    0.21
  -3  16   0   19.46    1.32
  -3  16   0   21.46    1.21
  -2  16   0    0.44    0.08
  -2  16   0    0.59    0.15
   1 -16   0    3.61    0.26
  -1  16   0    5.12    0.36
  -1  16   0    4.27    0.27
   0 -16   0    0.03    0.03
   0  16   0    0.07    0.04
   0  16   0    0.07    0.14
   0  16   0    0.10    0.07
  -2 -16   0    2.59    0.19
   2  16   0    3.03    0.18
  -3 -16   0    9.25    0.59
   3  16   0    9.56    0.54
  -4 -16   0    9.64    0.57
   4  16   0    8.58    0.52
  -3  17   0    0.50    0.06
  -2  17   0    2.24    0.16
  -2  17   0    2.08    0.21
  -1  17   0    0.75    0.09
   0 -17   0    4.07    0.25
   0 -17   0    3.71    0.25
  -1 -17   0    0.41    0.05
   2  17   0    0.13    0.04
   2  17  -1    2.39    0.14
  -1 -17   1    1.91    0.13
   0 -17   1    2.21    0.15
  -1  17  -1    2.06    0.21
  -1  17  -1    1.80    0.14
  -2  17  -1    1.91    0.20
  -2  17  -1    1.83    0.14
   3  16  -1    3.74    0.23
   3  16  -1    4.64    0.57
  -3 -16   1    3.58    0.25
  -2 -16   1    1.89    0.14
   1  16  -1    0.73    0.08
   1  16  -1    0.91    0.26
  -1 -16   1    0.68    0.07
   0  16  -1    0.42    0.08
   0  16  -1    0.48    0.16
   0 -16   1    0.53    0.06
  -1  16  -1    0.99    0.18
  -1  16  -1    0.91    0.10
   1 -16   1    0.83    0.08
  -2  16  -1    9.13    0.59
  -2  16  -1    8.89    0.51
   2 -16   1    7.25    0.52
  -3  16  -1    5.08    0.32
  -3  16  -1    5.02    0.38
  -4  16  -1    0.20    0.11
  -4  16  -1    0.10    0.06
  -5 -15   1    5.67    0.36
   4  15  -1   12.95    1.65
  -4 -15   1   16.98    0.95
   2  15  -1    2.60    0.18
  -2 -15   1    2.80    0.19
   1  15  -1   -0.09    0.16
   1  15  -1    0.14    0.29
   1  15  -1    0.03    0.05
  -1 -15   1    0.02    0.04
   0  15  -1    6.80    0.37
   0  15  -1    6.22    0.40
   0  15  -1    6.79    0.50
   0  15  -1    5.73    0.80
   0 -15   1    6.28    0.41
   0 -15   1    5.84    0.46
  -1  15  -1    0.34    0.18
  -1  15  -1    0.42    0.05
   1 -15   1    0.36    0.05
   1 -15   1    0.32    0.06
  -2  15  -1    0.37    0.17
  -2  15  -1    0.09    0.07
   2 -15   1    0.16    0.04
   2 -15   1    0.14    0.04
  -3  15  -1    2.68    0.27
  -3  15  -1    2.43    0.19
  -4  15  -1    1.64    0.21
  -4  15  -1    1.77    0.14
  -5  15  -1   16.13    0.88
  -5  15  -1   13.40    0.96
   6  14  -1    0.76    0.37
  -6 -14   1    0.40    0.05
   5  14  -1    4.35    0.76
  -5 -14   1    3.70    0.25
   3  14  -1   27.56    3.13
  -3 -14   1   31.95    1.85
   2  14  -1    6.97    0.44
  -2 -14   1    7.67    0.47
   1  14  -1    9.00    0.64
   1  14  -1    8.53    1.06
   1  14  -1    7.92    0.49
  -1 -14   1    8.59    0.54
   0  14  -1    9.41    1.17
   0  14  -1   10.35    0.57
   0  14  -1   10.12    0.62
   0  14  -1   10.72    0.73
   0 -14   1    9.53    0.73
   0 -14   1    9.54    0.63
  -1  14  -1    3.25    0.19
  -1  14  -1    3.33    0.34
  -1  14  -1    2.73    0.23
   1 -14   1    3.02    0.24
  -2  14  -1    3.95    0.29
  -2  14  -1    4.03    0.38
  -2  14  -1    4.10    0.24
   2 -14   1    4.10    0.31
  -3  14  -1   32.93    1.87
  -3  14  -1   30.63    2.04
   3 -14   1   31.24    2.28
  -4  14  -1    0.07    0.14
  -4  14  -1    0.07    0.07
   4 -14   1    0.12    0.04
  -5  14  -1    3.24    0.31
  -5  14  -1    4.02    0.25
  -6  14  -1    0.03    0.05
   7  13  -1    3.24    0.61
   6  13  -1    1.03    0.52
  -6 -13   1    0.62    0.07
   5  13  -1    2.26    0.63
  -5 -13   1    1.91    0.15
   4  13  -1   10.00    1.33
  -4 -13   1   10.71    0.66
   3  13  -1   22.93    2.54
  -3 -13   1   23.62    1.45
   2  13  -1   27.74    2.98
   2  13  -1   26.17    2.04
  -2 -13   1   29.70    1.73
   1  13  -1    0.08    0.18
   1  13  -1    0.21    0.13
   1  13  -1    0.09    0.07
   1  13  -1    0.60    0.46
  -1 -13   1    0.22    0.06
  -1 -13   1    0.18    0.05
   0  13  -1    3.41    0.27
   0  13  -1    3.64    0.37
   0  13  -1    3.18    0.71
   0  13  -1    3.49    0.23
   0  13  -1    3.65    0.34
   0 -13   1    3.80    0.28
  -1  13  -1    1.33    0.25
  -1  13  -1    1.29    0.19
  -1  13  -1    1.34    0.12
  -1  13  -1    1.19    0.14
   1 -13   1    1.29    0.12
  -2  13  -1    3.75    0.38
  -2  13  -1    3.34    0.33
  -2  13  -1    3.77    0.22
  -2  13  -1    4.08    0.28
   2 -13   1    3.60    0.29
  -3  13  -1    3.87    0.34
  -3  13  -1    3.96    0.38
  -3  13  -1    4.33    0.29
   3 -13   1    4.04    0.31
  -4  13  -1   -0.02    0.07
  -4  13  -1    0.10    0.16
   4 -13   1    0.09    0.04
  -5  13  -1    4.73    0.29
  -5  13  -1    3.79    0.35
   5 -13   1    4.13    0.32
  -6  13  -1    7.95    0.49
   7  12  -1   24.64    2.63
  -7 -12   1   24.43    1.79
   6  12  -1    2.68    0.70
  -6 -12   1    1.86    0.14
  -6 -12   1    1.76    0.20
   5  12  -1   19.30    2.25
  -5 -12   1   20.36    1.49
  -5 -12   1   20.77    1.26
   4  12  -1    2.44    0.30
   4  12  -1    3.90    0.77
  -4 -12   1    3.25    0.22
   3  12  -1    4.84    0.82
   3  12  -1    3.46    0.37
  -3 -12   1    4.31    0.28
   2  12  -1   23.98    1.83
   2  12  -1   25.91    2.70
  -2 -12   1   25.02    1.55
   1  12  -1    6.89    0.54
   1  12  -1    6.63    0.54
   1  12  -1    6.48    1.04
  -1 -12   1    6.57    0.50
   0  12  -1    4.64    0.41
   0  12  -1    4.36    0.79
   0  12  -1    4.24    0.43
   0 -12   1    4.86    0.36
  -1  12  -1    3.26    0.32
  -1  12  -1    3.39    0.36
   1 -12   1    3.34    0.26
  -2  12  -1   95.33    6.84
  -2  12  -1   96.86    5.25
  -2  12  -1   93.33    6.00
   2 -12   1   96.23    6.85
  -3  12  -1    0.22    0.09
  -3  12  -1    0.27    0.18
  -3  12  -1    0.54    0.34
  -3  12  -1    0.23    0.10
   3 -12   1    0.17    0.05
   3 -12   1    0.23    0.05
  -4  12  -1    2.28    0.23
  -4  12  -1    2.45    0.20
  -4  12  -1    2.34    0.30
   4 -12   1    2.47    0.19
   4 -12   1    2.40    0.19
  -5  12  -1    1.77    0.16
  -5  12  -1    1.90    0.24
   8  11  -1    1.53    0.55
  -8 -11   1    1.38    0.18
   7  11  -1   -0.05    0.57
  -7 -11   1    0.00    0.09
   6  11  -1   12.38    1.57
  -6 -11   1   12.30    0.94
   5  11  -1    5.40    0.92
  -5 -11   1    3.53    0.33
  -5 -11   1    3.74    0.26
   4  11  -1    0.48    0.16
   4  11  -1    1.38    0.65
  -4 -11   1    0.58    0.07
   3  11  -1   22.03    2.44
   3  11  -1   21.03    1.64
  -3 -11   1   23.28    1.38
   2  11  -1    0.58    0.15
  -2 -11   1    0.34    0.16
   1  11  -1    4.85    0.44
  -1 -11   1    5.34    0.39
   0  11  -1    4.29    0.37
   0 -11   1    4.45    0.32
   0 -11   1    3.62    0.29
  -1  11  -1   27.32    2.04
   1 -11   1   28.40    2.02
   1 -11   1   28.12    2.02
   1 -11   1   27.76    1.81
  -2  11  -1   46.89    3.43
   2 -11   1   44.21    3.42
   2 -11   1   51.72    3.06
  -3  11  -1   15.16    1.16
   3 -11   1   14.80    1.13
   3 -11   1   16.87    1.03
  -4  11  -1    2.79    0.26
  -4  11  -1    3.09    0.32
  -5  11  -1    0.40    0.16
  -5  11  -1    0.65    0.10
  -9 -10   1    4.34    0.36
   8  10  -1   14.69    1.69
  -8 -10   1   13.83    1.06
   7  10  -1   34.65    3.54
  -7 -10   1   32.17    2.43
   6  10  -1   14.35    1.70
  -6 -10   1   13.29    1.03
   5  10  -1    9.73    1.26
   5  10  -1    9.73    1.55
  -5 -10   1    7.67    0.64
  -5 -10   1    8.02    0.52
   4  10  -1    8.99    1.52
   4  10  -1    7.47    0.63
   4  10  -1    8.25    1.19
  -4 -10   1    7.96    0.50
   3  10  -1   19.74    1.61
  -3 -10   1   24.31    1.86
   2  10  -1    0.79    0.16
  -2 -10   1    0.94    0.20
   1  10  -1    5.63    0.44
  -1 -10   1    5.39    0.52
  -1 -10   1    4.96    0.39
   0  10  -1   45.76    3.01
   0 -10   1   39.66    2.99
   0 -10   1   39.62    2.99
  -1  10  -1   10.25    0.75
   1 -10   1    9.31    0.71
  -2  10  -1    0.23    0.10
  -3  10  -1    2.08    0.21
  -4  10  -1   60.80    4.69
   4 -10   1   70.03    4.20
  -9  -9   1    6.27    0.51
   8   9  -1    6.10    1.03
  -8  -9   1    6.96    0.54
  -7  -9   1   12.63    0.93
  -7  -9   1   12.88    0.97
   6   9  -1   10.99    1.76
  -6  -9   1   14.20    0.92
  -6  -9   1   11.29    0.96
   5   9  -1   69.12    6.22
   5   9  -1   55.76    5.65
  -5  -9   1   57.00    4.30
   4   9  -1    2.28    0.94
   4   9  -1    1.37    0.19
   4   9  -1    1.03    0.69
  -4  -9   1    1.45    0.16
  -4  -9   1    1.49    0.26
   3   9  -1   -0.14    0.52
   3   9  -1    1.25    0.90
   3   9  -1    0.13    0.11
  -3  -9   1    0.23    0.14
   2   9  -1    5.98    1.13
   2   9  -1    4.03    0.32
   2   9  -1    3.36    0.76
  -2  -9   1    3.57    0.38
  -2  -9   1    3.09    0.26
   1   9  -1    3.75    0.33
  -1  -9   1    3.77    0.30
  -1  -9   1    4.36    0.41
   0  -9   1    6.31    0.47
   0  -9   1    6.27    0.58
  -1   9  -1    0.98    0.14
   1  -9   1    1.19    0.19
   1  -9   1    0.72    0.08
  -2   9  -1   10.73    0.73
   2  -9   1    8.66    0.70
  -3   9  -1    0.15    0.09
  -4   9  -1    0.41    0.10
   5  -9   1   13.27    0.87
 -10  -8   1    0.15    0.10
   8   8  -1   15.23    1.67
   8   8  -1   13.52    1.73
   7   8  -1   -0.11    0.85
   7   8  -1    2.86    0.53
  -7  -8   1    1.63    0.16
  -7  -8   1    1.75    0.22
  -7  -8   1    1.58    0.12
   6   8  -1    4.30    0.97
   6   8  -1    5.34    0.81
  -6  -8   1    3.65    0.35
  -6  -8   1    3.98    0.32
   5   8  -1    5.07    0.97
  -5  -8   1    4.68    0.51
   4   8  -1    6.17    0.98
   4   8  -1    4.41    0.38
   4   8  -1    5.68    0.92
  -4  -8   1    4.23    0.46
  -4  -8   1    4.31    0.36
   3   8  -1    1.53    0.55
   3   8  -1    1.32    0.69
   3   8  -1    1.42    0.17
  -3  -8   1    1.20    0.22
  -3  -8   1    1.71    0.17
   2   8  -1    5.54    1.02
   2   8  -1    5.50    0.44
   1   8  -1  186.33   13.29
   0   8  -1   26.10    1.89
  -1   8  -1  118.06    7.91
   1  -8   1  103.27    8.90
  -2   8  -1   68.93    4.41
   2  -8   1   53.98    4.96
  -4   8  -1    0.76    0.12
   5  -8   1   29.98    1.93
  10   7  -1   40.83    4.78
  10   7  -1   34.54    3.86
   9   7  -1    0.93    0.43
  -9  -7   1    0.45    0.14
   8   7  -1   10.14    1.33
   8   7  -1    8.00    1.40
  -8  -7   1   12.45    0.64
  -8  -7   1   11.61    0.86
  -8  -7   1   10.80    0.81
   7   7  -1    5.24    1.07
   7   7  -1    5.85    1.11
   7   7  -1    6.51    0.98
  -7  -7   1    6.34    0.37
  -7  -7   1    5.98    0.47
  -7  -7   1    6.10    0.51
   6   7  -1    9.51    1.40
   6   7  -1   10.59    1.34
  -6  -7   1   10.20    0.78
  -6  -7   1   11.77    0.99
   5   7  -1   14.32    1.46
   5   7  -1   10.38    1.35
  -5  -7   1   11.33    0.85
  -5  -7   1   11.21    1.03
   4   7  -1   27.35    2.87
   4   7  -1   27.72    2.15
   4   7  -1   31.59    2.83
  -4  -7   1   31.16    2.45
  -4  -7   1   30.14    2.11
   3   7  -1  123.42    9.34
   3   7  -1  122.64   11.72
   3   7  -1  133.85   11.56
  -3  -7   1  135.86    9.20
  -3  -7   1  137.70   10.51
   2   7  -1   87.78    6.61
   2   7  -1   88.55    8.34
   2   7  -1   94.56    8.26
  -2  -7   1   91.14    7.45
  -2  -7   1  100.35    6.53
   1   7  -1    2.28    0.51
   1   7  -1    2.63    0.23
   1   7  -1    4.68    0.85
  -1  -7   1    2.47    0.28
  -1  -7   1    2.22    0.27
   0   7  -1  496.05   34.86
   0   7  -1  454.72   43.22
   0   7  -1  516.78   42.71
   1  -7   1    4.27    0.38
   1  -7   1    3.23    0.36
  -2   7  -1   29.95    2.20
   2  -7   1   31.04    2.51
  -4   7  -1   52.42    3.76
  10   6  -1    2.56    0.49
 -10  -6   1    2.72    0.27
   9   6  -1   -0.58    0.73
   9   6  -1    1.00    0.45
  -9  -6   1    0.91    0.17
  -9  -6   1    0.71    0.07
   8   6  -1    0.75    0.77
   8   6  -1    1.89    0.49
  -8  -6   1    1.39    0.20
  -8  -6   1    1.26    0.14
  -8  -6   1    1.46    0.11
   7   6  -1    0.52    0.55
   7   6  -1    0.18    0.43
   7   6  -1   -0.55    0.69
  -7  -6   1    0.18    0.12
  -7  -6   1    0.13    0.07
   6   6  -1   12.08    1.47
  -6  -6   1   11.60    0.89
  -6  -6   1   13.11    1.10
  -5  -6   1    0.96    0.21
  -5  -6   1    1.32    0.13
   4   6  -1    0.04    0.32
   4   6  -1    0.08    0.08
  -4  -6   1   -0.01    0.11
  -4  -6   1    0.29    0.07
   3   6  -1   25.23    2.53
   3   6  -1   26.08    1.92
   3   6  -1   25.95    2.48
  -3  -6   1   28.17    1.89
  -3  -6   1   26.77    2.18
   2   6  -1    0.11    0.07
   2   6  -1    0.11    0.28
   2   6  -1   -0.02    0.49
  -2  -6   1    0.21    0.11
   1   6  -1    1.31    0.36
   1   6  -1    1.44    0.15
   1   6  -1    1.76    0.63
  -1  -6   1    1.45    0.18
  -1  -6   1    1.39    0.20
   0   6  -1   43.28    3.60
   0   6  -1   39.94    3.60
   0   6  -1   40.31    2.81
   0  -6   1   34.00    3.20
  -1   6  -1    0.31    0.34
   1  -6   1    0.38    0.08
   1  -6   1    0.11    0.09
  -2   6  -1    2.77    0.53
  -2   6  -1    3.73    0.57
  -2   6  -1    2.90    0.25
   2  -6   1    3.12    0.28
   2  -6   1    2.52    0.29
  -3   6  -1   14.99    1.47
  -3   6  -1   15.84    1.14
   3  -6   1   14.04    1.30
   3  -6   1   17.54    1.31
  -4   6  -1   44.48    3.19
 -11  -5   1    0.08    0.10
 -10  -5   1    4.08    0.38
 -10  -5   1    4.35    0.25
   9   5  -1    1.08    0.42
   9   5  -1    2.40    0.74
  -9  -5   1    0.55    0.16
  -9  -5   1    0.56    0.07
   8   5  -1    1.74    0.47
   8   5  -1    2.46    0.80
  -8  -5   1    1.21    0.20
  -8  -5   1    1.28    0.11
  -8  -5   1    1.55    0.14
   7   5  -1    0.94    0.69
   7   5  -1    0.81    0.36
  -7  -5   1    0.83    0.11
   6   5  -1   37.29    3.51
   6   5  -1   39.43    3.30
   6   5  -1   35.20    3.49
   6   5  -1   30.51    2.70
  -6  -5   1   40.33    3.04
  -6  -5   1   36.60    2.59
   5   5  -1   68.66    6.03
   5   5  -1   59.62    5.97
   5   5  -1   74.18    6.32
   5   5  -1   64.58    5.01
  -5  -5   1   72.71    4.87
  -5  -5   1   75.09    5.61
   4   5  -1    1.75    0.66
   4   5  -1    1.76    0.43
   4   5  -1    2.15    0.20
  -4  -5   1    1.85    0.26
  -4  -5   1    2.04    0.19
   3   5  -1  155.35   13.68
   3   5  -1  144.12   12.88
   3   5  -1  147.72   10.97
  -3  -5   1  152.12   12.34
  -3  -5   1  169.09   10.81
   2   5  -1    1.14    0.29
   2   5  -1    1.03    0.12
   2   5  -1    0.97    0.52
   2   5  -1    1.41    0.35
  -2  -5   1    1.04    0.17
   1   5  -1    3.26    0.47
  -1  -5   1    3.12    0.29
  -1  -5   1    2.93    0.30
   0  -5   1    4.52    0.43
   0  -5   1    5.08    0.43
   1  -5   1    4.52    0.43
   1  -5   1    5.18    0.42
  -2   5  -1   14.51    1.31
   2  -5   1   14.29    1.19
  -3   5  -1    7.44    0.84
  -3   5  -1    6.58    0.80
   3  -5   1    5.78    0.60
   3  -5   1    7.10    0.57
  -4   5  -1    3.15    0.59
  -4   5  -1    2.73    0.44
  -4   5  -1    2.49    0.48
   4  -5   1    2.65    0.26
  -5   5  -1  101.09    8.46
  -9   5  -1    2.41    0.24
 -10   5  -1    4.32    0.36
 -10   5  -1    4.36    0.32
 -11   5  -1    5.63    0.42
 -11   5  -1    5.66    0.39
 -11  -4   1    3.68    0.32
 -10  -4   1   24.98    1.89
 -10  -4   1   26.22    1.45
   8   4  -1   94.89    7.27
   8   4  -1  101.89   10.09
   8   4  -1  103.62    8.71
  -8  -4   1  103.29    7.19
  -8  -4   1   88.51    7.88
  -8  -4   1  101.20    5.61
  -8  -4   1  105.15    7.03
   7   4  -1  105.23   10.11
   7   4  -1  118.01    9.70
   7   4  -1  108.91    9.64
  -7  -4   1  117.59    7.84
  -7  -4   1  100.96    8.79
  -7  -4   1  118.62    9.03
   6   4  -1   44.98    2.94
   6   4  -1   37.66    3.66
   6   4  -1   37.44    3.74
   6   4  -1   44.29    3.55
  -6  -4   1   37.66    2.81
  -6  -4   1   41.35    3.28
  -6  -4   1   34.63    3.18
   5   4  -1    4.63    0.41
   5   4  -1    4.58    0.84
   5   4  -1    5.37    0.67
  -5  -4   1    4.05    0.45
  -5  -4   1    3.99    0.32
  -5  -4   1    3.87    0.44
   4   4  -1   24.92    2.66
   4   4  -1   25.44    2.39
   4   4  -1   25.40    1.85
   4   4  -1   26.72    2.42
  -4  -4   1   26.20    1.82
  -4  -4   1   25.38    2.11
  -4  -4   1   25.56    2.07
   3   4  -1    4.05    0.69
  -3  -4   1    4.03    0.38
   2   4  -1   22.54    2.40
   2   4  -1   26.27    2.22
   2   4  -1   23.87    2.19
  -2  -4   1   23.86    1.96
   1   4  -1  154.19   12.42
   1   4  -1  127.26   11.66
  -1  -4   1  138.67   11.22
   0  -4   1  147.44   11.80
   1  -4   1  284.62   22.76
  -2   4  -1   66.97    5.08
   2  -4   1   65.01    4.92
   2  -4   1   50.85    4.90
  -3   4  -1   59.72    5.14
  -3   4  -1   63.42    5.27
   3  -4   1   62.62    5.10
   3  -4   1   66.43    6.21
  -4   4  -1  113.07    8.75
  -4   4  -1  110.64    9.00
  -4   4  -1  107.32    8.47
   4  -4   1  103.00   10.61
   4  -4   1  106.54    8.72
  -5   4  -1   14.50    1.10
   5  -4   1   12.30    1.24
  -7   4  -1   30.14    2.70
  -7   4  -1   28.75    2.42
   7  -4   1   31.98    2.74
  -8   4  -1   27.00    2.19
  -9   4  -1    3.77    0.48
  -9   4  -1    4.72    0.33
  -9   4  -1    4.72    0.38
 -10   4  -1    2.23    0.24
 -10   4  -1    2.53    0.20
 -11   4  -1   17.37    1.10
 -11   4  -1   15.97    1.16
 -11  -3   1    0.02    0.02
 -11  -3   1    0.04    0.11
 -11  -3   1   -0.01    0.07
 -11  -3   1   -0.01    0.04
  10   3  -1    2.21    0.70
  10   3  -1    1.88    0.38
 -10  -3   1    2.02    0.17
 -10  -3   1    2.08    0.13
 -10  -3   1    2.05    0.25
 -10  -3   1    1.76    0.20
   8   3  -1   12.36    1.45
   8   3  -1   11.53    1.60
  -8  -3   1   11.88    0.71
  -8  -3   1   13.13    0.97
  -8  -3   1   12.75    0.89
  -8  -3   1   11.77    1.09
   7   3  -1    7.86    1.21
   7   3  -1    8.44    1.11
   7   3  -1   10.71    0.79
   7   3  -1    8.32    1.40
  -7  -3   1    9.33    0.86
  -7  -3   1    8.99    0.66
  -7  -3   1    8.07    0.83
   6   3  -1    2.94    0.31
   6   3  -1    2.66    0.77
   6   3  -1    1.98    0.46
  -6  -3   1    2.27    0.19
  -6  -3   1    2.03    0.33
  -6  -3   1    2.22    0.32
   5   3  -1    5.79    0.95
  -5  -3   1    5.72    0.55
  -5  -3   1    5.44    0.42
  -5  -3   1    5.77    0.56
   4   3  -1    0.33    0.43
   4   3  -1    0.65    0.09
   4   3  -1    0.21    0.41
  -4  -3   1    1.16    0.18
  -4  -3   1    0.25    0.14
   3   3  -1    2.04    0.44
   3   3  -1    1.82    0.40
   3   3  -1    1.55    0.29
  -3  -3   1    1.21    0.18
   2   3  -1  243.23   23.05
   2   3  -1  252.91   20.89
   2   3  -1  212.83   19.57
   1   3  -1   55.89    4.73
   1   3  -1   50.67    4.52
   1   3  -1   54.73    5.19
  -1  -3   1   50.32    4.26
  -1  -3   1   53.50    4.29
   0  -3   1  186.40   14.91
  -2   3  -1   10.67    1.08
  -2   3  -1   13.29    1.09
   2  -3   1   12.67    1.01
  -3   3  -1  366.98   30.14
  -3   3  -1  406.59   31.08
   3  -3   1  355.89   36.68
  -4   3  -1   84.19    6.65
  -4   3  -1   89.01    6.45
  -4   3  -1   85.72    6.87
   4  -3   1   74.58    6.62
   4  -3   1   77.21    8.09
  -5   3  -1  221.48   16.74
  -5   3  -1  186.36   14.14
  -5   3  -1  177.51   16.19
  -5   3  -1  208.50   15.77
   5  -3   1  195.95   19.73
   5  -3   1  219.72   17.81
  -6   3  -1   39.77    3.22
  -6   3  -1   36.11    2.59
  -6   3  -1   39.16    2.93
  -6   3  -1   31.85    3.05
   6  -3   1   40.14    3.33
   6  -3   1   32.89    3.79
   6  -3   1   36.47    3.19
  -7   3  -1   30.56    2.68
  -7   3  -1   29.32    2.12
  -7   3  -1   30.09    2.57
  -7   3  -1   29.18    2.40
   7  -3   1   30.64    2.70
  -8   3  -1   39.92    3.20
  -9   3  -1   10.20    0.68
  -9   3  -1    8.62    0.87
  -9   3  -1   10.45    0.73
 -10   3  -1    5.94    0.48
 -10   3  -1    6.52    0.45
 -11   3  -1    0.84    0.10
 -11   3  -1    0.73    0.13
 -12   3  -1    1.00    0.09
 -12   3  -1    1.04    0.11
 -11  -2   1    9.23    0.49
 -11  -2   1    8.48    0.62
 -11  -2   1    8.13    0.58
   9   2  -1    0.99    0.38
   9   2  -1    1.86    0.67
  -9  -2   1    0.92    0.13
  -9  -2   1    1.25    0.19
  -9  -2   1    1.12    0.09
  -9  -2   1    1.14    0.21
  -9  -2   1    1.01    0.11
   8   2  -1    9.27    1.40
   8   2  -1   11.83    0.90
  -8  -2   1    9.88    0.74
  -8  -2   1   10.39    0.82
  -8  -2   1    9.56    0.94
   7   2  -1   37.57    3.46
   7   2  -1   34.74    3.46
   7   2  -1   38.81    2.70
  -7  -2   1   34.01    2.94
  -7  -2   1   34.19    2.58
  -7  -2   1   40.06    3.05
   6   2  -1    1.56    0.22
   6   2  -1    1.12    0.34
   6   2  -1    1.60    0.63
  -6  -2   1    1.66    0.15
  -6  -2   1    1.42    0.26
  -6  -2   1    2.43    0.32
   5   2  -1   24.61    2.19
   5   2  -1   24.86    2.19
   5   2  -1   24.64    2.50
  -5  -2   1   22.25    1.64
  -5  -2   1   21.14    1.88
  -5  -2   1   22.63    1.93
   4   2  -1  280.10   27.99
   4   2  -1  292.88   23.76
   4   2  -1  319.89   25.35
  -4  -2   1  269.11   22.42
  -4  -2   1  271.75   22.95
   3   2  -1   84.93    6.92
   3   2  -1   91.49    7.34
  -3  -2   1   71.69    6.63
  -2  -2   1    8.19    0.69
   0   2  -1    1.11    0.11
   0  -2   1    1.39    0.11
   1  -2   1   58.00    5.66
  -2   2  -1  246.38   19.47
  -2   2  -1  233.78   18.87
   2  -2   1  227.08   22.97
  -3   2  -1   18.17    1.54
  -3   2  -1   18.26    1.47
   3  -2   1   16.00    1.83
  -4   2  -1  234.12   19.59
  -4   2  -1  227.38   18.98
  -4   2  -1  253.78   18.51
   4  -2   1  215.63   23.11
   4  -2   1  252.49   20.89
  -5   2  -1   70.15    5.65
  -5   2  -1   62.57    4.70
  -5   2  -1   71.02    5.27
  -5   2  -1   58.72    5.43
   5  -2   1   73.59    5.96
   5  -2   1   65.47    6.66
  -6   2  -1    4.42    0.56
  -6   2  -1    5.09    0.49
  -6   2  -1    5.25    0.70
  -6   2  -1    5.07    0.38
   6  -2   1    5.68    0.58
   6  -2   1    5.12    0.64
  -7   2  -1   10.05    0.83
  -7   2  -1    8.03    0.91
  -7   2  -1    9.58    1.04
  -7   2  -1    9.37    0.68
  -7   2  -1    9.96    0.83
   7  -2   1    9.25    0.99
   7  -2   1    8.87    1.04
  -8   2  -1    2.32    0.19
  -8   2  -1    2.16    0.58
  -8   2  -1    2.13    0.33
   8  -2   1    2.09    0.64
  -9   2  -1    0.19    0.21
  -9   2  -1    0.28    0.09
  -9   2  -1    0.39    0.14
   9  -2   1    0.07    0.23
 -10   2  -1    0.43    0.09
 -10   2  -1    0.43    0.13
  10  -2   1    0.20    0.26
  10  -2   1    0.35    0.50
 -11   2  -1   28.70    1.90
 -11   2  -1   29.16    1.99
 -12   2  -1    8.01    0.57
 -12   2  -1    7.98    0.53
 -11  -1   1   12.99    0.90
 -11  -1   1   12.94    0.85
 -11  -1   1   12.44    0.72
  10   1  -1   13.76    1.49
  10   1  -1   12.54    1.13
 -10  -1   1   14.82    1.05
 -10  -1   1   13.58    0.78
 -10  -1   1   13.28    0.98
 -10  -1   1   13.94    0.92
   9   1  -1   14.60    1.87
   9   1  -1   17.48    1.34
  -9  -1   1   18.43    1.28
  -9  -1   1   15.27    1.41
  -9  -1   1   15.74    1.12
  -9  -1   1   17.38    1.19
  -9  -1   1   15.91    1.19
  -9  -1   1   17.05    0.95
   8   1  -1    1.60    0.32
  -8  -1   1    1.13    0.29
  -8  -1   1    1.44    0.13
   7   1  -1    0.64    0.65
   7   1  -1    1.23    0.38
   7   1  -1    1.12    0.20
  -7  -1   1    0.55    0.24
  -7  -1   1    0.63    0.23
  -7  -1   1    0.51    0.08
   6   1  -1   32.73    2.84
   6   1  -1   28.80    3.26
   6   1  -1   32.20    2.23
   6   1  -1   30.02    2.86
  -6  -1   1   30.41    2.63
  -6  -1   1   30.04    2.47
  -6  -1   1   30.72    2.54
  -6  -1   1   30.07    2.17
   5   1  -1  142.71   11.47
   5   1  -1  145.61   13.48
   5   1  -1  138.96   12.16
  -5  -1   1  130.52   10.73
  -5  -1   1  129.62    9.60
  -5  -1   1  134.19   11.00
   4   1  -1   12.22    1.26
   4   1  -1   14.06    1.26
  -4  -1   1   15.48    1.12
  -4  -1   1   13.20    1.27
  -4  -1   1   11.54    1.12
   3   1  -1  574.69   46.14
  -3  -1   1  502.62   44.77
  -3  -1   1  540.46   56.21
  -3  -1   1  618.40   46.14
   2   1  -1  210.35   17.77
   2   1  -1  187.57   16.65
  -2  -1   1  206.13   16.65
   1   1  -1    5.80    0.48
  -1  -1   1    6.05    0.48
   0  -1   1  100.28    9.78
   1  -1   1   16.87    1.67
  -2   1  -1   97.33    7.77
  -2   1  -1   99.20    8.03
   2  -1   1   93.97    9.47
  -3   1  -1  186.39   15.66
  -3   1  -1  188.69   15.16
   3  -1   1  184.92   18.48
   3  -1   1  197.06   16.70
  -4   1  -1   69.92    6.02
  -4   1  -1   75.11    5.65
  -4   1  -1   69.11    5.79
   4  -1   1   68.57    7.09
   4  -1   1   76.39    6.38
  -5   1  -1    4.74    0.59
  -5   1  -1    4.14    0.32
  -5   1  -1    4.69    0.42
  -5   1  -1    3.44    0.45
   5  -1   1    4.89    0.49
  -6   1  -1   47.21    4.00
  -6   1  -1   49.30    3.68
  -6   1  -1   46.19    3.26
  -6   1  -1   39.68    3.79
   6  -1   1   47.44    4.19
   6  -1   1   48.25    3.99
  -7   1  -1   13.00    1.27
  -7   1  -1   12.70    1.07
  -7   1  -1   11.24    1.13
  -7   1  -1   11.85    0.88
   7  -1   1   12.03    1.24
   7  -1   1   12.74    1.29
  -8   1  -1  108.81    8.16
  -8   1  -1  110.01    9.14
  -8   1  -1  112.48    9.81
   8  -1   1  131.97   12.10
   8  -1   1  111.57    9.87
   8  -1   1  123.42    8.36
  -9   1  -1    7.27    0.56
  -9   1  -1    6.90    0.52
  -9   1  -1    7.37    0.64
  -9   1  -1    7.22    0.50
   9  -1   1    6.38    0.64
 -11   1  -1    0.76    0.11
 -11   1  -1    0.66    0.14
 -12   1  -1    2.93    0.21
 -12   1  -1    2.88    0.23
 -11   0   1   12.62    0.88
 -11   0   1   12.10    0.82
 -10   0   1    2.69    0.18
 -10   0   1    3.14    0.24
 -10   0   1    2.92    0.28
   9   0  -1    4.22    0.50
  -9   0   1    3.82    0.32
  -9   0   1    4.02    0.25
  -9   0   1    4.20    0.49
  -9   0   1    3.95    0.37
  -9   0   1    4.46    0.32
   8   0  -1   21.22    1.69
  -8   0   1   24.19    1.89
  -8   0   1   22.35    1.60
   7   0  -1   80.78    5.71
   7   0  -1   79.46    6.89
   7   0  -1   76.99    7.18
  -7   0   1   75.58    6.77
  -7   0   1   79.73    5.58
  -7   0   1   82.99    6.28
   6   0  -1  115.68    9.34
   6   0  -1  130.32   11.61
   6   0  -1  134.45   12.89
   6   0  -1  132.41   10.98
  -6   0   1  133.26   10.24
  -6   0   1  139.53   10.51
  -6   0   1  133.74    9.15
  -6   0   1  123.56   11.10
   4   0  -1   30.67    2.75
   4   0  -1   33.13    2.85
  -4   0   1   35.21    2.76
  -4   0   1   29.88    2.58
  -4   0   1   29.90    2.52
  -4   0   1   31.58    3.24
   3   0  -1   26.45    2.35
  -3   0   1   25.74    2.78
  -3   0   1   29.49    2.35
  -3   0   1   27.29    2.21
   2   0  -1   37.96    3.57
  -2   0   1   43.51    3.42
  -2   0   1   46.31    3.58
   0   0   1    0.39    0.17
   1   0   1   55.29    5.40
  -2   0  -1  266.06   19.89
   2   0   1  215.73   23.47
  -3   0  -1   43.50    3.58
  -3   0  -1   47.20    3.74
   3   0   1   42.72    3.94
  -4   0  -1  183.73   13.96
  -4   0  -1  189.26   14.80
  -4   0  -1  157.61   14.29
   4   0   1  181.84   17.45
   4   0   1  180.11   15.77
  -5   0  -1   19.14    1.49
  -5   0  -1   19.61    1.75
  -5   0  -1   23.55    1.91
  -5   0  -1   21.73    1.70
   5   0   1   21.89    1.94
  -6   0  -1    4.35    0.35
  -6   0  -1    5.01    0.52
  -6   0  -1    5.48    0.48
  -6   0  -1    4.73    0.67
   6   0   1    5.97    1.09
   6   0   1    4.75    0.66
   6   0   1    4.20    0.56
  -7   0  -1    5.79    0.79
  -7   0  -1    6.91    0.67
  -7   0  -1    6.10    0.46
  -7   0  -1    6.47    0.59
   7   0   1    6.21    0.50
   7   0   1    5.71    0.74
   7   0   1    6.59    0.84
  -8   0  -1   17.61    1.41
  -8   0  -1   16.61    1.19
   8   0   1   16.71    1.27
   8   0   1   15.06    1.74
   8   0   1   18.03    2.89
   8   0   1   15.95    1.71
  -9   0  -1    1.58    0.17
  -9   0  -1    1.64    0.23
  -9   0  -1    1.76    0.15
  -9   0  -1    1.79    0.31
   9   0   1    1.00    0.34
 -10   0  -1    4.71    0.40
 -10   0  -1    4.82    0.36
 -11   0  -1    0.06    0.07
 -11   0  -1    0.09    0.10
 -11   0  -1    0.05    0.17
 -12   0  -1    5.65    0.38
 -12   0  -1    5.53    0.41
 -11   1   1    5.32    0.37
 -11   1   1    5.26    0.41
 -10   1   1    6.67    0.46
 -10   1   1    6.13    0.37
 -10   1   1    6.53    0.50
   9  -1  -1    2.08    0.37
  -9   1   1    3.30    0.42
  -9   1   1    2.72    0.17
  -9   1   1    2.96    0.29
  -9   1   1    2.56    0.22
  -9   1   1    2.73    0.24
   8  -1  -1    7.16    0.58
  -8   1   1    6.67    0.69
  -8   1   1    6.82    0.51
  -8   1   1    6.97    0.64
   7  -1  -1    0.32    0.53
   7  -1  -1    0.58    0.27
   7  -1  -1    0.72    0.13
  -7   1   1    0.60    0.08
  -7   1   1    1.05    0.24
  -7   1   1    0.82    0.14
   6  -1  -1    7.32    1.14
   6  -1  -1    4.44    0.74
   6  -1  -1    4.52    0.57
  -6   1   1    5.20    0.45
  -6   1   1    5.07    0.49
  -6   1   1    4.34    0.36
   5  -1  -1  142.00   11.56
   5  -1  -1  127.91   10.88
  -5   1   1  120.89   10.47
  -5   1   1  138.04   10.22
  -5   1   1  122.00    9.13
   4  -1  -1   31.79    2.59
   4  -1  -1   29.46    2.50
  -4   1   1   24.30    2.34
  -4   1   1   29.40    2.50
  -4   1   1   29.19    2.95
  -4   1   1   28.56    2.29
   3  -1  -1  447.49   35.06
  -3   1   1  466.19   35.07
  -3   1   1  360.94   33.99
   2  -1  -1  228.35   19.36
  -2   1   1  240.69   19.37
   1  -1  -1   21.43    1.74
  -1   1   1   21.61    1.73
   0   1   1   69.23    6.79
   1   1   1   18.71    1.85
  -2  -1  -1   72.50    5.99
  -2  -1  -1   68.69    5.77
   2   1   1   72.85    7.07
   2   1   1   74.16    6.38
  -3  -1  -1  172.41   14.11
  -3  -1  -1  162.61   13.64
   3   1   1  180.79   15.06
   3   1   1  166.16   16.65
  -4  -1  -1   27.47    2.42
  -4  -1  -1   25.58    2.27
  -4  -1  -1   27.57    2.22
   4   1   1   31.45    2.87
   4   1   1   28.08    2.53
  -5  -1  -1    9.04    0.87
  -5  -1  -1    7.53    0.67
  -5  -1  -1    7.22    0.55
  -6  -1  -1   12.02    1.02
  -7  -1  -1   42.34    3.51
  -7  -1  -1   42.76    3.38
  -7  -1  -1   41.77    2.99
  -7  -1  -1   40.70    3.70
   7   1   1   42.33    3.08
   7   1   1   45.60    3.77
   7   1   1   40.84    3.91
  -8  -1  -1   98.53    7.04
  -8  -1  -1  104.27    8.16
  -8  -1  -1   96.20    7.89
   8   1   1  104.27    8.61
   8   1   1   93.25    9.05
   8   1   1  104.10    7.24
  -9  -1  -1   48.62    3.18
  -9  -1  -1   44.49    2.95
  -9  -1  -1   44.02    3.61
  -9  -1  -1   47.65    3.30
  -9  -1  -1   44.78    3.10
   9   1   1   40.01    3.33
 -11  -1  -1    7.04    0.53
 -11  -1  -1    6.99    0.49
 -11  -1  -1    7.14    0.60
 -12  -1  -1    0.11    0.04
 -12  -1  -1    0.10    0.07
 -11   2   1    3.67    0.30
 -11   2   1    3.76    0.27
 -10   2   1   50.38    3.44
 -10   2   1   50.12    3.28
  -9   2   1    7.79    0.54
  -9   2   1    8.31    0.60
  -9   2   1    6.12    0.71
  -9   2   1    7.37    0.55
  -9   2   1    7.74    0.44
   8  -2  -1   11.48    0.87
  -8   2   1   11.78    1.01
  -8   2   1   11.57    0.82
  -8   2   1   10.24    1.00
   7  -2  -1   19.02    2.01
   7  -2  -1   18.27    1.92
  -7   2   1   20.17    1.41
  -7   2   1   19.53    1.65
  -7   2   1   21.33    1.73
   6  -2  -1    1.58    0.30
   6  -2  -1    1.34    0.46
   6  -2  -1    3.86    0.89
  -6   2   1    1.62    0.15
  -6   2   1    2.15    0.21
  -6   2   1    1.93    0.29
   5  -2  -1   30.30    2.59
   5  -2  -1   23.53    2.50
  -5   2   1   33.32    2.29
  -5   2   1   26.19    2.01
   4  -2  -1  110.42   10.06
   4  -2  -1  110.58    9.47
  -4   2   1  119.52    9.47
  -4   2   1  116.52    8.91
  -4   2   1  108.47    9.14
  -4   2   1  116.55   11.46
   3  -2  -1   25.86    2.25
   3  -2  -1   28.15    2.38
   3  -2  -1   24.68    1.78
  -3   2   1   28.61    2.38
  -3   2   1   29.42    2.28
  -3   2   1   31.00    2.86
   2  -2  -1    0.35    0.13
   2  -2  -1    0.31    0.05
  -2   2   1    0.39    0.16
  -1   2   1    2.37    0.31
   0  -2  -1    3.17    0.24
   0   2   1    2.46    0.24
   1   2   1   74.69    7.30
  -2  -2  -1  178.29   14.54
  -2  -2  -1  162.69   14.08
   2   2   1  179.43   17.18
   2   2   1  183.69   15.55
  -3  -2  -1    0.82    0.24
   3   2   1    0.78    0.19
   3   2   1    1.18    0.43
  -4  -2  -1   66.57    5.74
  -4  -2  -1   72.13    5.61
  -4  -2  -1   70.70    5.98
   4   2   1   68.94    7.05
   4   2   1   73.76    5.97
   4   2   1   76.14    6.37
  -5  -2  -1   31.63    2.35
  -5  -2  -1   36.04    2.89
  -5  -2  -1   37.38    2.65
  -5  -2  -1   29.04    2.72
   5   2   1   32.66    2.88
  -7  -2  -1   27.77    1.98
  -7  -2  -1   22.55    2.22
  -7  -2  -1   24.84    1.71
  -7  -2  -1   22.92    2.05
   7   2   1   25.28    2.30
   7   2   1   24.00    1.80
   7   2   1   21.23    2.32
   7   2   1   23.28    2.25
  -8  -2  -1    9.02    0.86
  -8  -2  -1    7.67    0.76
  -8  -2  -1    8.28    0.61
   8   2   1    7.32    1.21
   8   2   1    9.02    0.75
   8   2   1    8.25    1.22
   8   2   1    7.56    1.03
  -9  -2  -1    5.33    0.38
  -9  -2  -1    4.24    0.53
  -9  -2  -1    4.76    0.37
  -9  -2  -1    5.37    0.49
  -9  -2  -1    4.82    0.42
   9   2   1    5.84    0.90
   9   2   1    4.72    0.60
 -10  -2  -1    6.75    0.55
 -10  -2  -1    7.90    0.63
 -10  -2  -1    7.59    0.52
  10   2   1    7.00    0.70
 -11  -2  -1    0.50    0.11
 -11  -2  -1    0.44    0.07
 -11  -2  -1    0.54    0.17
 -12  -2  -1    0.73    0.07
 -12  -2  -1    0.71    0.09
 -11   3   1    0.24    0.06
 -11   3   1    0.20    0.09
  10  -3  -1    0.94    0.27
  10  -3  -1    1.80    0.53
 -10   3   1    1.87    0.21
 -10   3   1    1.80    0.16
  -9   3   1    3.51    0.28
  -9   3   1    3.80    0.34
  -9   3   1    3.66    0.29
  -8   3   1    0.19    0.08
  -8   3   1    0.39    0.07
  -8   3   1    0.28    0.20
   7  -3  -1    8.30    1.09
   7  -3  -1    6.87    0.85
  -7   3   1    8.19    0.58
  -7   3   1    8.09    0.71
  -7   3   1    7.64    0.73
   6  -3  -1   34.23    3.85
   6  -3  -1   36.49    3.26
   6  -3  -1   34.59    3.34
  -6   3   1   36.66    2.94
  -6   3   1   39.54    3.15
  -6   3   1   37.97    2.59
   5  -3  -1   22.49    2.07
   5  -3  -1   19.96    2.03
  -5   3   1   21.57    1.60
  -5   3   1   26.03    1.83
   4  -3  -1   46.06    4.02
  -4   3   1   47.99    3.75
  -4   3   1   49.20    3.34
  -4   3   1   48.29    4.82
  -4   3   1   45.65    4.02
   3  -3  -1   41.93    3.51
   3  -3  -1   37.40    2.66
   3  -3  -1   37.56    3.37
  -3   3   1   41.20    3.51
  -3   3   1   48.21    4.25
  -3   3   1   44.57    3.40
   2  -3  -1  163.84   13.84
  -2   3   1  171.09   13.84
   1  -3  -1   81.37    6.83
  -1   3   1   88.19    8.29
   0   3   1  138.09   13.57
  -1  -3  -1  143.28   12.33
   1   3   1  146.17   15.04
   1   3   1  173.62   13.66
  -2  -3  -1   19.68    1.62
  -2  -3  -1   17.28    1.54
   2   3   1   19.53    1.61
   2   3   1   19.62    1.92
  -3  -3  -1  148.16   13.14
  -3  -3  -1  153.81   12.71
   3   3   1  142.00   15.99
   3   3   1  167.53   13.14
   3   3   1  175.15   14.07
   3   3   1  166.00   15.53
  -4  -3  -1    0.70    0.26
  -4  -3  -1    0.65    0.14
   4   3   1    0.90    0.25
   4   3   1    0.62    0.48
   4   3   1    1.40    0.85
   4   3   1    1.07    0.27
  -5  -3  -1   76.75    5.44
  -5  -3  -1   58.62    5.56
  -5  -3  -1   74.07    4.86
  -5  -3  -1   71.21    5.82
   5   3   1   63.62    5.82
  -6  -3  -1    8.32    0.74
  -6  -3  -1    8.21    0.61
  -6  -3  -1    7.07    0.92
  -6  -3  -1    7.61    0.76
   6   3   1    8.39    0.98
   6   3   1    8.68    0.97
   6   3   1    9.70    0.99
   6   3   1    9.39    0.69
  -7  -3  -1   17.82    1.45
  -7  -3  -1   16.08    1.50
  -7  -3  -1   18.00    1.24
   7   3   1   15.89    1.76
   7   3   1   18.49    1.34
   7   3   1   16.86    1.73
   7   3   1   17.38    1.78
   8   3   1    6.45    1.16
  -9  -3  -1   43.20    2.94
  -9  -3  -1   39.61    2.34
  -9  -3  -1   38.32    3.33
  -9  -3  -1   43.99    3.04
  -9  -3  -1   39.16    2.72
  -9  -3  -1   39.05    2.85
   9   3   1   43.42    3.11
   9   3   1   46.85    3.84
 -11  -3  -1    3.02    0.23
 -11  -3  -1    4.02    0.34
 -11  -3  -1    2.95    0.26
 -11   4   1    0.41    0.07
 -11   4   1    0.37    0.10
 -10   4   1    4.95    0.40
 -10   4   1    4.94    0.36
  -9   4   1   15.43    1.10
  -9   4   1   14.79    1.10
  -9   4   1   15.53    1.03
  -8   4   1   30.52    2.12
  -8   4   1   26.54    2.42
  -8   4   1   30.27    2.08
  -8   4   1   31.50    1.98
  -8   4   1   30.44    2.58
   7  -4  -1   13.81    1.56
  -7   4   1   17.46    1.42
  -7   4   1   15.79    1.36
  -7   4   1   17.18    1.16
   6  -4  -1   28.57    2.44
   6  -4  -1   23.59    2.41
  -6   4   1   25.36    2.13
  -6   4   1   27.24    2.27
  -6   4   1   27.34    1.87
   5  -4  -1   10.92    0.93
   5  -4  -1    8.67    1.00
  -5   4   1    9.13    0.69
   4  -4  -1   35.50    3.05
  -4   4   1   34.86    2.55
  -4   4   1   35.31    2.82
  -4   4   1   36.34    2.51
  -4   4   1   36.08    3.63
  -4   4   1   35.13    3.04
   3  -4  -1   24.28    2.02
   3  -4  -1   22.30    1.91
   3  -4  -1   20.89    1.50
  -3   4   1   26.31    2.42
  -3   4   1   23.97    2.01
   2  -4  -1   51.22    4.33
   2  -4  -1   54.12    4.46
  -2   4   1   57.21    4.46
  -2   4   1   51.86    4.34
  -1   4   1  186.51   18.19
   0  -4  -1   79.98    6.54
   0   4   1   83.35    8.05
  -1  -4  -1  469.80   31.47
   1   4   1  518.02   43.59
  -2  -4  -1   13.34    1.08
  -2  -4  -1   12.00    0.84
   2   4   1   14.37    1.38
  -3  -4  -1   16.10    1.37
  -3  -4  -1   15.17    1.46
   3   4   1   16.46    1.73
   3   4   1   17.85    1.48
   3   4   1   14.96    1.90
   3   4   1   19.79    1.61
  -4  -4  -1  170.77   13.67
  -4  -4  -1  185.04   11.98
  -4  -4  -1  158.73   14.14
   4   4   1  151.80   17.22
   4   4   1  159.76   16.69
   4   4   1  179.15   14.16
   4   4   1  188.33   15.16
  -5  -4  -1  214.19   14.80
  -5  -4  -1  227.99   16.51
  -5  -4  -1  204.55   16.91
  -5  -4  -1  192.84   17.49
   5   4   1  236.98   18.75
   5   4   1  202.83   21.31
   5   4   1  207.07   17.52
   5   4   1  200.06   20.65
  -6  -4  -1   19.38    1.35
  -6  -4  -1   18.69    1.60
   6   4   1   19.79    1.84
   6   4   1   17.64    1.87
   6   4   1   18.31    1.43
  -8  -4  -1   12.86    1.13
  -8  -4  -1   16.52    1.27
  -8  -4  -1   16.12    1.07
   8   4   1   18.80    2.64
   8   4   1   15.46    1.75
   8   4   1   11.93    1.19
  -9  -4  -1    5.35    0.33
  -9  -4  -1    5.39    0.40
  -9  -4  -1    6.11    0.51
  -9  -4  -1    5.75    0.42
   9   4   1    5.28    0.60
 -10  -4  -1    6.61    0.56
 -10  -4  -1    7.51    0.46
 -10  -4  -1    6.19    0.50
  10   4   1    5.26    0.61
 -11  -4  -1    2.71    0.28
 -11  -4  -1    2.32    0.18
 -11   5   1    8.13    0.54
 -11   5   1    8.06    0.57
 -10   5   1    0.63    0.09
 -10   5   1    0.72    0.13
  -9   5   1   20.67    1.48
  -9   5   1   21.57    1.40
  -8   5   1   20.75    1.35
  -8   5   1   20.65    1.45
  -8   5   1   19.48    1.76
   7  -5  -1    0.33    0.20
  -7   5   1    0.45    0.08
  -7   5   1    0.82    0.13
  -6   5   1    8.60    0.64
  -6   5   1    8.98    0.78
  -5   5   1   56.95    4.01
   4  -5  -1   38.60    2.59
  -4   5   1   40.44    2.86
  -4   5   1   41.01    4.12
  -4   5   1   41.80    2.90
   3  -5  -1    6.72    0.54
   3  -5  -1    5.76    0.40
  -3   5   1    6.01    0.46
   2  -5  -1   23.05    1.89
   1  -5  -1    7.74    0.69
  -1   5   1    8.46    0.84
   0  -5  -1    2.89    0.26
   0  -5  -1    2.52    0.25
   0   5   1    2.40    0.41
  -1  -5  -1    0.14    0.06
   1   5   1    0.05    0.23
   1   5   1   -0.64    0.60
  -2  -5  -1    1.05    0.14
  -2  -5  -1    0.90    0.07
   2   5   1    1.25    0.33
   2   5   1    0.60    0.34
  -4  -5  -1    2.95    0.26
  -4  -5  -1    3.00    0.32
   4   5   1    3.01    0.57
  -6  -5  -1   34.85    2.38
  -6  -5  -1   36.73    2.78
   6   5   1   31.74    2.47
   6   5   1   32.95    3.20
   6   5   1   30.26    3.01
  -7  -5  -1    0.41    0.09
  -7  -5  -1    0.60    0.21
   7   5   1    0.29    0.41
   7   5   1    0.66    0.56
   7   5   1    0.28    0.27
  -8  -5  -1    1.41    0.15
  -8  -5  -1    1.17    0.21
   8   5   1    2.26    0.72
   8   5   1    1.10    0.35
  -9  -5  -1    0.49    0.08
  -9  -5  -1    0.48    0.06
  -9  -5  -1    0.87    0.18
   9   5   1    2.33    0.70
 -10  -5  -1    6.17    0.53
 -10   6   1   26.18    1.72
  -9   6   1    0.66    0.10
  -7   6   1   16.07    1.16
  -6   6   1   31.09    2.21
  -5   6   1    6.25    0.47
   4  -6  -1    0.14    0.03
  -4   6   1    0.12    0.06
  -4   6   1    0.13    0.08
   3  -6  -1    1.36    0.11
   3  -6  -1    1.81    0.18
  -3   6   1    1.51    0.16
  -3   6   1    1.34    0.14
   2  -6  -1    1.29    0.17
  -2   6   1    1.39    0.15
   1  -6  -1   15.69    1.24
  -1   6   1   13.95    1.08
   0  -6  -1   50.89    4.60
   0  -6  -1   60.08    4.66
   0   6   1   60.92    4.10
  -1  -6  -1  130.43   10.81
  -1  -6  -1  143.59    8.60
   1   6   1  133.36    9.61
   1   6   1  131.91   12.01
  -2  -6  -1    6.66    0.48
  -2  -6  -1    7.82    0.64
   2   6   1    7.47    0.56
   2   6   1    8.72    0.94
  -3  -6  -1    6.87    0.67
  -3  -6  -1    8.61    0.61
   3   6   1    8.52    0.96
   3   6   1    7.50    0.58
  -4  -6  -1   22.81    2.12
  -4  -6  -1   28.96    1.85
   4   6   1   25.23    2.50
  -6  -6  -1   25.80    2.11
  -6  -6  -1   24.27    1.79
   6   6   1   21.79    2.48
   6   6   1   27.86    2.36
  -7  -6  -1    5.31    0.43
   7   6   1    6.57    0.91
  -8  -6  -1   17.45    1.24
  -8  -6  -1   16.75    1.30
  -8  -6  -1   17.25    0.98
  -9  -6  -1   21.18    1.20
  -9  -6  -1   21.40    1.51
  -9  -6  -1   22.64    1.59
   9   6   1   18.27    2.17
 -10  -6  -1    0.15    0.14
 -11  -6  -1    4.90    0.41
  -5   7   1    7.08    0.51
  -5   7   1    6.37    0.52
   4  -7  -1    1.52    0.13
  -4   7   1    1.85    0.17
  -4   7   1    1.65    0.16
   3  -7  -1   86.94    5.67
  -3   7   1   80.28    6.25
  -3   7   1   99.25    6.35
   2  -7  -1   79.15    6.03
   2  -7  -1   76.76    4.74
  -2   7   1   66.07    5.22
  -2   7   1   74.93    5.30
   1  -7  -1    4.26    0.28
  -1   7   1    4.11    0.34
   0  -7  -1  209.35   17.15
   0  -7  -1  212.43   13.58
   0   7   1  215.94   15.15
  -1  -7  -1    4.31    0.43
  -1  -7  -1    4.50    0.31
  -1  -7  -1    5.26    0.47
   1   7   1    4.88    0.37
  -2  -7  -1    1.18    0.19
  -2  -7  -1    1.14    0.09
  -2  -7  -1    1.49    0.23
   2   7   1    1.54    0.48
   2   7   1    1.31    0.16
  -3  -7  -1   28.42    1.85
  -3  -7  -1   23.51    2.09
   3   7   1   24.85    2.50
   3   7   1   26.68    2.44
   3   7   1   24.01    1.84
  -4  -7  -1   21.08    1.45
  -4  -7  -1   19.75    1.67
   4   7   1   18.51    2.03
  -5  -7  -1   12.77    1.20
  -5  -7  -1   15.00    1.03
  -6  -7  -1   97.05    7.01
  -6  -7  -1   84.29    6.08
   6   7   1   75.34    7.89
   6   7   1   87.18    7.48
  -7  -7  -1   31.42    2.36
  -7  -7  -1   30.74    2.42
   7   7   1   37.66    3.44
  -8  -7  -1    1.82    0.19
  -8  -7  -1    2.03    0.14
  -8  -7  -1    2.27    0.25
   8   7   1    2.87    0.83
   8   7   1    2.80    0.56
   9   7   1   10.25    1.56
 -10  -7  -1   13.66    1.13
  10   7   1   17.55    2.28
 -11  -7  -1    3.63    0.31
  -5   8   1    3.46    0.29
   4  -8  -1   61.24    3.93
  -4   8   1   61.55    4.40
   3  -8  -1    6.29    0.43
  -3   8   1    6.66    0.49
  -3   8   1    6.25    0.48
   2  -8  -1   20.98    1.32
  -2   8   1   20.41    1.49
  -2   8   1   19.89    1.46
   1  -8  -1   16.66    1.12
  -1   8   1   17.94    1.23
  -1  -8  -1   20.95    1.40
  -1  -8  -1   23.79    1.64
  -1  -8  -1   21.70    1.79
   1   8   1   21.21    1.58
   1   8   1   21.54    2.16
  -4  -8  -1    2.11    0.28
  -4  -8  -1    1.98    0.21
   4   8   1    2.93    0.74
   4   8   1    0.64    0.52
   4   8   1    3.46    0.67
  -5  -8  -1   26.35    1.69
  -5  -8  -1   22.43    1.96
   5   8   1   22.54    2.20
   5   8   1   20.37    2.32
  -6  -8  -1   19.24    1.37
   6   8   1   17.79    1.94
   6   8   1   19.43    2.03
  -7  -8  -1   84.26    5.60
  -7  -8  -1   81.85    5.72
   7   8   1   73.30    8.02
   7   8   1   89.35    7.24
   7   8   1   68.16    6.93
  -8  -8  -1   26.33    1.84
  -8  -8  -1   25.01    1.77
   8   8   1   22.70    2.62
  10   8   1   24.95    3.36
  -5   9   1    0.50    0.11
   4  -9  -1    4.29    0.29
  -4   9   1    3.74    0.33
   3  -9  -1    2.17    0.17
  -3   9   1    2.12    0.20
   2  -9  -1    1.78    0.14
  -2   9   1    1.76    0.19
   1  -9  -1   50.64    3.94
   1  -9  -1   60.08    3.52
   1  -9  -1   52.21    3.94
  -1   9   1   57.19    3.95
   0  -9  -1    2.87    0.20
   0  -9  -1    2.48    0.21
   0   9   1    2.99    0.26
  -1  -9  -1    1.12    0.09
  -1  -9  -1    0.93    0.09
   1   9   1    1.39    0.17
  -2  -9  -1   18.42    1.47
  -2  -9  -1   15.64    1.27
  -2  -9  -1   19.00    1.33
   2   9   1   17.39    1.85
   2   9   1   17.80    1.29
  -3  -9  -1   45.45    3.00
  -3  -9  -1   41.08    3.40
   3   9   1   42.39    3.01
   3   9   1   36.91    3.95
  -4  -9  -1   18.04    1.50
  -4  -9  -1   17.88    1.29
   4   9   1   15.96    1.91
  -5  -9  -1    0.70    0.13
  -5  -9  -1    0.69    0.21
   5   9   1    1.75    0.69
   5   9   1    0.09    0.69
  -7  -9  -1    0.02    0.05
  -7  -9  -1    0.05    0.11
   7   9   1    0.78    0.52
   7   9   1   -0.40    0.81
   8   9   1   12.34    2.12
   8   9   1    9.63    1.71
   8   9   1   13.09    1.49
   9   9   1    6.38    1.47
   9   9   1    4.93    0.87
 -10  -9  -1    5.72    0.46
  -5  10   1   69.35    4.97
   4 -10  -1    1.09    0.11
  -4  10   1    0.86    0.14
   3 -10  -1    9.77    0.62
  -3  10   1    8.69    0.70
   2 -10  -1    8.85    0.56
   2 -10  -1    8.28    0.61
   2 -10  -1    7.89    0.61
  -2  10   1    8.31    0.64
   1 -10  -1    0.17    0.04
   1 -10  -1    0.11    0.05
  -1  10   1    0.18    0.10
   0 -10  -1    1.84    0.16
   0 -10  -1    2.48    0.18
   0  10   1    2.11    0.22
  -1 -10  -1   20.97    1.40
  -1 -10  -1   21.34    1.56
  -1 -10  -1   23.76    1.63
   1  10   1   22.54    1.58
   1  10   1   18.83    2.16
  -2 -10  -1  120.41    7.47
  -2 -10  -1  100.20    7.54
   2  10   1   91.16    9.51
   2  10   1  108.46    7.53
  -3 -10  -1    6.10    0.50
   3  10   1    5.84    0.48
   3  10   1    5.02    0.97
  -4 -10  -1   15.21    1.24
  -4 -10  -1   14.52    1.05
   4  10   1   10.66    1.66
  -5 -10  -1   50.52    3.65
  -5 -10  -1   52.73    3.16
   5  10   1   50.53    5.29
  -6 -10  -1   13.79    1.11
  -6 -10  -1   15.73    0.93
  -6 -10  -1   14.62    1.08
  -7 -10  -1   11.85    0.69
  -7 -10  -1   10.43    0.81
  -7 -10  -1   10.47    0.84
   8  10   1    4.52    0.84
  -5  11   1    2.52    0.20
  -5  11   1    2.92    0.25
  -4  11   1    0.76    0.12
  -4  11   1    0.87    0.11
   3 -11  -1    2.42    0.18
   3 -11  -1    2.09    0.18
  -3  11   1    1.77    0.21
   2 -11  -1   31.82    2.43
   2 -11  -1   36.54    2.19
  -2  11   1   32.95    2.44
   1 -11  -1   54.71    4.12
   1 -11  -1   61.89    3.69
  -1  11   1   55.61    4.13
   0 -11  -1    3.50    0.26
   0 -11  -1    3.49    0.27
   0  11   1    3.50    0.32
  -1 -11  -1    0.53    0.07
  -1 -11  -1    0.55    0.07
   1  11   1    0.56    0.14
  -2 -11  -1    0.57    0.07
   2  11   1    0.91    0.56
  -3 -11  -1    4.65    0.40
   3  11   1    3.90    0.38
   3  11   1    5.05    0.86
  -5 -11  -1   33.68    2.61
  -5 -11  -1   38.73    2.26
   5  11   1   37.18    3.83
  -7 -11  -1   13.23    0.77
  -7 -11  -1   11.57    0.93
   7  11   1   11.58    1.46
  -8 -11  -1    4.44    0.38
   8  11   1    4.35    0.76
  -9 -11  -1    6.25    0.49
  -5  12   1   20.25    1.20
   4 -12  -1    6.01    0.41
  -4  12   1    5.23    0.44
  -4  12   1    5.02    0.44
  -4  12   1    5.60    0.37
   3 -12  -1   45.08    3.11
  -3  12   1   44.00    2.54
  -3  12   1   39.67    2.75
  -3  12   1   43.78    3.12
  -2  12   1    0.72    0.14
  -2  12   1    0.92    0.08
  -2  12   1    0.84    0.21
   1 -12  -1    2.16    0.18
  -1  12   1    2.08    0.24
  -1  12   1    2.56    0.40
  -1  12   1    2.20    0.29
   0 -12  -1   29.28    2.06
   0  12   1   29.20    2.09
   0  12   1   27.17    2.96
  -1 -12  -1    0.49    0.07
   1  12   1    0.62    0.41
   1  12   1    0.15    0.12
   1  12   1    0.26    0.18
   2  12   1    1.16    0.25
   2  12   1    1.98    0.22
  -3 -12  -1    6.84    0.41
   3  12   1    7.08    1.02
   3  12   1    5.35    0.51
  -6 -12  -1   30.70    1.87
   6  12   1   29.59    3.17
  -7 -12  -1    6.26    0.39
   7  12   1    5.82    0.90
   8  12   1    1.75    0.46
  -6  13   1    1.27    0.12
  -5  13   1    4.10    0.27
   4 -13  -1    3.02    0.23
  -4  13   1    2.69    0.30
  -4  13   1    3.12    0.22
   3 -13  -1    7.06    0.49
  -3  13   1    6.32    0.43
  -3  13   1    6.59    0.52
  -3  13   1    6.30    0.52
   2 -13  -1    0.19    0.05
  -2  13   1    0.13    0.05
  -2  13   1    0.20    0.09
  -2  13   1    0.13    0.17
  -2  13   1    0.18    0.10
   1 -13  -1   30.10    2.07
  -1  13   1   27.67    1.70
  -1  13   1   29.27    1.59
  -1  13   1   26.60    2.95
  -1  13   1   27.84    2.09
  -1  13   1   30.41    1.87
   0 -13  -1    4.26    0.32
   0 -13  -1    5.08    0.37
   0  13   1    5.03    0.30
   0  13   1    4.78    0.76
   0  13   1    5.00    0.44
   0  13   1    5.07    0.42
   0  13   1    5.03    0.34
  -1 -13  -1    6.66    0.45
  -1 -13  -1    6.62    0.51
   1  13   1    7.01    0.55
   1  13   1    7.14    0.56
   1  13   1    7.07    0.41
   1  13   1    7.38    0.95
  -2 -13  -1   15.66    1.00
   2  13   1   15.43    1.20
   2  13   1   15.58    1.78
   2  13   1   17.29    1.10
   2  13   1   16.14    0.91
  -3 -13  -1    4.27    0.29
   3  13   1    4.55    0.80
  -4 -13  -1   37.77    2.28
   4  13   1   35.86    3.83
  -5 -13  -1    2.03    0.16
   5  13   1    2.95    0.56
  -6 -13  -1   14.21    0.85
   6  13   1   12.56    1.55
  -7 -13  -1    0.50    0.06
   7  13   1    0.71    0.40
  -6  14   1    0.56    0.07
  -5  14   1    1.20    0.12
   4 -14  -1    7.55    0.54
  -4  14   1    6.82    0.53
  -4  14   1    7.63    0.46
   3 -14  -1    1.46    0.13
  -3  14   1    1.52    0.14
  -3  14   1    1.60    0.22
   2 -14  -1   20.80    1.46
  -2  14   1   18.72    1.20
  -2  14   1   20.98    1.33
   1 -14  -1    3.08    0.23
   1 -14  -1    3.53    0.26
  -1  14   1    3.53    0.21
  -1  14   1    3.42    0.25
  -1  14   1    3.83    0.35
   0 -14  -1   27.47    2.05
   0 -14  -1   26.43    1.76
   0  14   1   29.50    1.58
   0  14   1   28.48    1.68
   0  14   1   30.61    1.85
  -1 -14  -1   26.27    1.73
   1  14   1   28.96    2.91
   1  14   1   29.39    1.83
   1  14   1   27.88    1.56
  -3 -14  -1   12.45    0.78
   3  14   1   12.37    1.40
   5  14   1    0.67    0.40
  -6 -14  -1    6.26    0.39
   6  14   1    5.63    0.81
  -5  15   1    2.80    0.19
  -4  15   1    6.98    0.52
  -4  15   1    7.88    0.46
  -3  15   1    0.79    0.17
  -3  15   1    1.00    0.11
   2 -15  -1    1.11    0.10
  -2  15   1    1.04    0.19
  -2  15   1    1.27    0.13
   1 -15  -1   43.86    2.87
   1 -15  -1   45.41    3.35
  -1  15   1   45.27    2.73
  -1  15   1   49.42    2.96
  -1  15   1   49.36    2.57
   0 -15  -1    0.06    0.04
   0 -15  -1    0.17    0.04
   0  15   1    0.10    0.25
   0  15   1    0.10    0.05
   0  15   1    0.02    0.15
   0  15   1    0.16    0.07
  -2 -15  -1   34.97    2.14
   2  15   1   34.11    1.93
   2  15   1   34.99    3.55
  -3 -15  -1    0.05    0.04
   3  15   1    0.01    0.06
  -4 -15  -1   43.79    2.74
   4  15   1   45.48    4.54
  -4  16   1    0.28    0.06
  -3  16   1    2.59    0.18
  -3  16   1    2.23    0.22
  -2  16   1   61.11    3.92
  -2  16   1   63.69    3.64
  -1  16   1   12.87    0.85
  -1  16   1   12.44    0.76
   0 -16  -1   12.08    0.86
   0  16   1   14.78    0.93
   0  16   1   14.83    0.77
   0  16   1   13.90    0.83
  -1 -16  -1    1.31    0.10
   3  16   1    0.53    0.07
   3  16   1    0.70    0.23
  -4 -16  -1    0.87    0.08
   4  16   1    1.29    0.27
   4  16   1    0.81    0.09
  -2  17   1   -0.01    0.05
  -1  17   1    2.15    0.16
   0 -17  -1    0.61    0.05
  -1 -17  -1    0.04    0.03
  -1 -17  -1    0.05    0.03
   2  17   1    9.56    0.54
  -2  17  -2    1.99    0.14
   3  16  -2    4.41    0.28
  -3 -16   2    4.92    0.30
  -2 -16   2    0.19    0.04
   1  16  -2   11.80    0.65
  -1 -16   2   11.37    0.72
   0  16  -2    1.90    0.12
   0  16  -2    1.87    0.23
   0 -16   2    1.75    0.13
  -1  16  -2    7.38    0.48
  -1  16  -2    8.45    0.57
   1 -16   2    7.56    0.49
  -2  16  -2    5.06    0.38
  -2  16  -2    4.93    0.30
   2 -16   2    4.06    0.29
  -3  16  -2    7.52    0.49
  -3  16  -2    7.17    0.41
   3 -16   2    5.68    0.41
  -4  16  -2    2.53    0.17
  -4  16  -2    2.40    0.23
   2  15  -2   11.20    0.66
  -2 -15   2   11.69    0.72
   1  15  -2    1.01    0.34
   1  15  -2    0.83    0.10
  -1 -15   2    1.09    0.10
   0  15  -2    3.08    0.33
   0  15  -2    3.16    0.19
   0  15  -2    2.80    0.22
   0 -15   2    3.06    0.21
  -1  15  -2    0.30    0.18
  -1  15  -2    0.30    0.05
  -1  15  -2    0.21    0.08
   1 -15   2    0.29    0.05
   1 -15   2    0.19    0.05
  -2  15  -2   29.45    1.71
  -2  15  -2   31.84    1.88
   2 -15   2   26.50    1.78
   2 -15   2   28.33    2.08
  -3  15  -2    3.79    0.34
  -3  15  -2    3.66    0.25
  -4  15  -2    1.83    0.22
  -4  15  -2    1.67    0.14
  -5  15  -2   25.35    1.40
  -5  15  -2   21.99    1.51
   5  14  -2    2.40    0.54
  -5 -14   2    2.11    0.15
   4  14  -2   21.77    2.37
  -4 -14   2   22.15    1.36
   3  14  -2   12.66    1.35
  -3 -14   2   10.02    0.68
   2  14  -2    2.67    0.20
   2  14  -2    3.98    0.72
  -2 -14   2    2.78    0.20
   1  14  -2    5.76    0.90
   1  14  -2    6.25    0.39
  -1 -14   2    6.92    0.42
   0  14  -2    1.23    0.11
   0  14  -2    1.39    0.25
   0  14  -2    1.21    0.14
   0 -14   2    1.07    0.11
   0 -14   2    1.05    0.11
  -1  14  -2    1.12    0.23
  -1  14  -2    1.02    0.09
  -1  14  -2    0.86    0.12
   1 -14   2    0.86    0.09
  -2  14  -2   10.23    0.56
  -2  14  -2    9.63    0.62
  -2  14  -2    9.78    0.73
   2 -14   2   10.05    0.73
  -3  14  -2    8.72    0.64
  -3  14  -2    8.30    0.54
   3 -14   2    8.83    0.63
  -4  14  -2   13.97    0.81
  -4  14  -2   13.05    0.90
   4 -14   2   12.90    0.96
  -5  14  -2    2.04    0.15
  -5  14  -2    1.69    0.22
  -6  14  -2    1.73    0.13
  -6  14  -2    1.51    0.18
   6  13  -2    1.63    0.56
  -6 -13   2    1.57    0.17
   5  13  -2    8.27    1.20
  -5 -13   2    8.38    0.67
  -5 -13   2    9.21    0.55
   4  13  -2   11.46    1.51
  -4 -13   2   12.69    0.77
   3  13  -2    8.90    1.33
  -3 -13   2   10.18    0.62
   2  13  -2   18.43    2.28
   2  13  -2   19.52    1.53
  -2 -13   2   22.93    1.28
   1  13  -2    6.60    1.09
   1  13  -2    8.15    0.47
   1  13  -2    7.14    0.63
  -1 -13   2    8.42    0.51
   0  13  -2    8.61    0.55
   0  13  -2    9.19    0.68
   0  13  -2    8.61    0.51
   0  13  -2    8.23    0.69
   0 -13   2    8.96    0.64
  -1  13  -2   34.80    2.61
  -1  13  -2   36.36    1.99
  -1  13  -2   35.16    2.12
  -1  13  -2   36.15    2.33
   1 -13   2   37.09    2.59
  -2  13  -2    0.46    0.10
  -2  13  -2    0.65    0.21
   2 -13   2    0.64    0.08
  -3  13  -2    0.19    0.17
  -3  13  -2    0.09    0.10
  -3  13  -2    0.40    0.09
   3 -13   2    0.14    0.05
  -4  13  -2    7.93    0.49
  -4  13  -2    7.84    0.58
   4 -13   2    7.53    0.57
  -5  13  -2    0.08    0.07
  -5  13  -2    0.12    0.14
   5 -13   2    0.17    0.04
  -6  13  -2    0.06    0.12
  -6  13  -2    0.10    0.06
   7  12  -2    0.61    0.52
  -7 -12   2    0.61    0.11
   6  12  -2    1.82    0.66
  -6 -12   2    1.18    0.16
   5  12  -2    0.22    0.62
  -5 -12   2    0.05    0.09
  -5 -12   2    0.07    0.04
  -4 -12   2    4.37    0.28
  -4 -12   2    3.90    0.35
   3  12  -2    0.73    0.63
   3  12  -2    0.52    0.17
  -3 -12   2    0.90    0.09
   2  12  -2    0.94    0.18
   2  12  -2    1.07    0.60
  -2 -12   2    0.97    0.10
   1  12  -2   47.75    4.99
   1  12  -2   47.73    3.50
   1  12  -2   49.96    2.69
  -1 -12   2   48.01    3.48
   0  12  -2    2.04    0.25
   0  12  -2    2.23    0.30
   0  12  -2    1.98    0.16
   0 -12   2    2.10    0.17
  -1  12  -2    3.35    0.38
  -1  12  -2    3.42    0.33
  -1  12  -2    3.36    0.23
   1 -12   2    3.63    0.28
  -2  12  -2   24.70    1.71
  -2  12  -2   24.32    1.35
  -2  12  -2   23.25    1.61
  -2  12  -2   23.23    1.78
  -2  12  -2   23.67    1.45
   2 -12   2   25.28    1.76
   2 -12   2   25.63    1.76
  -3  12  -2    6.03    0.39
  -3  12  -2    5.83    0.68
  -3  12  -2    5.93    0.47
  -3  12  -2    5.88    0.49
  -3  12  -2    5.74    0.33
   3 -12   2    5.59    0.43
  -4  12  -2   22.66    1.65
  -4  12  -2   26.27    1.44
  -4  12  -2   24.34    1.58
   4 -12   2   22.78    1.74
  -5  12  -2    0.28    0.16
  -5  12  -2    0.19    0.08
  -6  12  -2    1.90    0.15
   8  11  -2    0.36    0.48
  -8 -11   2    0.16    0.09
   7  11  -2    5.21    0.91
  -7 -11   2    4.46    0.39
   5  11  -2    5.40    1.08
  -5 -11   2    4.70    0.40
   3  11  -2   48.90    3.68
   3  11  -2   51.94    5.27
  -3 -11   2   54.62    3.13
  -3 -11   2   48.06    3.67
   2  11  -2    2.76    0.71
   2  11  -2    3.18    0.31
   2  11  -2    3.01    0.31
  -2 -11   2    3.27    0.22
   1  11  -2    0.89    0.17
  -1 -11   2    0.81    0.09
  -1 -11   2    1.02    0.22
   0  11  -2   81.33    5.62
   0 -11   2   78.91    5.61
   0 -11   2   74.35    6.34
  -1  11  -2   33.52    2.61
   1 -11   2   37.02    2.60
   1 -11   2   37.37    2.60
  -2  11  -2    0.13    0.11
   2 -11   2    0.06    0.04
  -3  11  -2   11.00    0.82
   3 -11   2   10.57    0.79
  -4  11  -2   10.61    0.91
  -4  11  -2   11.49    0.87
  -4  11  -2   12.32    0.82
  -5  11  -2    8.51    0.64
  -5  11  -2    8.86    0.55
  -9 -10   2    0.18    0.09
   8  10  -2    5.43    1.03
  -8 -10   2    6.06    0.48
   7  10  -2    4.34    0.85
  -7 -10   2    4.05    0.36
  -6 -10   2   10.23    0.79
   4  10  -2   20.76    1.58
   4  10  -2   22.09    2.46
   4  10  -2   22.85    2.40
  -4 -10   2   21.23    1.32
  -4 -10   2   21.72    1.51
  -4 -10   2   19.97    1.56
   3  10  -2    5.97    0.55
   3  10  -2    7.67    1.49
  -3 -10   2    7.56    0.66
   2  10  -2   27.09    2.08
   2  10  -2   28.77    3.07
  -2 -10   2   29.85    2.38
   1  10  -2    0.48    0.13
  -1 -10   2    0.06    0.04
  -1 -10   2    0.11    0.14
   0  10  -2   10.95    0.77
   0 -10   2    9.68    0.73
   0 -10   2   10.03    0.74
   0 -10   2    9.34    0.89
  -1  10  -2    1.08    0.16
   1 -10   2    1.04    0.21
   1 -10   2    0.95    0.10
  -2  10  -2    3.88    0.32
   2 -10   2    3.48    0.28
  -3  10  -2   23.20    1.67
   3 -10   2   22.64    1.65
  -4  10  -2    1.96    0.20
  -5  10  -2    1.14    0.19
   9   9  -2    7.61    1.06
  -9  -9   2    7.84    0.60
  -8  -9   2    4.26    0.37
  -7  -9   2    6.03    0.50
   5   9  -2   15.72    1.78
  -5  -9   2   11.76    0.94
   4   9  -2    9.46    1.44
   4   9  -2    7.13    0.62
  -4  -9   2    8.13    0.73
   3   9  -2    1.09    0.89
   2   9  -2    3.32    0.31
  -2  -9   2    3.56    0.38
   1   9  -2    0.56    0.13
  -1  -9   2    0.46    0.06
  -1  -9   2    0.42    0.06
  -1  -9   2    0.88    0.18
   0   9  -2    7.90    1.10
   0   9  -2    6.54    0.46
   0  -9   2    4.97    0.41
   0  -9   2    5.11    0.53
  -1   9  -2    4.81    0.38
   1  -9   2    4.18    0.34
   1  -9   2    5.24    0.46
  -2   9  -2    0.68    0.13
   2  -9   2    1.11    0.09
   2  -9   2    0.77    0.18
  -3   9  -2    1.28    0.16
  -4   9  -2   10.63    0.80
  -9  -8   2    4.88    0.41
   8   8  -2    8.54    1.12
  -8  -8   2    7.93    0.64
   7   8  -2   56.72    6.76
  -7  -8   2   71.39    4.80
  -7  -8   2   66.74    4.68
  -7  -8   2   70.10    3.74
   6   8  -2   22.57    2.44
  -6  -8   2   22.90    1.60
  -6  -8   2   22.46    1.27
  -6  -8   2   21.36    1.64
   4   8  -2    1.20    0.74
   3   8  -2   28.29    2.09
   3   8  -2   25.08    2.82
   3   8  -2   30.42    2.85
  -3  -8   2   30.55    2.38
   2   8  -2   77.61    6.75
   2   8  -2   70.25    5.30
  -2  -8   2   74.70    5.99
  -1  -8   2   16.09    1.29
  -1  -8   2   14.93    1.10
  -1  -8   2   14.62    1.10
   0   8  -2   10.24    0.77
  -1   8  -2   83.14    5.95
   1  -8   2   83.03    6.71
   2  -8   2    0.11    0.13
  -3   8  -2   17.22    1.26
  -4   8  -2   18.47    1.35
 -10  -7   2    1.25    0.16
   9   7  -2    0.86    0.42
  -9  -7   2    0.36    0.13
   8   7  -2    0.26    0.78
   7   7  -2   -0.25    0.67
   7   7  -2   -0.36    0.80
   5   7  -2    0.04    0.56
   5   7  -2    0.35    0.13
   5   7  -2    0.20    0.51
  -5  -7   2    0.48    0.18
   4   7  -2   22.70    2.49
   4   7  -2   26.34    2.47
   4   7  -2   24.88    1.83
  -4  -7   2   25.69    1.78
  -4  -7   2   25.03    2.08
   3   7  -2    9.88    1.23
   3   7  -2    8.69    1.16
   3   7  -2    9.58    0.76
  -3  -7   2   10.13    0.88
  -3  -7   2   10.82    0.73
   2   7  -2   14.53    1.51
   2   7  -2   12.89    1.03
   2   7  -2   15.31    1.62
  -2  -7   2   14.09    1.19
   1   7  -2   35.33    3.14
   1   7  -2   31.91    2.34
   1   7  -2   29.12    3.05
  -1  -7   2   33.61    2.65
  -1  -7   2   32.17    2.67
   0   7  -2    3.01    0.23
   0  -7   2    2.36    0.27
   0  -7   2    2.08    0.28
  -1   7  -2    2.68    0.23
   1  -7   2    2.35    0.26
   1  -7   2    2.16    0.27
  -4   7  -2    4.11    0.70
   4  -7   2    3.62    0.40
  10   6  -2   23.26    2.52
  10   6  -2   24.93    3.21
   8   6  -2   10.21    1.42
   8   6  -2    9.86    1.48
  -8  -6   2   11.53    0.85
  -8  -6   2   11.73    0.90
  -8  -6   2   13.14    0.68
   7   6  -2   12.98    1.61
   7   6  -2   14.96    1.66
   7   6  -2   10.31    1.81
  -7  -6   2   13.50    0.76
  -7  -6   2   12.81    1.01
  -7  -6   2   13.73    0.96
   6   6  -2    3.85    0.81
   6   6  -2    2.92    0.79
  -6  -6   2    3.47    0.28
  -6  -6   2    3.83    0.43
   5   6  -2   10.80    1.24
   5   6  -2   11.02    0.80
   5   6  -2   10.28    1.28
  -5  -6   2   10.28    0.94
  -5  -6   2    9.86    0.76
   4   6  -2    7.36    0.57
   4   6  -2    6.75    0.93
   3   6  -2  142.22   12.54
   3   6  -2  131.91   12.70
   3   6  -2  143.92   10.16
  -3  -6   2  145.73   10.00
  -3  -6   2  147.15   11.43
   2   6  -2   23.51    2.37
   2   6  -2   25.33    1.81
   2   6  -2   24.97    2.40
  -2  -6   2   25.58    2.05
   1   6  -2   13.28    0.98
   1   6  -2   11.87    1.36
   1   6  -2   14.39    1.54
  -1  -6   2   13.98    1.13
  -1  -6   2   13.39    1.13
   0   6  -2   38.24    3.56
   0   6  -2   41.82    3.50
   0   6  -2   43.11    2.74
   0  -6   2   34.16    3.09
   0  -6   2   33.41    3.10
  -1   6  -2   40.47    3.65
  -1   6  -2   39.71    2.89
   1  -6   2   37.69    3.26
   1  -6   2   43.13    3.28
  -2   6  -2    9.02    1.01
  -3   6  -2  326.12   26.26
  -3   6  -2  335.57   23.26
   3  -6   2  317.40   26.12
  -4   6  -2   92.25    7.45
   4  -6   2   89.15    7.32
  -5   6  -2    2.75    0.55
   5  -6   2    1.67    0.30
 -10  -5   2   25.21    1.95
 -10  -5   2   28.06    1.51
   9   5  -2    1.61    0.75
   8   5  -2   35.87    4.21
   8   5  -2   37.19    3.78
  -8  -5   2   42.33    2.96
  -8  -5   2   40.51    2.87
  -8  -5   2   45.47    2.29
   7   5  -2   34.76    3.56
   7   5  -2   40.77    3.66
   7   5  -2   37.87    4.03
  -7  -5   2   38.75    2.79
  -7  -5   2   38.87    2.74
  -7  -5   2   40.37    2.82
   6   5  -2   47.05    4.90
   6   5  -2   49.44    5.01
  -6  -5   2   61.00    4.40
  -6  -5   2   54.16    3.78
   5   5  -2    2.47    0.87
  -5  -5   2    4.34    0.31
  -5  -5   2    3.44    0.41
   4   5  -2    1.03    0.37
   4   5  -2    1.10    0.64
   4   5  -2    1.14    0.16
  -4  -5   2    1.27    0.20
   3   5  -2   88.33    7.65
   3   5  -2   84.36    7.75
   3   5  -2   88.96    6.18
   3   5  -2   75.91    7.38
  -3  -5   2   92.23    6.08
  -3  -5   2   87.46    6.96
   2   5  -2    1.57    0.16
   2   5  -2    1.78    0.35
   2   5  -2    1.91    0.44
   2   5  -2    1.36    0.57
  -2  -5   2    1.82    0.22
   1   5  -2    6.26    0.87
   1   5  -2    5.28    0.73
   1   5  -2    5.75    0.67
   1   5  -2    5.78    0.43
  -1  -5   2    5.33    0.49
  -1  -5   2    5.55    0.50
   0   5  -2   12.31    1.34
   0  -5   2   13.15    1.02
   0  -5   2   11.35    1.02
  -1   5  -2   31.40    2.31
  -1   5  -2   25.62    2.47
   1  -5   2   28.47    2.20
   1  -5   2   22.49    2.19
  -2   5  -2    0.62    0.32
  -2   5  -2    0.26    0.33
  -3   5  -2   41.92    3.97
  -3   5  -2   50.92    4.03
  -3   5  -2   52.42    4.29
   3  -5   2   49.73    3.88
   3  -5   2   43.56    3.87
  -4   5  -2   24.04    2.26
  -4   5  -2   27.84    2.26
  -4   5  -2   27.40    2.45
   4  -5   2   24.41    2.12
  -5   5  -2   38.79    3.20
  -5   5  -2   35.05    3.15
  -6   5  -2    2.86    0.50
  -6   5  -2    2.87    0.54
 -10   5  -2    7.96    0.59
 -11   5  -2    1.00    0.14
   9   4  -2   10.23    1.61
   9   4  -2   10.85    1.27
  -9  -4   2   10.50    0.82
  -9  -4   2   10.34    0.61
   8   4  -2   28.55    3.21
   8   4  -2   34.31    3.26
   8   4  -2   31.83    2.60
   8   4  -2   30.90    3.57
  -8  -4   2   32.84    2.77
  -8  -4   2   35.03    2.41
  -8  -4   2   37.51    2.50
  -8  -4   2   38.94    1.93
   7   4  -2   33.90    3.22
   7   4  -2   32.84    3.60
   7   4  -2   39.21    2.62
  -7  -4   2   32.70    2.49
  -7  -4   2   32.12    2.79
  -7  -4   2   35.80    2.44
   6   4  -2   55.98    5.23
   6   4  -2   61.40    5.04
   6   4  -2   63.18    4.20
   6   4  -2   54.85    5.32
  -6  -4   2   59.61    4.68
  -6  -4   2   50.63    4.56
  -6  -4   2   55.16    4.04
   5   4  -2  131.78   10.41
   5   4  -2  109.55    9.86
   5   4  -2  117.69    8.26
  -5  -4   2  105.97    9.09
  -5  -4   2  111.58    8.12
  -5  -4   2  117.35    9.32
   4   4  -2   78.06    6.68
   4   4  -2   73.19    5.29
   4   4  -2   73.68    6.39
  -4  -4   2   74.28    5.84
  -4  -4   2   70.02    5.97
  -4  -4   2   74.65    5.20
   3   4  -2   57.65    4.16
   3   4  -2   63.75    5.24
   3   4  -2   55.48    5.04
  -3  -4   2   57.84    4.59
  -3  -4   2   55.74    4.69
   2   4  -2   42.98    3.64
   2   4  -2   38.97    3.60
   2   4  -2   38.23    3.56
  -2  -4   2   40.48    3.26
   1   4  -2    5.10    0.73
   1   4  -2    5.11    0.55
  -1  -4   2    4.84    0.43
  -1   4  -2   64.07    6.15
   1  -4   2   86.10    6.06
  -2   4  -2   10.82    1.19
  -2   4  -2   13.42    1.15
   2  -4   2   12.38    1.09
   2  -4   2   14.49    1.07
  -3   4  -2   23.45    2.27
  -3   4  -2   26.12    2.13
  -3   4  -2   25.13    2.11
   3  -4   2   23.51    2.00
   3  -4   2   24.89    2.49
  -4   4  -2    0.52    0.24
  -4   4  -2    0.58    0.41
  -4   4  -2    0.31    0.29
  -4   4  -2    0.07    0.11
   4  -4   2    0.20    0.06
   4  -4   2    0.20    0.39
  -5   4  -2  123.31    9.67
  -7   4  -2    0.87    0.38
  -7   4  -2    0.81    0.19
   7  -4   2    1.15    0.37
  -8   4  -2    9.12    0.81
  -9   4  -2   17.15    1.61
  -9   4  -2   20.99    1.30
  -9   4  -2   20.45    1.38
 -10   4  -2    4.59    0.39
 -10   4  -2    5.07    0.35
 -11   4  -2    2.43    0.18
 -11   4  -2    2.12    0.21
 -11  -3   2    2.57    0.15
 -11  -3   2    2.34    0.20
 -10  -3   2    7.75    0.53
 -10  -3   2    7.23    0.57
 -10  -3   2    7.43    0.62
 -10  -3   2    8.61    0.45
   9   3  -2   17.48    1.65
  -9  -3   2   19.53    1.47
  -9  -3   2   21.83    1.49
  -9  -3   2   22.52    1.19
  -9  -3   2   20.55    1.39
  -9  -3   2   22.57    1.57
   8   3  -2    1.49    0.54
   8   3  -2    0.91    0.39
   8   3  -2    1.26    0.73
  -8  -3   2    0.94    0.28
  -8  -3   2    0.88    0.11
  -8  -3   2    0.96    0.18
  -8  -3   2    0.95    0.09
  -8  -3   2    1.28    0.20
  -8  -3   2    0.82    0.12
   7   3  -2   25.92    2.80
   7   3  -2   30.34    2.00
   7   3  -2   21.57    2.59
  -7  -3   2   23.36    2.14
  -7  -3   2   28.99    2.21
  -7  -3   2   25.51    1.85
   6   3  -2    0.75    0.24
   6   3  -2    0.54    0.36
   6   3  -2    0.73    0.74
  -6  -3   2    0.83    0.21
  -6  -3   2    0.62    0.08
  -6  -3   2    1.05    0.25
   5   3  -2    7.29    0.99
   5   3  -2    6.16    1.00
   5   3  -2    5.85    0.49
   5   3  -2    7.33    0.76
   5   3  -2    5.82    0.45
  -5  -3   2    5.06    0.42
  -5  -3   2    5.15    0.56
  -5  -3   2    5.08    0.54
   4   3  -2   60.14    4.48
   4   3  -2   64.71    5.65
   4   3  -2   61.60    6.23
   4   3  -2   63.54    5.42
  -4  -3   2   60.74    4.41
  -4  -3   2   65.02    5.07
  -4  -3   2   62.90    4.96
   3   3  -2   50.47    4.11
   3   3  -2   47.97    3.98
   3   3  -2   43.43    3.26
  -3  -3   2   43.78    3.68
  -3  -3   2   42.80    3.60
   2   3  -2  117.26    9.23
   2   3  -2   97.52    8.73
  -2  -3   2   96.81    8.33
   1   3  -2    6.81    0.64
   1   3  -2    6.58    0.90
  -1  -3   2    6.28    0.54
  -1  -3   2    5.89    0.53
  -1   3  -2  247.93   23.37
   1  -3   2  335.27   23.37
  -2   3  -2  273.30   22.26
  -2   3  -2  294.66   22.93
   2  -3   2  265.03   27.05
   3  -3   2    1.34    0.31
  -4   3  -2   22.01    1.72
  -4   3  -2   21.29    2.06
  -4   3  -2   21.75    1.82
  -4   3  -2   21.83    1.90
   4  -3   2   20.30    2.23
  -5   3  -2   61.88    4.97
  -5   3  -2   61.87    4.62
  -5   3  -2   57.23    4.80
   5  -3   2   53.40    5.85
  -6   3  -2    0.00    0.13
  -6   3  -2    0.17    0.28
  -6   3  -2   -0.01    0.23
   6  -3   2    0.51    0.52
  -7   3  -2    0.14    0.27
  -7   3  -2    0.03    0.31
  -7   3  -2   -0.01    0.15
   7  -3   2    0.01    0.26
  -8   3  -2   35.63    2.88
  -8   3  -2   35.83    3.21
   8  -3   2   36.29    4.17
   8  -3   2   36.12    3.25
  -9   3  -2   77.47    4.95
  -9   3  -2   65.60    5.75
  -9   3  -2   74.75    4.73
 -10   3  -2   21.11    1.48
 -10   3  -2   21.00    1.40
 -11   3  -2    1.47    0.17
 -11   3  -2    1.37    0.13
 -12   3  -2    7.56    0.53
 -12   3  -2    7.45    0.50
 -11  -2   2    0.05    0.02
 -11  -2   2    0.00    0.04
 -11  -2   2    0.02    0.07
   9   2  -2    0.05    0.35
   9   2  -2    1.13    0.64
   9   2  -2    0.29    0.41
  -9  -2   2    0.10    0.11
  -9  -2   2   -0.01    0.04
  -9  -2   2    0.00    0.07
  -9  -2   2    0.08    0.13
  -9  -2   2    0.02    0.05
   8   2  -2    0.70    0.35
  -8  -2   2    0.74    0.12
  -8  -2   2    0.72    0.10
  -8  -2   2    0.71    0.17
  -8  -2   2    0.62    0.26
  -8  -2   2    1.25    0.20
   7   2  -2    0.13    0.35
   7   2  -2   -0.34    0.77
   7   2  -2    0.14    0.25
  -7  -2   2    0.13    0.06
  -7  -2   2    0.60    0.24
   6   2  -2   13.69    1.49
   6   2  -2   15.52    1.10
   6   2  -2   14.27    1.68
  -6  -2   2   13.52    1.25
  -6  -2   2   16.22    1.27
  -6  -2   2   13.68    1.03
  -6  -2   2   13.91    1.23
   4   2  -2    4.36    0.51
   4   2  -2    4.15    0.73
  -4  -2   2    3.78    0.29
  -4  -2   2    3.63    0.43
  -4  -2   2    4.01    0.39
   3   2  -2    6.32    0.84
   3   2  -2    7.43    0.64
  -3  -2   2    6.02    0.55
  -3  -2   2    5.67    0.69
  -3  -2   2    5.94    0.57
   2   2  -2  163.04   13.66
   2   2  -2  182.83   14.51
  -2  -2   2  146.69   13.14
   1   2  -2   29.34    2.53
  -1  -2   2   27.91    2.25
  -1  -2   2   26.70    2.25
   0  -2   2   92.39    8.70
   0  -2   2  125.14   10.62
  -1   2  -2  278.15   20.44
   1  -2   2  216.98   24.09
  -2   2  -2   22.21    1.86
  -2   2  -2   22.97    1.80
   2  -2   2   19.61    2.16
  -3   2  -2   89.98    6.81
  -3   2  -2   83.08    7.04
   3  -2   2   91.82    7.46
   3  -2   2   72.57    8.28
  -4   2  -2   22.14    1.72
   4  -2   2   19.62    1.93
   4  -2   2   23.02    2.25
  -5   2  -2    7.42    0.75
  -5   2  -2    7.86    0.85
  -5   2  -2    7.11    0.68
   5  -2   2    8.69    1.11
   5  -2   2    8.77    0.77
  -6   2  -2    3.12    0.25
  -6   2  -2    2.95    0.44
  -6   2  -2    3.82    0.38
  -6   2  -2    3.68    0.59
   6  -2   2    5.18    0.94
  -7   2  -2    1.57    0.37
  -7   2  -2    2.32    0.51
  -7   2  -2    2.00    0.29
   7  -2   2    2.57    0.48
  -8   2  -2    0.26    0.18
  -8   2  -2    0.13    0.37
  -8   2  -2    0.07    0.30
   8  -2   2    1.03    1.49
   8  -2   2    0.07    0.40
  -9   2  -2   13.13    1.19
  -9   2  -2   16.17    1.07
  -9   2  -2   14.18    1.26
  -9   2  -2   15.86    1.00
   9  -2   2   14.51    1.16
 -10   2  -2    0.34    0.25
  10  -2   2    0.24    0.26
 -11   2  -2    3.15    0.27
 -11   2  -2    2.96    0.24
 -12   2  -2    7.40    0.50
 -12   2  -2    7.45    0.53
 -11  -1   2    4.02    0.31
 -11  -1   2    3.74    0.27
 -11  -1   2    3.90    0.23
 -10  -1   2    9.76    0.55
 -10  -1   2    9.67    0.65
 -10  -1   2    9.21    0.70
   9   1  -2    1.07    0.37
   9   1  -2    0.94    0.48
   9   1  -2    1.12    0.71
  -9  -1   2    1.64    0.21
  -9  -1   2    1.42    0.13
  -9  -1   2    1.63    0.11
  -9  -1   2    1.36    0.16
   8   1  -2   20.11    1.60
  -8  -1   2   22.00    1.18
  -8  -1   2   18.79    1.46
  -8  -1   2   20.54    1.74
  -8  -1   2   21.54    1.48
   7   1  -2   14.36    1.10
   7   1  -2   12.13    1.50
   7   1  -2   15.38    1.78
  -7  -1   2   14.51    1.23
  -7  -1   2   14.62    1.02
  -6  -1   2    4.20    0.40
  -5  -1   2    4.59    0.51
   4   1  -2    4.09    0.67
   4   1  -2    4.10    0.45
  -4  -1   2    3.12    0.49
  -4  -1   2    3.82    0.38
  -4  -1   2    3.04    0.42
  -4  -1   2    3.58    0.27
   3   1  -2   13.17    1.14
   3   1  -2   12.54    1.22
  -3  -1   2   11.82    1.02
  -3  -1   2   11.37    1.29
   2   1  -2   34.05    2.90
   2   1  -2   38.03    2.98
  -2  -1   2   28.24    2.69
   1   1  -2  625.31   51.61
   0  -1   2    2.68    0.60
   1  -1   2   46.76    4.58
  -2   1  -2  445.55   34.30
   2  -1   2  386.00   40.51
  -3   1  -2    6.70    0.57
  -3   1  -2    5.55    0.65
   3  -1   2    6.20    0.58
   3  -1   2    6.32    0.83
  -4   1  -2   45.85    3.56
  -4   1  -2   42.14    3.66
  -4   1  -2   44.46    3.82
   4  -1   2   46.90    4.02
   4  -1   2   46.09    4.50
  -5   1  -2   57.37    4.40
  -5   1  -2   50.06    4.08
   5  -1   2   48.12    4.61
  -7   1  -2   20.82    1.54
  -7   1  -2   22.27    2.02
  -7   1  -2   18.66    1.87
  -7   1  -2   24.98    1.78
   7  -1   2   21.85    2.01
  -8   1  -2    7.81    0.97
  -8   1  -2    7.98    0.74
  -8   1  -2    8.16    0.59
  -8   1  -2    7.25    0.87
   8  -1   2    7.96    1.03
   8  -1   2    8.74    0.67
  -9   1  -2   20.76    1.53
  -9   1  -2   18.65    1.31
  -9   1  -2   21.04    1.40
   9  -1   2   18.10    2.02
 -10   1  -2    3.32    0.31
 -10   1  -2    3.47    0.43
 -11   1  -2    2.71    0.25
 -11   1  -2    2.46    0.21
 -11   1  -2    2.64    0.35
 -12   1  -2    0.36    0.09
 -12   1  -2    0.32    0.06
 -11   0   2    1.22    0.11
 -11   0   2    1.28    0.08
 -11   0   2    1.06    0.14
   9   0  -2   21.48    1.89
  -9   0   2   25.43    1.76
  -9   0   2   26.83    1.41
  -9   0   2   24.93    1.74
  -9   0   2   24.56    1.64
   8   0  -2    1.63    0.31
  -8   0   2    1.99    0.13
  -8   0   2    1.86    0.16
  -8   0   2    1.77    0.34
   7   0  -2   23.40    2.36
   7   0  -2   18.40    1.61
   7   0  -2   19.49    2.14
  -7   0   2   23.86    1.56
  -7   0   2   22.92    1.90
  -7   0   2   23.52    1.83
   6   0  -2  184.28   16.70
   6   0  -2  146.77   15.02
   6   0  -2  171.46   14.24
  -6   0   2  175.92   11.86
  -6   0   2  170.92   13.28
  -6   0   2  164.94   14.39
   5   0  -2   16.29    1.88
  -5   0   2   17.72    1.62
  -5   0   2   20.55    1.37
  -5   0   2   21.58    1.61
   4   0  -2    0.55    0.17
   4   0  -2    0.92    0.39
  -4   0   2    0.71    0.07
  -4   0   2    1.14    0.21
  -4   0   2    0.76    0.15
   3   0  -2   76.96    7.07
   3   0  -2   79.58    6.69
  -3   0   2   89.66    6.41
  -3   0   2   72.71    8.05
   2   0  -2  155.29   14.00
   2   0  -2  150.06   13.16
  -2   0   2  170.21   12.69
   1   0  -2   31.16    2.71
  -1   0   2   30.65    3.10
   0   0   2   29.10    2.96
   1   0   2   19.35    1.92
  -2   0  -2   50.24    4.31
   2   0   2   56.97    5.28
  -3   0  -2    2.59    0.36
   3   0   2    1.94    0.27
   3   0   2    2.04    0.42
  -4   0  -2  105.78    7.92
  -4   0  -2  110.41    8.43
  -4   0  -2   89.71    8.12
   4   0   2  104.52    9.94
   4   0   2   95.41    8.95
  -5   0  -2   15.44    1.45
  -5   0  -2   14.41    1.26
   5   0   2   16.66    1.46
  -6   0  -2  391.63   27.00
  -6   0  -2  311.74   24.21
  -6   0  -2  318.34   27.66
  -6   0  -2  371.39   28.61
   6   0   2  333.57   30.52
  -7   0  -2    6.47    0.84
  -7   0  -2    8.74    0.76
  -7   0  -2    7.28    0.54
  -7   0  -2    8.35    0.68
   7   0   2    6.88    0.84
   7   0   2    7.66    0.87
   7   0   2    6.29    0.58
  -8   0  -2   14.07    0.98
  -8   0  -2   13.06    1.41
   8   0   2   13.13    1.06
   8   0   2   13.13    1.46
   8   0   2   14.61    1.48
  -9   0  -2    0.02    0.18
  -9   0  -2    0.20    0.08
  -9   0  -2    0.04    0.05
  -9   0  -2    0.08    0.20
  -9   0  -2    0.18    0.12
   9   0   2    0.12    0.30
   9   0   2    1.25    0.58
 -11   0  -2   11.57    0.80
 -11   0  -2   12.10    0.85
 -12   0  -2    1.43    0.12
 -12   0  -2    1.32    0.14
 -11   1   2    0.08    0.02
 -11   1   2    0.06    0.08
 -11   1   2    0.05    0.05
 -10   1   2    1.74    0.12
 -10   1   2    1.72    0.20
   9  -1  -2    0.16    0.26
  -9   1   2    0.09    0.12
  -9   1   2   -0.04    0.07
  -9   1   2    0.04    0.04
  -9   1   2    0.11    0.05
  -8   1   2   25.54    2.22
  -8   1   2   28.29    2.34
  -8   1   2   26.28    1.92
  -8   1   2   27.67    1.53
   7  -1  -2   10.13    1.42
  -7   1   2   10.38    0.97
  -7   1   2   10.64    0.78
  -7   1   2   11.16    0.95
   6  -1  -2    0.38    0.21
   6  -1  -2    0.38    0.08
   6  -1  -2    0.26    0.52
  -6   1   2    0.51    0.06
  -6   1   2    0.54    0.21
   5  -1  -2   17.50    1.86
   5  -1  -2   18.39    1.80
  -5   1   2   18.38    1.37
  -5   1   2   19.12    1.58
  -5   1   2   22.63    2.07
   4  -1  -2    0.81    0.39
  -4   1   2    0.98    0.17
  -4   1   2    0.90    0.21
  -4   1   2    0.58    0.24
  -4   1   2    0.96    0.09
   3  -1  -2    0.60    0.28
  -3   1   2    0.85    0.20
  -3   1   2    0.56    0.11
   2  -1  -2   35.10    3.00
  -1   1   2    0.31    0.07
   0   1   2   -0.16    0.09
  -2  -1  -2  321.24   25.36
  -2  -1  -2  298.31   24.59
   2   1   2  302.50   29.95
  -3  -1  -2    3.78    0.34
  -3  -1  -2    3.02    0.48
   3   1   2    3.57    0.42
   3   1   2    3.69    0.69
  -4  -1  -2   34.88    2.89
  -4  -1  -2   32.52    3.03
  -4  -1  -2   36.18    2.82
   4   1   2   37.15    3.22
   4   1   2   37.63    3.61
  -5  -1  -2   42.28    3.94
  -5  -1  -2   44.71    3.42
  -5  -1  -2   54.97    4.16
  -5  -1  -2   53.24    3.84
  -6  -1  -2    9.71    0.96
  -6  -1  -2   11.39    0.78
  -6  -1  -2   10.54    1.12
  -6  -1  -2   11.64    0.93
   6   1   2   10.69    1.12
   6   1   2   10.00    1.08
   6   1   2   13.29    2.02
  -7  -1  -2   39.16    2.96
  -7  -1  -2   36.33    3.08
  -7  -1  -2   38.12    2.62
  -7  -1  -2   33.20    3.24
   7   1   2   38.57    3.29
   7   1   2   35.53    3.30
   7   1   2   37.62    2.71
   7   1   2   36.97    3.44
  -8  -1  -2    8.46    0.61
  -8  -1  -2    8.03    0.85
  -8  -1  -2    7.65    1.00
  -8  -1  -2    8.08    0.75
   8   1   2   12.98    2.51
   8   1   2    7.76    1.16
   8   1   2    8.49    1.09
   8   1   2    8.20    0.72
   8   1   2    8.23    1.01
  -9  -1  -2  123.44    7.85
  -9  -1  -2  126.20    8.50
  -9  -1  -2  117.02    9.52
  -9  -1  -2  122.67    8.20
  -9  -1  -2  117.27    8.71
   9   1   2  118.79   10.46
   9   1   2  120.57    8.76
 -10  -1  -2    6.32    0.46
 -10  -1  -2    6.30    0.58
 -10  -1  -2    5.84    0.49
 -10  -1  -2    6.39    0.45
  10   1   2    5.87    0.63
 -11  -1  -2    0.24    0.18
 -11  -1  -2    0.34    0.11
 -12  -1  -2    0.22    0.13
 -12  -1  -2    0.39    0.08
 -12  -1  -2    0.35    0.06
 -11   2   2    0.09    0.08
 -11   2   2    0.05    0.05
 -10   2   2   20.57    1.36
 -10   2   2   19.97    1.16
 -10   2   2   20.96    1.44
  -9   2   2   17.37    0.97
  -9   2   2   17.46    1.14
  -9   2   2   16.03    1.21
  -9   2   2   16.91    1.21
  -8   2   2   82.48    4.40
  -8   2   2   82.06    6.68
  -8   2   2   76.75    5.33
  -8   2   2   78.20    5.50
  -8   2   2   72.58    6.20
  -8   2   2   76.40    5.09
   7  -2  -2   95.21    8.06
  -7   2   2   95.92    7.92
  -7   2   2   93.59    6.53
  -7   2   2   86.73    7.33
   6  -2  -2   29.22    2.67
  -6   2   2   28.04    2.00
  -6   2   2   28.03    2.30
   5  -2  -2   60.24    5.55
  -5   2   2   55.51    4.36
  -5   2   2   67.83    6.32
  -5   2   2   65.00    4.91
   4  -2  -2   20.91    2.03
  -4   2   2   21.85    1.59
  -4   2   2   22.17    1.82
  -4   2   2   25.10    2.36
   3  -2  -2    1.03    0.29
   3  -2  -2    0.92    0.07
   2  -2  -2  126.22    9.58
   2  -2  -2  104.60    7.34
   1  -2  -2   33.95    2.17
  -1   2   2   39.32    3.45
  -1   2   2   29.49    2.74
   0   2   2    0.33    0.64
   1   2   2  160.81   15.79
   1   2   2  162.77   14.31
  -2  -2  -2   28.49    2.23
  -2  -2  -2   27.85    2.34
   2   2   2   27.30    2.50
   2   2   2   27.09    2.77
  -3  -2  -2   27.64    2.16
  -3  -2  -2   25.08    2.26
   3   2   2   28.50    2.42
   3   2   2   23.71    2.88
   3   2   2   27.27    2.70
  -4  -2  -2   10.56    0.86
  -4  -2  -2   10.29    0.88
  -4  -2  -2   10.23    0.99
   4   2   2   11.01    1.04
   4   2   2   10.39    1.26
   4   2   2    9.70    1.58
  -6  -2  -2  102.28    8.06
  -6  -2  -2  104.18    7.22
  -6  -2  -2   92.94    8.60
  -6  -2  -2   99.67    8.28
   6   2   2  111.81    8.63
   6   2   2  101.47    9.19
   6   2   2  103.69   10.18
   6   2   2  105.03   10.59
  -7  -2  -2    0.03    0.17
  -7  -2  -2    0.49    0.16
  -7  -2  -2    0.44    0.32
   7   2   2   -0.15    0.32
   7   2   2    0.07    0.20
   7   2   2    0.06    0.25
   7   2   2    1.66    1.23
   7   2   2    0.28    0.42
  -8  -2  -2   -0.07    0.17
  -8  -2  -2   -0.23    0.39
  -8  -2  -2    0.00    0.23
   8   2   2    0.08    0.51
   8   2   2   -0.45    0.51
   8   2   2    0.18    0.33
   8   2   2   -0.27    1.32
   8   2   2   -0.08    0.28
  -9  -2  -2    8.80    0.68
  -9  -2  -2    7.88    0.55
  -9  -2  -2    7.79    0.75
  -9  -2  -2    8.08    0.58
  -9  -2  -2    7.62    0.61
   9   2   2    6.62    0.75
 -10  -2  -2    8.90    0.63
 -10  -2  -2    9.60    0.76
 -10  -2  -2    8.85    0.66
 -10  -2  -2    8.39    0.68
  10   2   2   10.39    0.82
 -11  -2  -2    0.03    0.06
 -11  -2  -2   -0.04    0.16
 -11  -2  -2    0.01    0.09
 -12  -2  -2    1.09    0.17
 -12  -2  -2    0.80    0.11
 -12  -2  -2    0.91    0.09
 -11   3   2   13.16    0.91
 -11   3   2   12.87    0.86
 -10   3   2   17.52    1.15
 -10   3   2   16.86    0.98
 -10   3   2   17.57    1.22
  -9   3   2   32.26    1.81
  -9   3   2   31.68    2.22
  -9   3   2   32.07    2.27
  -9   3   2   31.80    2.11
  -8   3   2    8.48    0.66
  -8   3   2    8.36    0.63
  -8   3   2    9.19    0.61
  -8   3   2    7.89    0.81
  -8   3   2    8.78    0.78
  -8   3   2    8.57    0.50
   7  -3  -2    8.90    1.35
  -7   3   2    9.28    0.66
  -7   3   2    8.13    0.83
  -7   3   2    9.51    0.81
   6  -3  -2    4.75    0.88
  -6   3   2    5.41    0.41
  -6   3   2    6.06    0.56
   5  -3  -2    4.16    0.45
  -5   3   2    3.46    0.42
  -5   3   2    3.85    0.57
   3  -3  -2    2.26    0.15
   3  -3  -2    2.08    0.38
   2  -3  -2   99.53    6.83
   2  -3  -2  108.37    8.91
  -2   3   2  113.81   10.81
   0  -3  -2   37.51    2.31
   0   3   2   32.89    3.85
   0   3   2   37.32    3.27
  -1  -3  -2  175.42   11.59
   1   3   2  179.41   16.10
   1   3   2  190.97   17.76
  -2  -3  -2  481.28   40.05
   2   3   2  515.62   44.15
   2   3   2  504.00   48.75
  -3  -3  -2    3.65    0.44
   3   3   2    3.62    0.60
   3   3   2    5.51    0.99
   3   3   2    3.92    0.51
  -4  -3  -2    4.07    0.38
  -4  -3  -2    3.66    0.50
   4   3   2    4.58    0.55
   4   3   2    3.99    0.73
   6   3   2    7.12    0.92
  -7  -3  -2   14.74    1.58
  -7  -3  -2   18.52    1.20
  -7  -3  -2   15.46    1.45
  -7  -3  -2   17.95    1.38
   7   3   2   16.51    1.65
   7   3   2   14.71    1.68
   7   3   2   16.96    1.69
  -8  -3  -2   37.50    2.49
  -8  -3  -2   32.83    2.82
   8   3   2   38.25    3.30
   8   3   2   34.12    2.62
   8   3   2   32.69    3.36
 -10  -3  -2    8.17    0.63
 -10  -3  -2    9.56    0.71
 -10  -3  -2    8.04    0.58
  10   3   2    7.83    0.75
 -11  -3  -2    4.47    0.35
 -11  -3  -2    4.67    0.33
 -11   4   2    1.74    0.15
 -11   4   2    1.51    0.13
 -10   4   2    3.26    0.24
 -10   4   2    2.98    0.28
  -9   4   2    1.82    0.25
  -9   4   2    2.67    0.15
  -9   4   2    2.05    0.20
  -8   4   2   38.37    3.22
  -8   4   2   33.29    3.02
  -8   4   2   38.57    2.11
  -8   4   2   38.54    2.65
  -8   4   2   37.22    2.59
  -8   4   2   38.05    2.46
  -7   4   2   67.74    5.58
  -7   4   2   67.57    4.60
  -7   4   2   60.20    5.18
  -6   4   2   18.07    1.26
  -6   4   2   18.36    1.54
  -6   4   2   16.50    1.47
   5  -4  -2   95.57    8.15
  -5   4   2   90.35    6.76
  -5   4   2   99.85    9.74
  -5   4   2  100.18    8.21
  -5   4   2   95.24    7.57
   3  -4  -2   36.23    2.93
   3  -4  -2   32.36    2.17
  -3   4   2   33.70    2.44
   2  -4  -2    7.41    0.48
   2  -4  -2    7.21    0.62
   1  -4  -2    7.29    0.46
   1  -4  -2    6.93    0.60
   0  -4  -2  428.13   27.31
  -1  -4  -2    6.99    0.44
  -1  -4  -2    6.56    0.56
  -2  -4  -2   68.69    4.59
  -2  -4  -2   74.20    5.78
   2   4   2   73.38    7.08
  -3  -4  -2   19.74    1.86
  -3  -4  -2   21.72    1.78
   3   4   2   24.97    2.07
   3   4   2   23.11    1.86
   3   4   2   18.46    2.36
   3   4   2   22.57    2.23
  -4  -4  -2    7.73    0.88
  -4  -4  -2    9.60    0.81
  -4  -4  -2    9.76    0.69
   4   4   2   10.30    1.03
   4   4   2    9.13    0.89
   4   4   2    9.63    1.15
  -5  -4  -2   82.32    7.27
  -5  -4  -2  101.15    6.36
  -5  -4  -2   92.80    7.57
   5   4   2   84.41    7.56
  -7  -4  -2   10.52    0.77
  -7  -4  -2   10.91    0.97
  -7  -4  -2   10.67    0.92
   7   4   2    9.80    0.88
   7   4   2    9.94    1.22
   7   4   2   11.51    1.31
   7   4   2   10.74    1.25
  -8  -4  -2    2.44    0.38
  -8  -4  -2    2.55    0.22
   8   4   2    3.03    1.36
   8   4   2    2.10    0.40
   8   4   2    3.59    0.72
 -10  -4  -2    0.33    0.17
 -10  -4  -2    0.30    0.11
  10   4   2    0.30    0.25
  10   4   2    1.85    0.62
 -11  -4  -2    0.10    0.15
 -11  -4  -2    0.05    0.05
 -10   5   2    0.25    0.10
 -10   5   2    0.23    0.06
  -9   5   2    0.11    0.07
  -9   5   2    0.04    0.11
  -9   5   2    0.10    0.06
  -8   5   2   22.23    1.26
  -8   5   2   22.12    1.56
  -8   5   2   22.22    1.48
  -8   5   2   22.20    1.92
  -8   5   2   22.18    1.59
  -7   5   2    5.69    0.53
  -7   5   2    5.73    0.43
   6  -5  -2    0.83    0.22
  -6   5   2    1.09    0.11
  -6   5   2    1.12    0.16
  -5   5   2   20.94    1.81
  -5   5   2   23.26    2.21
  -5   5   2   18.89    1.49
  -4   5   2    1.78    0.16
  -4   5   2    1.67    0.18
   3  -5  -2    4.76    0.36
  -3   5   2    5.28    0.41
  -3   5   2    6.18    0.71
  -3   5   2    6.13    0.42
   2  -5  -2   90.77    7.64
   2  -5  -2   93.33    6.04
  -2   5   2   99.04    9.55
  -2   5   2   95.42    6.75
   1  -5  -2   49.16    3.98
   1  -5  -2   48.89    3.13
  -1   5   2   48.98    4.85
   0  -5  -2   15.28    1.01
   0   5   2   18.01    1.53
   0   5   2   13.82    1.81
  -1  -5  -2    0.34    0.04
  -1  -5  -2    0.37    0.07
   1   5   2    0.10    0.22
   1   5   2    0.23    0.74
  -2  -5  -2    6.41    0.53
  -2  -5  -2    5.87    0.40
   2   5   2    5.37    0.82
   2   5   2    7.35    0.79
  -3  -5  -2   61.48    4.83
   3   5   2   54.95    5.92
   3   5   2   63.53    5.44
  -4  -5  -2    0.66    0.13
  -4  -5  -2    0.53    0.14
   4   5   2    0.76    0.39
   4   5   2    0.84    0.66
   4   5   2    0.09    0.49
   5   5   2   59.31    5.71
   5   5   2   54.29    5.94
  -6  -5  -2   14.36    1.19
  -6  -5  -2   13.91    0.99
   6   5   2   13.39    1.47
   6   5   2   12.44    1.05
   6   5   2   14.20    1.42
   6   5   2   12.11    2.05
  -7  -5  -2    5.74    0.59
  -7  -5  -2    5.50    0.44
   7   5   2    5.98    0.89
   7   5   2    7.37    1.12
   7   5   2    5.17    0.56
  -8  -5  -2   11.75    0.79
  -8  -5  -2    9.96    0.84
   8   5   2   10.15    0.90
  -9  -5  -2   26.81    1.97
  -9  -5  -2   26.14    1.89
  -9  -5  -2   24.73    1.50
   9   5   2   31.75    2.63
   9   5   2   25.48    2.01
 -10  -5  -2   14.53    1.05
 -10  -5  -2   18.66    1.22
  10   5   2   13.70    1.80
  11   5   2    2.33    1.12
 -10   6   2    4.07    0.29
  -9   6   2    3.69    0.28
  -8   6   2   13.03    0.89
  -8   6   2   13.27    1.16
  -8   6   2   13.25    0.96
  -7   6   2   27.48    1.93
  -7   6   2   26.82    2.34
  -6   6   2    9.14    0.69
  -6   6   2    9.66    0.84
  -5   6   2  110.84    7.99
  -5   6   2  116.47    9.69
   4  -6  -2    6.99    0.48
  -4   6   2    7.33    0.54
  -4   6   2    7.55    0.55
   3  -6  -2   95.25    6.28
  -3   6   2  106.11    7.03
  -3   6   2   94.06    6.92
   2  -6  -2    4.62    0.31
   2  -6  -2    4.60    0.42
   1  -6  -2   42.57    3.47
   1  -6  -2   42.48    2.72
  -1   6   2   42.74    3.05
   0  -6  -2    6.81    0.45
   0   6   2    6.45    0.51
   0   6   2    8.16    0.86
  -1  -6  -2    0.06    0.02
   1   6   2    0.02    0.28
  -2  -6  -2   14.95    1.01
  -2  -6  -2   16.00    1.29
   2   6   2   15.56    1.14
   2   6   2   16.23    1.60
  -3  -6  -2   97.40    8.24
  -3  -6  -2  110.39    7.25
   3   6   2   99.85    9.21
  -4  -6  -2   12.02    0.85
  -4  -6  -2   10.46    0.97
   4   6   2   11.44    1.29
  -5  -6  -2   14.83    1.30
  -5  -6  -2   15.11    1.11
   5   6   2   13.89    1.50
   5   6   2   17.86    1.66
  -6  -6  -2    7.37    0.55
  -6  -6  -2    6.86    0.68
   6   6   2    6.99    0.99
  -7  -6  -2    5.70    0.43
  -7  -6  -2    5.38    0.58
   7   6   2    4.93    0.92
  -8  -6  -2   47.13    3.51
  -8  -6  -2   47.73    2.72
  -8  -6  -2   48.67    3.41
   8   6   2   49.36    4.37
  -9  -6  -2    0.35    0.08
  -9  -6  -2    0.16    0.15
   9   6   2    1.52    0.69
 -10  -6  -2    0.59    0.17
  10   6   2    1.56    1.42
  11   6   2    2.36    1.00
  -7   7   2    1.35    0.18
  -7   7   2    1.46    0.15
  -6   7   2   10.44    0.89
  -6   7   2    9.52    0.73
  -5   7   2   42.96    3.61
  -5   7   2   41.19    2.98
   2  -7  -2   77.05    6.52
   2  -7  -2   78.18    5.13
  -2   7   2   85.82    5.75
   1  -7  -2    0.22    0.09
   1  -7  -2    0.15    0.04
  -1   7   2    0.23    0.08
  -1   7   2    0.08    0.05
   0  -7  -2    3.94    0.27
  -1  -7  -2   24.87    1.92
  -1  -7  -2   26.24    1.67
   1   7   2   28.18    2.51
   1   7   2   25.27    1.88
  -2  -7  -2    6.38    0.58
  -2  -7  -2    6.19    0.44
  -2  -7  -2    7.72    0.60
   2   7   2    6.37    0.51
   2   7   2    8.54    0.95
  -3  -7  -2   52.65    3.43
  -3  -7  -2   45.20    3.87
   3   7   2   45.34    4.44
  -4  -7  -2   18.39    1.24
  -4  -7  -2   15.35    1.41
   4   7   2   16.35    1.77
  -5  -7  -2   13.89    1.05
  -5  -7  -2   13.14    1.23
   5   7   2   15.42    1.61
   5   7   2   15.79    1.48
  -6  -7  -2   42.96    3.01
  -6  -7  -2   45.66    3.49
   6   7   2   37.30    4.04
  -7  -7  -2    5.91    0.39
  -7  -7  -2    6.02    0.47
  -7  -7  -2    6.08    0.50
  -8  -7  -2   19.40    1.46
  -9  -7  -2   36.16    2.91
   9   7   2   44.76    3.67
 -11  -7  -2    6.45    0.53
  11   7   2    7.66    1.40
  -5   8   2   42.12    2.99
   4  -8  -2    3.69    0.27
  -4   8   2    3.73    0.31
  -4   8   2    4.14    0.32
   3  -8  -2    0.64    0.07
  -3   8   2    0.76    0.11
  -3   8   2    0.57    0.09
   2  -8  -2   18.63    1.11
  -2   8   2   18.00    1.25
  -2   8   2   14.64    1.22
   1  -8  -2  269.01   16.89
  -1   8   2  245.46   18.56
  -1   8   2  279.14   18.85
   0  -8  -2   35.93    2.38
   0   8   2   38.25    2.67
  -1  -8  -2   77.30    5.81
  -1  -8  -2   98.62    6.50
   1   8   2   97.86    6.51
  -2  -8  -2   54.90    3.85
   2   8   2   52.24    3.84
  -3  -8  -2   21.52    1.77
  -3  -8  -2   23.08    1.58
   3   8   2   20.89    2.16
   3   8   2   19.77    1.55
  -4  -8  -2    0.57    0.16
  -4  -8  -2    0.65    0.15
   4   8   2    0.26    0.51
   4   8   2    1.83    0.54
  -6  -8  -2   28.00    2.15
  -6  -8  -2   30.42    2.51
   6   8   2   28.86    2.92
   6   8   2   33.82    3.10
   6   8   2   30.40    2.84
  -8  -8  -2    5.19    0.46
   9   8   2    9.90    1.87
 -10  -8  -2    0.38    0.13
  10   8   2    0.49    1.14
   4  -9  -2   16.94    1.13
  -4   9   2   16.62    1.25
  -4   9   2   18.38    1.27
   3  -9  -2    0.29    0.06
  -3   9   2    0.44    0.10
   2  -9  -2    3.54    0.27
   2  -9  -2    4.12    0.26
  -2   9   2    3.39    0.29
  -2   9   2    3.72    0.31
   1  -9  -2   20.13    1.22
   1  -9  -2   17.40    1.35
  -1   9   2   19.43    1.37
  -1   9   2   17.86    1.34
   0  -9  -2    7.94    0.62
   0  -9  -2    8.84    0.57
   0   9   2    9.04    0.65
  -1  -9  -2    3.32    0.26
  -1  -9  -2    3.61    0.25
  -1  -9  -2    3.46    0.42
   1   9   2    4.04    0.68
   1   9   2    3.38    0.30
  -2  -9  -2    2.17    0.30
  -2  -9  -2    1.60    0.13
   2   9   2    1.79    0.19
   2   9   2    0.39    0.53
  -3  -9  -2   21.14    1.45
   3   9   2   19.36    1.41
   3   9   2   16.18    1.99
  -4  -9  -2    6.27    0.62
  -4  -9  -2    7.02    0.55
   4   9   2    5.62    1.00
   5   9   2    8.78    1.27
  -6  -9  -2   41.93    2.80
  -6  -9  -2   44.40    3.24
   6   9   2   51.24    4.13
  -7  -9  -2   21.49    1.24
  -7  -9  -2   19.58    1.43
  -7  -9  -2   18.49    1.47
   7   9   2   19.12    2.15
   8   9   2    3.02    0.90
  -9  -9  -2   12.54    0.96
 -10  -9  -2    7.22    0.56
  10   9   2    6.46    1.64
  -5  10   2   14.51    0.87
   4 -10  -2   24.79    1.61
  -4  10   2   24.71    1.80
   3 -10  -2    7.80    0.51
  -3  10   2    7.27    0.58
   2 -10  -2    0.10    0.05
   2 -10  -2    0.18    0.04
  -2  10   2    0.23    0.07
  -2  10   2    0.10    0.09
   1 -10  -2   37.98    2.27
   1 -10  -2   32.77    2.53
  -1  10   2   34.99    2.55
   0 -10  -2    0.59    0.07
   0 -10  -2    1.63    0.31
   0 -10  -2    0.60    0.07
   0  10   2    0.57    0.12
  -1 -10  -2   13.36    0.99
  -1 -10  -2   13.30    0.90
  -1 -10  -2   14.47    1.11
   1  10   2   13.93    1.02
  -2 -10  -2    9.24    0.72
  -2 -10  -2   10.79    0.83
   2  10   2   10.62    0.76
   2  10   2    8.96    1.22
  -3 -10  -2   17.64    1.32
   3  10   2   18.74    1.29
   3  10   2   14.59    1.86
  -4 -10  -2    2.45    0.27
   4  10   2    2.01    0.72
  -5 -10  -2    2.71    0.20
  -5 -10  -2    2.51    0.27
   5  10   2    1.58    0.89
   5  10   2    4.60    0.85
   6  10   2   19.61    2.30
   6  10   2   21.99    2.34
  -7 -10  -2    8.17    0.50
  -7 -10  -2    7.39    0.59
   7  10   2    7.89    1.10
   8  10   2   21.79    3.50
   8  10   2   28.44    2.61
   8  10   2   21.10    2.51
  -9 -10  -2    5.87    0.46
   9  10   2    4.48    1.45
  -5  11   2    3.08    0.23
  -4  11   2    4.73    0.32
  -4  11   2    4.82    0.39
   3 -11  -2    4.68    0.34
  -3  11   2    4.46    0.38
   2 -11  -2    3.09    0.21
   2 -11  -2    2.52    0.21
  -2  11   2    2.31    0.25
   1 -11  -2    0.65    0.08
   1 -11  -2    0.43    0.06
  -1  11   2    0.31    0.12
   0 -11  -2    1.65    0.34
   0 -11  -2    0.76    0.08
   0 -11  -2    0.70    0.09
   0  11   2    0.81    0.15
  -1 -11  -2    6.89    0.67
  -1 -11  -2    7.20    0.54
  -1 -11  -2    8.14    0.50
   1  11   2    6.98    0.58
  -2 -11  -2   41.65    2.97
  -2 -11  -2   41.80    3.01
   2  11   2   42.95    2.99
   2  11   2   38.33    3.93
  -3 -11  -2  189.93   14.04
   3  11   2  208.21   19.98
  -4 -11  -2    0.25    0.06
  -4 -11  -2    0.13    0.13
   4  11   2    0.93    0.52
  -5 -11  -2   25.34    1.56
  -5 -11  -2   23.17    1.82
   5  11   2   27.02    2.71
  -6 -11  -2    2.83    0.28
  -6 -11  -2    3.38    0.22
   6  11   2    1.22    0.92
   6  11   2    3.85    0.67
  -7 -11  -2    4.31    0.29
   7  11   2    4.31    0.78
   8  11   2    0.24    0.40
  -5  12   2    4.94    0.33
   4 -12  -2    2.12    0.16
  -4  12   2    2.03    0.17
  -4  12   2    1.97    0.21
   3 -12  -2   15.55    1.04
  -3  12   2   13.26    0.96
  -3  12   2   13.64    1.06
  -3  12   2   14.21    0.86
   2 -12  -2   17.23    1.14
  -2  12   2   15.80    0.88
  -2  12   2   15.58    1.06
  -2  12   2   15.32    0.95
  -2  12   2   15.14    0.92
  -2  12   2   14.81    1.16
   1 -12  -2   42.96    2.85
  -1  12   2   38.42    2.86
  -1  12   2   40.71    2.54
  -1  12   2   36.37    4.04
   0 -12  -2   68.79    4.67
   0 -12  -2   82.33    5.46
   0  12   2   78.32    4.80
   0  12   2   73.98    7.68
   0  12   2   77.44    5.47
  -1 -12  -2    2.28    0.18
  -1 -12  -2    1.94    0.16
   1  12   2    2.78    0.46
   1  12   2    2.16    0.24
   1  12   2    2.34    0.30
  -2 -12  -2   72.98    4.59
  -2 -12  -2   68.16    5.33
   2  12   2   75.57    5.37
   2  12   2   83.60    4.73
   2  12   2   73.62    7.57
  -3 -12  -2    0.88    0.10
  -3 -12  -2    0.98    0.19
   3  12   2    1.39    0.54
   3  12   2    1.26    0.24
  -4 -12  -2   23.47    1.39
  -4 -12  -2   20.21    1.63
   4  12   2   23.30    2.43
  -5 -12  -2    4.04    0.26
  -5 -12  -2    3.59    0.33
   5  12   2    3.61    0.79
  -6 -12  -2    1.02    0.10
   6  12   2    1.81    0.49
  -7 -12  -2   14.19    0.85
   7  12   2   12.49    1.52
  -8 -12  -2    0.14    0.04
   8  12   2   -0.02    0.33
  -6  13   2    0.92    0.09
   5 -13  -2   19.95    1.49
  -5  13   2   21.60    1.23
   4 -13  -2    4.39    0.32
  -4  13   2    4.27    0.29
   3 -13  -2   18.00    1.20
  -3  13   2   16.78    1.00
  -3  13   2   15.32    1.22
  -3  13   2   15.91    1.10
   2 -13  -2   77.12    5.08
  -2  13   2   69.20    3.99
  -2  13   2   68.20    4.14
  -2  13   2   66.84    5.07
  -2  13   2   70.16    4.46
  -2  13   2   72.77    3.89
   1 -13  -2    0.20    0.05
  -1  13   2    0.27    0.18
  -1  13   2    0.27    0.29
  -1  13   2    0.26    0.12
  -1  13   2    0.21    0.06
  -1  13   2    0.20    0.11
  -1  13   2    0.31    0.09
   0 -13  -2   61.12    4.25
   0 -13  -2   56.14    3.64
   0  13   2   57.06    5.99
   0  13   2   57.66    3.47
   0  13   2   60.33    4.26
   0  13   2   58.97    3.27
   0  13   2   63.09    3.76
  -1 -13  -2    5.29    0.37
  -1 -13  -2    5.42    0.42
   1  13   2    5.55    0.46
   1  13   2    6.00    0.48
   1  13   2    6.28    0.84
   1  13   2    5.67    0.34
  -2 -13  -2    0.07    0.05
   2  13   2    0.08    0.18
   2  13   2    0.43    0.40
   2  13   2    0.07    0.07
   2  13   2    0.10    0.12
  -3 -13  -2   20.97    1.32
   3  13   2   21.68    2.28
  -4 -13  -2   10.05    0.63
   4  13   2    9.49    1.21
  -5 -13  -2    6.78    0.43
   5  13   2    5.92    0.92
  -6 -13  -2    3.35    0.23
   6  13   2    3.22    0.66
  -7 -13  -2    3.28    0.22
   7  13   2    3.08    0.58
  -6  14   2   17.08    1.00
  -5  14   2    0.76    0.09
   4 -14  -2   44.33    3.03
  -4  14   2   35.51    2.66
  -4  14   2   46.50    2.48
   3 -14  -2    0.36    0.05
  -3  14   2    0.24    0.14
  -3  14   2    0.32    0.09
   2 -14  -2    0.02    0.04
  -2  14   2    0.03    0.07
  -2  14   2   -0.05    0.15
  -2  14   2    0.04    0.08
   1 -14  -2    2.92    0.23
  -1  14   2    2.82    0.18
  -1  14   2    2.85    0.22
  -1  14   2    3.09    0.32
  -1  14   2    2.81    0.23
   0 -14  -2    0.61    0.07
   0 -14  -2    0.66    0.08
   0  14   2    0.64    0.19
   0  14   2    0.69    0.08
   0  14   2    0.60    0.10
  -1 -14  -2    0.93    0.09
  -1 -14  -2    0.97    0.09
   1  14   2    1.00    0.10
   1  14   2    1.53    0.35
   1  14   2    1.28    0.22
  -2 -14  -2    8.48    0.56
   2  14   2    9.49    0.66
   2  14   2    8.54    0.51
   2  14   2    9.03    1.07
  -3 -14  -2   28.66    1.88
  -3 -14  -2   29.54    1.86
   3  14   2   32.20    3.11
  -4 -14  -2    1.71    0.13
  -5 -14  -2    3.10    0.21
   5  14   2    3.23    0.60
  -6 -14  -2   13.42    0.85
   6  14   2   13.93    1.48
  -7 -14  -2    6.84    0.43
  -5  15   2    0.12    0.05
  -4  15   2    7.48    0.46
  -3  15   2    0.07    0.12
  -3  15   2    0.05    0.07
   2 -15  -2    4.98    0.37
  -2  15   2    5.08    0.33
  -2  15   2    4.69    0.39
   1 -15  -2    0.12    0.04
  -1  15   2    0.04    0.08
  -1  15   2    0.08    0.04
  -1  15   2    0.37    0.16
  -1  15   2    0.12    0.07
   0 -15  -2    0.18    0.04
   0 -15  -2    0.25    0.04
   0  15   2    0.22    0.08
   0  15   2    0.14    0.16
  -1 -15  -2    1.80    0.14
   1  15   2    2.07    0.26
   1  15   2    2.06    0.14
  -2 -15  -2    2.06    0.14
  -2 -15  -2    1.84    0.14
   2  15   2    1.96    0.14
  -3 -15  -2    1.70    0.13
   3  15   2    1.63    0.13
   3  15   2    2.79    0.50
  -4 -15  -2    1.41    0.11
  -5 -15  -2    5.71    0.37
  -6 -15  -2    6.39    0.40
  -4  16   2    0.05    0.04
  -3  16   2   20.05    1.18
  -2  16   2    7.55    0.54
  -2  16   2    7.95    0.48
  -1  16   2   16.36    0.99
  -1  16   2   16.84    1.09
   0  16   2    1.96    0.16
   0  16   2    2.24    0.16
   0  16   2    1.89    0.13
  -1 -16  -2   16.18    0.98
  -1 -16  -2   14.22    0.97
   1  16   2   15.38    0.90
   1  16   2   16.59    0.87
  -2 -16  -2    7.21    0.44
  -2 -16  -2    6.60    0.44
   2  16   2    7.05    0.40
   2  16   2    6.90    0.81
  -4 -16  -2   12.80    0.76
   4  16   2   11.97    1.29
   4  16   2   11.68    0.69
   2 -17  -2    0.00    0.02
  -2  17   2    0.03    0.05
   1 -17  -2    4.11    0.28
  -1  17   2    4.82    0.28
   0 -17  -2    1.15    0.08
  -1 -17  -2    2.13    0.14
   1  17   2    2.15    0.15
   2  17   2    4.54    0.26
   3  17   2    1.87    0.12
   3  16  -3    5.95    0.35
   2  16  -3    5.40    0.34
  -2 -16   3    6.20    0.37
   1  16  -3    4.48    0.26
  -1 -16   3    4.34    0.29
   0  16  -3   15.89    1.10
   0  16  -3   16.83    0.93
   0 -16   3   17.26    1.04
  -1  16  -3    1.37    0.20
  -1  16  -3    1.14    0.12
   1 -16   3    1.31    0.10
  -2  16  -3   17.75    1.04
  -2  16  -3   19.02    1.16
   2 -16   3   16.10    1.08
  -3  16  -3    2.25    0.24
  -3  16  -3    2.28    0.15
   3 -16   3    1.70    0.13
  -4  16  -3    1.32    0.11
  -4  16  -3    1.40    0.18
   3  15  -3    2.49    0.18
  -3 -15   3    2.77    0.18
   2  15  -3    1.50    0.13
  -2 -15   3    1.57    0.12
   1  15  -3   11.40    0.66
  -1 -15   3   11.62    0.72
   0  15  -3    8.12    0.46
   0  15  -3    8.01    0.50
   0  15  -3    7.65    0.61
   0 -15   3    8.20    0.51
  -1  15  -3    9.87    0.56
  -1  15  -3    9.37    0.61
  -1  15  -3   10.84    0.73
   1 -15   3   10.06    0.63
  -2  15  -3    3.26    0.23
  -2  15  -3    3.19    0.33
  -3  15  -3   16.35    1.01
  -3  15  -3   17.40    1.12
  -4  15  -3    4.87    0.32
  -4  15  -3    4.89    0.39
  -5  15  -3    0.17    0.12
  -5  15  -3    0.07    0.05
   5  14  -3    4.32    0.72
   4  14  -3    1.91    0.54
  -4 -14   3    2.48    0.17
  -3 -14   3   14.20    0.89
   2  14  -3   -0.30    0.39
   2  14  -3    0.14    0.07
  -2 -14   3    0.19    0.05
   1  14  -3    0.93    0.11
  -1 -14   3    1.08    0.10
   0  14  -3    3.69    0.38
   0  14  -3    3.47    0.26
   0  14  -3    3.48    0.23
   0 -14   3    3.87    0.25
   0 -14   3    3.39    0.27
  -1  14  -3    6.27    0.42
  -1  14  -3    7.15    0.54
  -1  14  -3    6.81    0.38
   1 -14   3    6.61    0.48
   1 -14   3    5.58    0.51
  -2  14  -3    0.12    0.08
  -2  14  -3    0.12    0.04
  -2  14  -3    0.30    0.19
   2 -14   3    0.16    0.05
  -3  14  -3   11.32    0.82
  -3  14  -3   11.54    0.71
   3 -14   3   11.73    0.84
  -4  14  -3   25.18    1.62
  -4  14  -3   25.63    1.48
   4 -14   3   24.10    1.80
  -5  14  -3    2.23    0.17
  -5  14  -3    2.04    0.24
  -6  14  -3    1.48    0.19
  -6  14  -3    1.70    0.13
   6  13  -3    1.25    0.48
  -6 -13   3    1.04    0.13
   5  13  -3    0.31    0.53
  -5 -13   3    0.34    0.09
   3  13  -3    1.01    0.59
  -3 -13   3    1.58    0.12
  -3 -13   3    1.44    0.17
   2  13  -3    4.68    1.04
  -2 -13   3    6.61    0.41
   1  13  -3    0.04    0.07
   1  13  -3   -0.02    0.12
  -1 -13   3    0.08    0.05
   0  13  -3   16.20    1.06
   0  13  -3   15.68    0.92
   0  13  -3   14.71    1.13
   0  13  -3   15.18    0.86
   0 -13   3   15.43    1.09
   0 -13   3   13.30    1.17
  -1  13  -3   35.00    2.06
  -1  13  -3   36.15    1.94
  -1  13  -3   34.66    2.27
  -1  13  -3   31.63    2.53
   1 -13   3   36.51    2.51
  -2  13  -3   -0.05    0.10
  -2  13  -3   -0.09    0.18
  -2  13  -3    0.03    0.05
  -2  13  -3    0.06    0.08
   2 -13   3    0.08    0.05
  -3  13  -3   -0.09    0.38
  -3  13  -3    0.19    0.08
  -3  13  -3    0.15    0.17
   3 -13   3    0.08    0.04
   3 -13   3    0.07    0.04
  -4  13  -3    0.30    0.08
  -4  13  -3   -0.05    0.33
  -4  13  -3    0.38    0.17
   4 -13   3    0.19    0.05
   4 -13   3    0.15    0.05
  -5  13  -3    2.73    0.40
  -5  13  -3    2.74    0.19
  -5  13  -3    2.31    0.27
   5 -13   3    2.15    0.18
   5 -13   3    2.19    0.18
  -6  13  -3    1.23    0.18
  -6  13  -3    1.28    0.12
   7  12  -3    0.06    0.46
  -7 -12   3    0.34    0.09
  -6 -12   3    5.38    0.43
   5  12  -3    1.50    0.70
   3  12  -3    6.17    0.54
   3  12  -3    5.10    1.13
  -3 -12   3    6.02    0.50
  -3 -12   3    6.89    0.41
   2  12  -3    4.96    1.12
   2  12  -3    6.62    0.55
   2  12  -3    6.32    0.55
  -2 -12   3    7.17    0.43
   1  12  -3    4.37    0.28
   1  12  -3    4.08    0.39
  -1 -12   3    3.96    0.35
   0  12  -3    2.33    0.26
   0  12  -3    2.36    0.32
   0  12  -3    2.22    0.17
   0  12  -3    2.33    0.20
   0 -12   3    2.07    0.18
  -1  12  -3   15.26    0.96
  -1  12  -3   14.88    0.89
  -1  12  -3   15.05    1.09
  -1  12  -3   15.23    1.18
   1 -12   3   16.67    1.15
   1 -12   3   16.76    1.15
  -2  12  -3    6.00    0.35
  -2  12  -3    6.48    0.75
  -2  12  -3    5.01    0.48
  -2  12  -3    5.54    0.50
  -2  12  -3    5.36    0.39
   2 -12   3    6.68    0.45
  -3  12  -3    4.81    0.45
  -3  12  -3    5.15    0.29
  -3  12  -3    5.42    0.68
  -3  12  -3    5.20    0.35
  -3  12  -3    4.84    0.42
   3 -12   3    5.10    0.39
  -4  12  -3    7.99    0.48
  -4  12  -3    7.24    0.75
  -4  12  -3    7.37    0.57
   4 -12   3    7.18    0.55
  -5  12  -3   12.90    0.87
  -5  12  -3   12.57    0.98
  -5  12  -3   13.06    0.77
   5 -12   3   12.04    0.92
  -6  12  -3    1.51    0.14
  -6  12  -3    1.51    0.21
  -8 -11   3    1.19    0.15
   7  11  -3    3.37    0.80
  -7 -11   3    3.37    0.30
   6  11  -3    3.68    0.84
  -6 -11   3    2.69    0.27
   5  11  -3    7.26    1.29
  -5 -11   3    7.83    0.61
   3  11  -3    9.51    1.59
   3  11  -3    8.73    1.76
   3  11  -3   11.42    0.92
   3  11  -3   13.51    0.94
  -3 -11   3   12.27    0.74
  -3 -11   3   11.50    0.89
   2  11  -3    2.48    0.25
   2  11  -3    2.34    0.68
   2  11  -3    2.16    0.48
   2  11  -3    2.45    0.27
  -2 -11   3    1.82    0.16
   1  11  -3    1.27    0.18
   1  11  -3    1.17    0.20
  -1 -11   3    0.95    0.10
   0  11  -3   41.09    2.86
   0 -11   3   39.27    2.83
   0 -11   3   38.72    2.83
   0 -11   3   38.23    3.24
  -1  11  -3    3.46    0.35
   1 -11   3    3.87    0.43
   1 -11   3    3.96    0.30
  -2  11  -3   17.81    1.34
   2 -11   3   18.22    1.31
  -3  11  -3    0.08    0.10
  -3  11  -3    0.22    0.17
  -3  11  -3    0.40    0.37
  -4  11  -3    6.04    0.39
  -4  11  -3    6.08    0.47
  -4  11  -3    5.70    0.67
   4 -11   3    5.52    0.43
  -5  11  -3    4.87    0.33
  -5  11  -3    5.03    0.41
  -5  11  -3    5.31    0.58
  -6  11  -3    0.48    0.15
   8  10  -3    0.59    0.56
  -8 -10   3    0.51    0.11
   7  10  -3    0.77    0.67
  -7 -10   3    0.97    0.15
   5  10  -3   38.13    3.75
   5  10  -3   33.36    2.57
  -5 -10   3   34.32    2.55
   4  10  -3   13.04    1.97
   4  10  -3   12.23    0.95
  -4 -10   3   11.73    0.92
  -4 -10   3   12.64    0.90
   3  10  -3   38.99    2.84
   3  10  -3   37.15    3.92
   3  10  -3   43.81    2.93
   3  10  -3   34.55    4.08
   2  10  -3   18.38    1.44
   2  10  -3   17.27    2.35
  -2 -10   3   21.21    1.66
   1  10  -3    0.58    1.05
   1  10  -3    0.20    0.13
  -1 -10   3    0.18    0.16
  -1 -10   3    0.19    0.05
   0  10  -3   34.24    3.01
   0  10  -3   32.67    2.22
   0 -10   3   27.82    2.52
   0 -10   3   28.38    2.19
  -1  10  -3   19.99    1.49
   1 -10   3   20.94    1.72
   1 -10   3   19.70    1.46
  -2  10  -3   24.10    1.80
   2 -10   3   25.82    2.07
   2 -10   3   24.04    1.78
  -3  10  -3   12.34    0.91
   3 -10   3   11.94    0.89
  -5  10  -3    4.14    0.54
  -5  10  -3    4.11    0.36
  -6  10  -3    2.89    0.29
  -9  -9   3    0.23    0.09
   7   9  -3    4.97    0.99
  -7  -9   3    3.45    0.33
   6   9  -3   40.66    4.75
  -6  -9   3   50.50    3.33
   5   9  -3   28.41    2.70
   5   9  -3   24.37    1.78
   5   9  -3   21.74    2.62
  -5  -9   3   23.45    1.76
   4   9  -3    4.88    0.43
   4   9  -3    4.94    1.13
   3   9  -3    3.78    0.38
   3   9  -3    6.68    1.27
  -3  -9   3    4.58    0.46
   2   9  -3   45.97    4.55
   2   9  -3   45.75    3.43
  -2  -9   3   50.26    3.89
   1   9  -3   10.53    0.81
  -1  -9   3   11.31    0.95
  -1  -9   3   10.50    0.78
  -1  -9   3   10.51    0.78
   0  -9   3    4.12    0.42
   0  -9   3    3.80    0.30
  -1   9  -3    1.71    0.19
   1  -9   3    1.66    0.25
   1  -9   3    1.56    0.14
  -2   9  -3    2.60    0.24
   2  -9   3    2.42    0.20
   2  -9   3    2.70    0.32
  -3   9  -3    0.64    0.12
   3  -9   3    0.77    0.20
   9   8  -3    1.81    0.51
  -9  -8   3    0.66    0.13
  -7  -8   3    8.20    0.49
  -7  -8   3    8.64    0.66
   5   8  -3   16.84    1.11
   5   8  -3   15.21    1.84
  -5  -8   3   11.99    1.07
   4   8  -3    0.44    0.14
   4   8  -3    0.67    0.79
  -4  -8   3    0.76    0.20
   3   8  -3    2.92    0.90
   3   8  -3    1.34    0.18
  -3  -8   3    1.45    0.25
   2   8  -3   26.88    2.61
   2   8  -3   24.55    1.84
  -2  -8   3   24.87    2.10
   1   8  -3   20.44    2.03
   1   8  -3   16.40    1.25
  -1  -8   3   16.18    1.23
  -1  -8   3   15.92    1.23
  -1  -8   3   18.60    1.44
   0  -8   3    3.11    0.36
  -1   8  -3    0.24    0.09
  -1   8  -3    0.78    0.50
   1  -8   3    0.06    0.14
  -2   8  -3   99.05    7.77
  -2   8  -3   84.45    6.25
   2  -8   3   89.86    7.06
   2  -8   3   77.18    6.26
   4  -8   3   19.91    1.68
   9   7  -3   27.84    2.69
  -9  -7   3   23.07    1.84
   7   7  -3    0.31    0.58
  -7  -7   3    0.61    0.09
  -7  -7   3    0.73    0.15
  -7  -7   3    0.77    0.08
   6   7  -3   98.65    8.80
   6   7  -3   83.94    7.83
  -6  -7   3   80.05    4.86
  -6  -7   3   88.12    6.08
  -6  -7   3   86.52    6.08
  -6  -7   3   81.37    6.21
   5   7  -3   23.41    2.94
   5   7  -3   29.20    2.91
   5   7  -3   28.81    2.14
  -5  -7   3   31.67    2.07
  -5  -7   3   30.06    2.43
   4   7  -3    1.75    0.61
   4   7  -3    2.80    0.25
   4   7  -3    1.93    0.71
  -4  -7   3    1.98    0.29
   3   7  -3    9.62    1.29
   3   7  -3    9.63    0.72
   3   7  -3    7.83    1.14
  -3  -7   3    9.65    0.83
   2   7  -3  103.48    7.54
   2   7  -3  103.30    9.40
  -2  -7   3  109.31    8.49
   1   7  -3    8.66    0.67
   1   7  -3    9.62    1.38
  -1  -7   3    8.64    0.78
  -1  -7   3    8.95    0.79
   0  -7   3  102.84    8.37
   0  -7   3  103.98    8.32
  -1   7  -3  196.03   13.63
  -1   7  -3  190.26   16.78
   1  -7   3  187.18   15.33
  -5   7  -3    9.81    1.08
   5  -7   3    7.68    0.76
 -10  -6   3    0.08    0.09
   9   6  -3    1.26    0.50
  -9  -6   3    1.29    0.19
  -9  -6   3    1.26    0.09
  -8  -6   3   19.68    1.09
  -8  -6   3   18.40    1.41
   7   6  -3    2.63    0.84
   7   6  -3    3.67    0.75
  -7  -6   3    3.40    0.27
  -7  -6   3    3.47    0.22
  -7  -6   3    3.26    0.32
  -7  -6   3    3.31    0.39
   5   6  -3   13.55    1.03
   4   6  -3    0.79    0.52
   4   6  -3    1.02    0.15
   4   6  -3    0.39    0.38
  -4  -6   3    0.88    0.10
  -4  -6   3    0.49    0.17
   3   6  -3    0.97    0.38
   3   6  -3    1.06    0.54
   3   6  -3    0.93    0.14
  -3  -6   3    0.88    0.19
   2   6  -3   33.82    3.21
   2   6  -3   36.77    2.47
   2   6  -3   30.50    3.18
  -2  -6   3   34.86    2.79
   1   6  -3   27.42    1.95
   1   6  -3   27.02    2.64
  -1  -6   3   25.75    2.22
  -1  -6   3   27.80    2.22
   0   6  -3  149.60   13.18
   0  -6   3  145.22   12.05
   0  -6   3  153.16   11.98
  -1   6  -3   11.64    1.33
  -1   6  -3   11.88    0.91
   1  -6   3   13.54    1.05
   1  -6   3   12.42    1.06
  -3   6  -3    3.22    0.30
  -3   6  -3    3.64    0.70
  -3   6  -3    5.37    0.74
   3  -6   3    3.94    0.40
  -4   6  -3   23.78    2.07
   4  -6   3   21.03    1.85
  -5   6  -3   29.23    2.60
   5  -6   3   29.21    2.44
  -6   6  -3    9.84    1.12
 -10  -5   3    2.06    0.22
 -10  -5   3    2.35    0.14
   9   5  -3    1.15    0.52
  -9  -5   3    1.97    0.22
  -9  -5   3    1.98    0.13
   8   5  -3   -0.61    0.76
   8   5  -3    0.54    0.52
  -8  -5   3    0.66    0.07
  -8  -5   3    0.64    0.14
  -8  -5   3    0.65    0.08
   7   5  -3    4.61    0.81
   7   5  -3    5.41    0.86
   7   5  -3    5.19    0.95
  -7  -5   3    4.52    0.35
  -7  -5   3    4.79    0.47
  -7  -5   3    4.54    0.28
  -7  -5   3    4.36    0.40
   6   5  -3    5.63    0.87
   6   5  -3    4.97    0.92
   6   5  -3    3.53    0.86
   6   5  -3    3.92    1.21
  -6  -5   3    5.04    0.51
  -6  -5   3    4.49    0.35
   5   5  -3   20.05    1.97
   5   5  -3   20.33    1.45
   5   5  -3   19.12    2.03
   5   5  -3   17.99    2.17
  -5  -5   3   19.36    1.40
  -5  -5   3   19.82    1.66
  -5  -5   3   19.34    1.63
   4   5  -3   20.93    1.99
   4   5  -3   21.67    1.50
   4   5  -3   18.22    2.14
   4   5  -3   19.51    2.03
  -4  -5   3   20.37    1.71
  -4  -5   3   20.60    1.45
   3   5  -3    4.59    0.84
   3   5  -3    5.56    0.43
   3   5  -3    5.65    0.72
   3   5  -3    4.11    0.89
  -3  -5   3    4.49    0.50
  -3  -5   3    6.23    0.40
   2   5  -3   40.95    3.86
   2   5  -3   45.30    3.04
   2   5  -3   40.71    3.85
   2   5  -3   40.97    3.77
  -2  -5   3   42.98    3.44
   1   5  -3    1.23    0.31
   1   5  -3    1.34    0.46
   1   5  -3    1.53    0.15
   1   5  -3    1.67    0.61
  -1  -5   3    1.43    0.17
  -1  -5   3    1.38    0.21
   0   5  -3  223.25   16.46
   0   5  -3  195.03   17.45
   0  -5   3  178.39   15.92
  -1   5  -3    0.15    0.43
  -1   5  -3   -0.08    0.21
   1  -5   3    0.05    0.11
   1  -5   3    0.04    0.05
  -2   5  -3    7.94    0.88
  -2   5  -3    8.04    0.88
   2  -5   3    6.78    0.65
  -3   5  -3   69.53    5.77
  -3   5  -3   65.40    5.69
  -3   5  -3   73.52    6.13
   3  -5   3   64.50    5.56
   3  -5   3   71.21    5.57
  -4   5  -3    2.91    0.55
  -4   5  -3    2.90    0.45
   4  -5   3    2.42    0.25
  -5   5  -3   26.80    2.52
  -5   5  -3   22.70    2.28
  -5   5  -3   28.06    2.30
  -6   5  -3    2.01    0.48
  -6   5  -3    1.36    0.24
  -6   5  -3    1.95    0.41
  -7   5  -3    6.22    0.74
  -7   5  -3    5.17    0.78
  -7   5  -3    5.04    0.51
 -10   5  -3    0.42    0.10
 -11   5  -3    4.20    0.33
 -10  -4   3    2.95    0.17
 -10  -4   3    2.44    0.26
   9   4  -3    1.75    0.57
   9   4  -3    1.00    0.76
  -9  -4   3    2.70    0.27
  -9  -4   3    2.69    0.16
   8   4  -3    8.15    1.17
   8   4  -3    9.07    1.48
   8   4  -3    5.88    0.79
  -8  -4   3    8.17    0.58
  -8  -4   3    7.27    0.62
  -8  -4   3    8.43    0.46
   7   4  -3   15.56    1.75
   7   4  -3   14.74    1.31
   7   4  -3   12.29    1.75
  -7  -4   3   16.71    0.91
  -7  -4   3   16.31    1.19
  -7  -4   3   16.05    1.37
  -7  -4   3   16.25    1.14
  -7  -4   3   16.43    1.22
   6   4  -3    1.02    0.55
   6   4  -3    3.26    0.68
   6   4  -3    1.31    0.53
   6   4  -3    1.51    0.35
   6   4  -3    1.45    1.00
  -6  -4   3    1.90    0.32
  -6  -4   3    1.52    0.15
  -6  -4   3    1.81    0.29
   5   4  -3   26.46    2.93
   5   4  -3   31.35    2.21
   5   4  -3   33.89    2.17
  -5  -4   3   27.92    2.45
  -5  -4   3   28.40    2.10
  -5  -4   3   28.47    2.41
   4   4  -3   13.63    1.79
   4   4  -3   16.87    1.18
   4   4  -3   16.64    1.63
  -4  -4   3   15.03    1.34
  -4  -4   3   16.49    1.14
  -4  -4   3   15.89    1.35
   3   4  -3  150.12   13.64
   3   4  -3  166.39   14.41
   3   4  -3  153.45   14.22
   3   4  -3  167.10   11.57
  -3  -4   3  158.28   12.71
  -3  -4   3  180.19   11.38
  -3  -4   3  158.16   13.00
   2   4  -3  116.53    7.55
   2   4  -3   99.91    8.96
   2   4  -3  110.26    9.41
   2   4  -3  104.64    9.32
  -2  -4   3   97.77    8.30
  -2  -4   3  104.69    8.49
   1   4  -3  178.49   15.64
   1   4  -3  170.75   14.86
   1   4  -3  183.14   15.78
  -1  -4   3  180.72   14.29
   0   4  -3   74.35    6.85
   0   4  -3   83.16    6.46
   0  -4   3   79.85    6.23
   0  -4   3   71.44    6.20
  -1   4  -3  114.47    8.77
   1  -4   3   85.09    7.97
  -2   4  -3   20.98    1.68
  -2   4  -3   16.79    1.67
  -2   4  -3   18.26    1.78
   2  -4   3   19.94    1.55
   2  -4   3   18.07    1.56
  -3   4  -3    1.00    0.35
  -3   4  -3    1.16    0.39
  -3   4  -3    0.72    0.22
   3  -4   3    0.63    0.09
  -4   4  -3    7.21    0.63
  -4   4  -3    8.05    0.95
  -4   4  -3    8.17    0.81
  -4   4  -3    9.14    0.84
   4  -4   3    6.56    0.63
  -5   4  -3   23.91    2.09
  -6   4  -3   16.98    1.38
  -6   4  -3   17.43    1.59
  -6   4  -3   16.36    1.54
  -7   4  -3    2.18    0.32
  -7   4  -3    2.96    0.55
  -7   4  -3    3.26    0.54
  -8   4  -3   16.86    1.40
  -9   4  -3    9.64    0.71
 -10   4  -3   27.44    1.78
 -10   4  -3   26.76    1.87
 -11   4  -3    0.30    0.10
 -11   4  -3    0.33    0.06
   9   3  -3    3.44    0.78
   9   3  -3    1.96    0.57
   9   3  -3    1.36    0.43
  -9  -3   3    2.81    0.21
  -9  -3   3    2.37    0.26
  -9  -3   3    2.52    0.16
  -9  -3   3    2.36    0.24
   8   3  -3    0.90    0.74
   8   3  -3    0.72    0.55
   8   3  -3    0.66    0.40
  -8  -3   3    1.13    0.11
  -8  -3   3    1.11    0.18
  -8  -3   3    0.96    0.18
  -8  -3   3    0.94    0.27
  -8  -3   3    1.14    0.09
   7   3  -3    0.58    0.35
   6   3  -3    9.62    1.37
   6   3  -3   11.82    1.81
   6   3  -3   13.50    1.02
  -6  -3   3   11.76    1.10
  -6  -3   3   14.21    1.12
  -6  -3   3   12.58    0.90
   5   3  -3   19.00    1.32
   5   3  -3   16.85    2.00
   5   3  -3   18.92    1.36
  -5  -3   3   16.91    1.49
  -5  -3   3   16.81    1.27
  -5  -3   3   18.13    1.51
   4   3  -3    0.76    0.31
   4   3  -3    0.83    0.71
   4   3  -3    0.85    0.13
  -4  -3   3    0.86    0.22
  -4  -3   3    0.82    0.09
  -4  -3   3    0.95    0.18
   3   3  -3   42.38    3.01
   3   3  -3   44.68    3.81
   3   3  -3   43.28    3.79
  -3  -3   3   41.05    3.40
  -3  -3   3   38.82    3.33
   2   3  -3   33.91    3.16
   2   3  -3   32.99    3.13
   2   3  -3   38.76    3.16
  -2  -3   3   33.70    2.83
   1   3  -3  115.34    9.03
   1   3  -3   96.92    8.57
  -1  -3   3  100.47    8.17
  -1  -3   3   94.65    8.21
   0   3  -3   21.81    2.01
   0  -3   3   24.22    1.86
   0  -3   3   25.97    2.27
   0  -3   3   19.42    1.86
  -2   3  -3  243.27   18.48
   2  -3   3  203.53   21.76
  -3   3  -3    2.10    0.42
  -3   3  -3    2.79    0.38
  -4   3  -3   11.84    1.15
  -4   3  -3   13.45    1.11
  -4   3  -3   11.69    0.99
  -4   3  -3   12.75    1.28
   4  -3   3   10.70    1.36
  -5   3  -3  117.04   10.76
   5  -3   3  141.02   13.11
  -6   3  -3   10.55    0.89
  -6   3  -3   10.50    1.02
  -6   3  -3   10.67    1.09
   6  -3   3    9.91    1.37
   6  -3   3   11.80    1.74
  -7   3  -3    3.74    0.59
  -7   3  -3    3.36    0.37
  -7   3  -3    3.27    0.51
  -8   3  -3   12.98    1.46
  -8   3  -3   16.10    1.57
  -8   3  -3   17.23    1.31
   8  -3   3   15.42    1.56
  -9   3  -3    3.53    0.27
  -9   3  -3    3.57    0.32
  -9   3  -3    3.27    0.42
  -9   3  -3    3.44    0.48
 -10   3  -3   19.67    1.44
 -10   3  -3   21.62    1.37
 -11   3  -3    3.65    0.27
 -11   3  -3    3.91    0.31
 -12   3  -3    0.73    0.10
 -12   3  -3    0.75    0.08
 -11  -2   3    0.11    0.02
   9   2  -3    7.45    1.21
   9   2  -3    4.57    0.84
  -9  -2   3    4.09    0.24
  -9  -2   3    3.89    0.30
  -9  -2   3    3.49    0.34
  -8  -2   3    9.09    0.67
  -8  -2   3    9.21    0.64
  -8  -2   3    8.25    0.70
  -8  -2   3    8.66    0.87
  -8  -2   3   10.38    0.54
   7   2  -3    8.95    0.85
  -7  -2   3    9.97    0.72
  -7  -2   3   10.60    0.93
   6   2  -3    5.56    0.53
   6   2  -3    4.54    0.79
   6   2  -3    7.13    1.31
  -6  -2   3    6.01    0.63
  -6  -2   3    6.04    0.44
  -6  -2   3    6.44    0.55
   5   2  -3    0.56    0.71
  -5  -2   3    1.54    0.19
  -5  -2   3    2.08    0.16
   4   2  -3    5.97    0.72
   4   2  -3    6.12    1.01
  -4  -2   3    7.26    0.76
  -4  -2   3    6.11    0.46
  -4  -2   3    5.25    0.60
  -4  -2   3    7.06    0.59
   3   2  -3   47.48    4.10
   3   2  -3   48.17    4.17
  -3  -2   3   46.09    4.71
  -3  -2   3   47.71    3.74
  -3  -2   3   42.37    3.67
   2   2  -3    9.66    0.86
   2   2  -3    9.34    1.06
  -2  -2   3    8.30    0.75
   1   2  -3  213.62   18.14
   1   2  -3  227.99   13.92
  -1  -2   3  212.65   17.45
   0   2  -3   12.76    1.32
   0  -2   3   16.22    1.16
   0  -2   3   13.13    1.17
   0  -2   3   14.48    1.58
  -1   2  -3   40.58    2.95
  -1   2  -3   28.96    2.85
   1  -2   3   31.33    3.48
   1  -2   3   37.44    2.80
  -2   2  -3   41.20    3.43
  -2   2  -3   46.73    3.56
   2  -2   3   38.30    4.14
  -3   2  -3   14.27    1.27
  -3   2  -3   16.42    1.34
   3  -2   3   14.14    1.56
  -4   2  -3   98.13    8.54
  -4   2  -3  103.18    7.81
  -4   2  -3   98.83    7.58
  -4   2  -3  101.42    8.09
   4  -2   3   82.26    9.50
  -5   2  -3   52.32    4.09
  -5   2  -3   43.74    3.76
   6  -2   3   39.14    4.30
  -7   2  -3   24.58    2.15
  -7   2  -3   20.97    2.00
  -7   2  -3   24.53    1.89
   7  -2   3   22.37    2.93
  -8   2  -3   -0.09    0.28
  -8   2  -3    0.09    0.18
  -8   2  -3    0.22    0.37
   8  -2   3    1.48    1.32
   8  -2   3    0.07    0.34
  -9   2  -3   94.80    5.70
  -9   2  -3   79.07    6.35
  -9   2  -3   92.19    5.95
  -9   2  -3   84.03    6.92
 -10   2  -3   15.29    0.95
 -10   2  -3   14.48    1.01
 -10   2  -3   11.86    1.13
 -11   2  -3    0.09    0.06
 -11   2  -3   -0.07    0.09
 -11   2  -3   -0.04    0.21
 -12   2  -3    0.04    0.05
 -12   2  -3    0.04    0.07
 -11  -1   3    2.19    0.17
 -11  -1   3    1.95    0.12
 -11  -1   3    1.87    0.15
  10   1  -3   18.89    2.09
 -10  -1   3   19.40    1.29
 -10  -1   3   20.29    1.11
 -10  -1   3   19.65    1.37
   9   1  -3    0.17    0.33
   9   1  -3    0.05    0.42
   9   1  -3    1.01    0.68
  -9  -1   3    0.30    0.13
  -9  -1   3    0.31    0.05
  -9  -1   3    0.30    0.08
  -8  -1   3   59.59    4.07
  -8  -1   3   63.26    4.40
  -8  -1   3   61.11    4.99
  -8  -1   3   60.17    4.27
  -8  -1   3   67.62    3.52
   7   1  -3   31.26    3.09
   7   1  -3   23.97    2.14
  -7  -1   3   30.19    2.04
  -7  -1   3   28.86    2.37
  -7  -1   3   30.74    2.49
   6   1  -3   57.42    4.93
  -6  -1   3   52.86    3.78
  -6  -1   3   53.27    4.29
  -6  -1   3   52.65    4.60
   5   1  -3  203.18   15.48
   5   1  -3  154.18   16.29
  -5  -1   3  188.93   12.88
  -5  -1   3  189.18   14.41
   4   1  -3   27.72    2.75
   4   1  -3   32.84    2.80
  -4  -1   3   29.02    2.42
  -4  -1   3   31.30    2.12
   3   1  -3    0.27    0.14
   3   1  -3    0.34    0.44
  -3  -1   3    0.11    0.17
  -3  -1   3    0.37    0.11
  -3  -1   3    0.28    0.17
   2   1  -3   78.60    6.78
   2   1  -3   76.25    6.50
  -2  -1   3   74.87    7.73
  -2  -1   3   76.26    6.14
   1   1  -3    3.54    0.66
   1   1  -3    4.36    0.38
  -1  -1   3    3.54    0.32
  -1  -1   3    5.06    0.59
  -1  -1   3    3.44    0.34
   0   1  -3  109.86    8.31
   0   1  -3  111.38    6.35
   0  -1   3   90.94    9.84
   0  -1   3   86.22    7.97
  -1   1  -3  325.27   25.79
  -1   1  -3  334.54   19.92
  -1   1  -3  305.19   25.00
   1  -1   3  284.02   30.43
  -2   1  -3  104.36    7.99
  -2   1  -3   98.81    7.71
  -2   1  -3   93.77    6.11
   2  -1   3   86.82    9.37
  -3   1  -3  349.34   27.57
  -3   1  -3  333.18   21.29
   3  -1   3  318.67   32.53
  -4   1  -3    2.34    0.42
  -4   1  -3    3.05    0.34
  -4   1  -3    2.44    0.29
   4  -1   3    2.59    0.32
   4  -1   3    3.27    0.59
   4  -1   3    4.61    0.87
  -5   1  -3   10.94    1.07
  -5   1  -3   13.06    1.02
  -5   1  -3   12.20    1.21
   5  -1   3   14.05    1.89
  -7   1  -3    0.75    0.19
  -7   1  -3    0.67    0.37
  -7   1  -3    0.81    0.27
   7  -1   3    0.79    1.20
  -8   1  -3    6.53    0.88
  -8   1  -3    7.27    0.67
  -8   1  -3    6.20    0.78
   8  -1   3    7.83    0.61
   8  -1   3    7.59    0.92
  -9   1  -3   10.99    0.83
  -9   1  -3   12.14    1.02
  -9   1  -3   10.88    0.78
  -9   1  -3   12.19    0.95
 -10   1  -3    0.22    0.12
  10  -1   3   -0.01    0.26
 -11   1  -3   12.69    0.94
 -11   1  -3   11.88    0.81
 -11   1  -3   11.29    0.76
  11  -1   3    9.59    0.90
 -12   1  -3    6.20    0.46
 -12   1  -3    6.84    0.54
 -12   1  -3    6.14    0.43
 -11   0   3    0.11    0.02
 -11   0   3    0.06    0.04
 -11   0   3    0.02    0.06
 -10   0   3    7.40    0.43
 -10   0   3    7.28    0.51
 -10   0   3    7.56    0.56
   9   0  -3    0.19    0.30
  -9   0   3    0.29    0.09
  -9   0   3    0.33    0.13
  -9   0   3    0.35    0.06
  -9   0   3    0.37    0.05
  -8   0   3   11.25    0.88
  -8   0   3   11.76    1.08
  -8   0   3   11.08    0.82
  -8   0   3   12.28    0.86
  -8   0   3   12.98    0.69
   7   0  -3   17.10    2.25
  -7   0   3   20.89    1.40
  -7   0   3   19.44    1.71
  -7   0   3   19.26    1.66
   6   0  -3   59.70    5.28
  -6   0   3   57.21    5.02
  -6   0   3   60.94    4.14
  -6   0   3   57.33    4.68
   5   0  -3  162.75   14.08
   5   0  -3  162.89   11.98
   5   0  -3  167.18   14.86
  -5   0   3  162.11   11.74
  -5   0   3  173.81   16.88
  -5   0   3  174.97   13.14
   4   0  -3   11.26    1.23
   4   0  -3    8.14    0.94
  -4   0   3   10.17    0.69
  -4   0   3    9.48    0.85
   3   0  -3    0.18    0.11
   3   0  -3    0.08    0.37
  -3   0   3    0.07    0.19
  -3   0   3    0.19    0.16
   2   0  -3  256.00   20.33
   2   0  -3  233.00   15.62
  -2   0   3  246.05   24.62
   1   0  -3   51.58    5.22
  -1   0   3   70.95    6.09
   0   0  -3   65.69    5.77
   0   0   3   72.26    6.98
  -1   0  -3  123.84    9.04
   1   0   3   93.93   10.66
  -3   0  -3  102.03    8.17
   3   0   3   94.52    9.00
   3   0   3   97.73   10.30
   3   0   3  112.94    9.98
  -4   0  -3   54.89    4.82
  -4   0  -3   62.12    4.69
  -4   0  -3   68.19    5.04
   4   0   3   62.23    5.92
   4   0   3   54.01    6.15
   4   0   3   56.73    5.31
  -5   0  -3   17.04    1.45
  -5   0  -3   14.33    1.25
  -6   0  -3  213.50   14.69
  -6   0  -3  167.37   13.15
  -6   0  -3  185.75   15.60
   6   0   3  183.18   16.62
  -7   0  -3    0.26    0.16
  -7   0  -3    0.35    0.06
  -7   0  -3    0.21    0.33
  -7   0  -3    0.46    0.22
   7   0   3    0.31    0.17
   7   0   3    0.44    0.38
   7   0   3    0.34    1.14
  -8   0  -3    7.01    0.73
  -8   0  -3    7.24    0.63
  -8   0  -3    5.06    0.81
   8   0   3    7.11    1.00
   8   0   3    5.09    0.82
  -9   0  -3   25.17    1.76
  -9   0  -3   25.21    1.67
  10   0   3   -0.01    0.28
 -11   0  -3    5.17    0.37
 -11   0  -3    5.32    0.41
  11   0   3    4.70    0.50
 -12   0  -3    0.73    0.18
 -12   0  -3    0.77    0.09
 -12   0  -3    0.86    0.12
 -11   1   3    1.55    0.15
 -11   1   3    1.54    0.13
  10  -1  -3    4.85    0.76
 -10   1   3    6.10    0.46
 -10   1   3    6.26    0.42
 -10   1   3    5.98    0.34
   9  -1  -3   -0.06    0.26
  -9   1   3    0.04    0.05
  -9   1   3    0.02    0.07
  -9   1   3    0.05    0.11
  -9   1   3    0.05    0.04
   8  -1  -3    1.61    0.30
  -8   1   3    2.36    0.27
  -8   1   3    2.30    0.20
  -8   1   3    2.22    0.21
  -8   1   3    2.64    0.16
  -8   1   3    3.42    0.44
  -8   1   3    2.27    0.27
   7  -1  -3    9.48    1.65
  -7   1   3   10.22    1.02
  -7   1   3   12.57    1.02
  -7   1   3   11.48    0.83
   6  -1  -3    2.28    0.23
   6  -1  -3    2.69    0.83
  -6   1   3    3.32    0.29
  -6   1   3    2.71    0.22
  -6   1   3    3.13    0.43
   5  -1  -3   31.86    2.94
  -5   1   3   32.79    2.56
  -5   1   3   32.60    2.23
  -5   1   3   28.83    3.26
   4  -1  -3   40.89    3.60
  -4   1   3   39.14    2.86
  -4   1   3   43.58    4.17
  -4   1   3   38.96    3.24
   3  -1  -3    0.70    0.41
  -3   1   3    0.26    0.21
  -3   1   3    0.11    0.16
   2  -1  -3   79.39    6.46
   2  -1  -3   73.94    4.88
   1  -1  -3   18.83    1.68
   1  -1  -3   17.51    1.10
  -1   1   3   15.04    1.39
  -1   1   3   18.94    1.88
   0   1   3  134.23   13.27
  -1  -1  -3  311.21   20.12
   1   1   3  319.93   30.77
  -2  -1  -3   85.52    6.86
  -2  -1  -3   88.56    6.61
  -2  -1  -3   75.42    5.25
   2   1   3   80.13    8.07
  -3  -1  -3  547.81   41.81
  -3  -1  -3  536.37   43.09
  -3  -1  -3  470.17   33.28
   3   1   3  534.83   46.09
  -4  -1  -3    3.37    0.35
  -4  -1  -3    4.30    0.37
  -4  -1  -3    3.65    0.51
   4   1   3    3.78    0.46
   4   1   3    3.54    0.67
   5   1   3    6.74    0.76
   5   1   3    8.29    1.59
  -6  -1  -3   20.97    1.97
  -6  -1  -3   20.24    1.81
  -6  -1  -3   20.90    1.53
  -6  -1  -3   22.11    1.74
   6   1   3   23.82    2.90
   6   1   3   24.21    2.41
   6   1   3   20.37    2.04
  -7  -1  -3    0.30    0.06
  -7  -1  -3    0.32    0.21
  -7  -1  -3    0.34    0.16
  -7  -1  -3    0.44    0.34
   7   1   3    0.60    0.29
   7   1   3    0.73    1.12
   7   1   3    0.58    0.39
   7   1   3    0.30    0.19
   7   1   3    0.29    0.29
  -8  -1  -3   19.69    1.77
  -8  -1  -3   17.70    1.90
  -8  -1  -3   21.43    1.44
  -8  -1  -3   21.38    1.67
   8   1   3   17.57    1.54
   8   1   3   21.97    1.99
   8   1   3   22.34    2.97
  -9  -1  -3    7.82    0.73
  -9  -1  -3    9.36    0.61
  -9  -1  -3    8.33    0.66
  -9  -1  -3    8.65    0.80
  -9  -1  -3    9.41    0.65
   9   1   3    8.40    0.79
 -10  -1  -3   17.18    1.14
 -10  -1  -3   16.84    1.33
 -10  -1  -3   16.82    1.22
  10   1   3   16.35    1.81
  10   1   3   18.05    1.36
 -11  -1  -3    4.29    0.31
 -11  -1  -3    3.99    0.34
 -11  -1  -3    5.03    0.45
  11   1   3    3.87    0.45
 -12  -1  -3    5.04    0.35
 -12  -1  -3    4.94    0.38
 -12  -1  -3    5.28    0.45
 -11   2   3   21.03    1.36
 -11   2   3   20.61    1.43
 -10   2   3    0.11    0.10
 -10   2   3    0.26    0.07
 -10   2   3    0.21    0.04
   9  -2  -3   -0.10    0.22
  -9   2   3    0.16    0.04
  -9   2   3    0.32    0.09
  -9   2   3    0.23    0.13
  -8   2   3    3.85    0.22
  -8   2   3    3.36    0.28
  -8   2   3    3.02    0.47
  -8   2   3    3.56    0.35
  -8   2   3    3.37    0.29
  -8   2   3    3.62    0.36
   7  -2  -3   17.01    2.21
  -7   2   3   17.73    1.59
  -7   2   3   20.56    1.64
  -7   2   3   18.25    1.34
   6  -2  -3   19.03    2.06
   6  -2  -3   16.80    1.39
  -6   2   3   19.92    1.37
  -6   2   3   19.49    1.61
  -6   2   3   20.74    1.67
   5  -2  -3    6.74    1.02
   5  -2  -3    7.62    0.76
  -5   2   3    7.47    0.65
  -5   2   3    7.58    0.68
  -5   2   3    7.26    0.88
  -5   2   3    6.77    0.53
   4  -2  -3   42.01    4.00
  -4   2   3   50.16    4.70
  -4   2   3   44.30    3.23
  -4   2   3   46.38    3.65
   3  -2  -3  117.96   10.00
  -3   2   3  112.83    9.37
  -3   2   3  127.41   12.06
   2  -2  -3    2.75    0.48
   2  -2  -3    2.17    0.16
  -2   2   3    2.65    0.42
  -2   2   3    2.53    0.43
   1  -2  -3  405.44   27.59
   1  -2  -3  428.43   35.78
  -1   2   3  465.12   42.29
   0  -2  -3    8.59    0.55
   0   2   3    8.40    1.41
  -1  -2  -3   23.80    1.41
   1   2   3   19.59    2.03
   1   2   3   22.68    2.38
  -2  -2  -3   75.08    6.44
  -2  -2  -3   83.49    6.22
  -2  -2  -3   73.71    4.94
   2   2   3   79.49    7.61
   2   2   3   75.85    6.90
  -3  -2  -3    7.59    0.56
  -3  -2  -3    7.81    0.73
  -3  -2  -3    9.50    0.83
   3   2   3    9.90    1.02
   3   2   3    9.19    0.88
   3   2   3    9.98    1.22
  -4  -2  -3   76.11    6.80
  -4  -2  -3   83.60    6.55
  -4  -2  -3   81.96    6.38
   4   2   3   83.19    8.31
   4   2   3   78.13    8.02
   4   2   3   85.18    7.26
  -6  -2  -3    3.65    0.53
  -6  -2  -3    2.04    0.31
  -6  -2  -3    2.55    0.20
   6   2   3    1.58    0.40
   6   2   3    1.95    0.28
   7   2   3    4.52    0.83
  -8  -2  -3    5.74    0.58
  -8  -2  -3    5.80    0.44
  -8  -2  -3    4.24    0.76
  -8  -2  -3    5.65    0.64
   8   2   3    8.77    1.65
   8   2   3    5.77    0.85
   8   2   3    6.33    0.88
   8   2   3    5.95    0.59
 -11  -2  -3    0.17    0.09
 -11  -2  -3    0.33    0.19
 -11  -2  -3    0.19    0.07
 -12  -2  -3    1.65    0.23
 -12  -2  -3    1.54    0.13
 -12  -2  -3    1.43    0.15
 -11   3   3    8.74    0.61
 -11   3   3    8.48    0.57
 -10   3   3   11.90    0.85
 -10   3   3   12.33    0.80
 -10   3   3   11.52    0.68
  -9   3   3    5.47    0.32
  -9   3   3    5.36    0.44
  -9   3   3    5.26    0.39
  -8   3   3   23.60    1.71
  -8   3   3   24.95    1.73
  -8   3   3   26.18    1.38
  -8   3   3   20.79    2.01
  -8   3   3   24.45    1.62
  -8   3   3   25.36    2.11
   7  -3  -3    1.57    0.18
  -7   3   3    1.99    0.35
  -7   3   3    1.97    0.17
  -7   3   3    2.12    0.23
   6  -3  -3   13.48    1.58
  -6   3   3   11.30    1.12
  -6   3   3   13.67    1.14
  -6   3   3   13.29    0.93
   5  -3  -3   30.79    2.78
  -5   3   3   27.79    3.09
  -5   3   3   27.69    2.40
  -5   3   3   29.61    2.11
  -5   3   3   32.97    2.56
   4  -3  -3   44.19    4.01
  -4   3   3   44.57    3.23
  -4   3   3   43.03    3.65
  -4   3   3   51.85    4.72
   3  -3  -3    1.05    0.09
   3  -3  -3    0.43    0.40
  -3   3   3    1.34    0.10
   2  -3  -3   45.97    4.08
   2  -3  -3   45.97    3.04
  -2   3   3   48.96    4.88
  -2   3   3   49.60    4.72
   1  -3  -3  127.84   10.99
   1  -3  -3  128.43    8.41
  -1   3   3  139.45   12.94
   0   3   3    2.73    1.02
  -1  -3  -3  348.24   21.11
   1   3   3  317.92   29.23
   1   3   3  326.54   32.30
  -2  -3  -3  275.72   22.59
  -2  -3  -3  294.29   21.93
  -2  -3  -3  238.32   17.45
   2   3   3  275.36   26.69
   2   3   3  284.90   24.20
  -3  -3  -3    6.84    0.56
  -3  -3  -3    5.98    0.42
  -3  -3  -3    6.39    0.64
   3   3   3    6.77    0.74
   3   3   3    5.32    1.06
   3   3   3    7.81    0.84
  -4  -3  -3   31.63    2.50
  -4  -3  -3   32.28    2.43
  -4  -3  -3   26.73    2.62
   4   3   3   32.32    2.84
   4   3   3   31.01    3.34
   4   3   3   30.17    3.14
  -6  -3  -3    3.43    0.25
  -6  -3  -3    2.55    0.51
  -6  -3  -3    2.43    0.34
  -6  -3  -3    3.06    0.35
   6   3   3    2.95    0.48
   6   3   3    2.96    0.55
   6   3   3    4.20    1.10
   6   3   3    1.81    0.70
   6   3   3    3.23    0.36
   6   3   3    3.68    0.56
  -7  -3  -3    4.80    0.72
  -7  -3  -3    5.60    0.60
  -7  -3  -3    6.67    0.45
  -7  -3  -3    5.96    0.56
   7   3   3    5.70    0.96
   7   3   3    5.67    0.81
   7   3   3    5.10    0.55
   7   3   3    6.61    0.79
  -8  -3  -3   18.43    1.18
  -8  -3  -3   12.90    1.58
  -8  -3  -3   16.27    1.46
  -8  -3  -3   14.66    1.35
   8   3   3   15.28    1.73
   8   3   3   21.72    2.69
   8   3   3   16.89    1.73
   8   3   3   16.59    1.29
  -9  -3  -3   34.75    2.36
  -9  -3  -3   35.41    2.42
  -9  -3  -3   33.45    2.52
  -9  -3  -3   28.45    2.74
  -9  -3  -3   33.88    2.24
   9   3   3   39.15    2.57
 -10  -3  -3   31.33    2.10
 -10  -3  -3   34.15    2.38
 -10  -3  -3   30.68    2.21
  10   3   3   32.35    2.40
 -11  -3  -3    0.55    0.11
 -11  -3  -3    0.61    0.09
 -11  -3  -3    0.88    0.21
 -10   4   3    0.07    0.09
 -10   4   3    0.13    0.03
 -10   4   3    0.11    0.06
   9  -4  -3    1.07    0.22
  -9   4   3    1.63    0.11
  -9   4   3    1.45    0.21
  -9   4   3    1.64    0.16
  -8   4   3   11.85    0.82
  -8   4   3   12.37    1.07
  -8   4   3   11.00    0.89
  -8   4   3   12.28    0.87
  -8   4   3   12.53    0.69
  -7   4   3   21.86    1.83
  -7   4   3   19.87    1.75
  -7   4   3   21.09    1.50
   6  -4  -3    0.29    0.18
  -6   4   3    0.52    0.10
  -6   4   3    0.56    0.22
  -6   4   3    0.47    0.07
   5  -4  -3   27.55    2.37
  -5   4   3   26.88    2.70
  -5   4   3   26.53    2.09
  -5   4   3   22.49    2.21
  -4   4   3    8.24    1.01
  -4   4   3    8.66    0.62
   2  -4  -3    6.22    0.42
  -2   4   3    6.40    0.48
  -2   4   3    6.36    0.77
  -2   4   3    7.11    0.87
   1  -4  -3  197.12   12.41
  -1   4   3  190.24   19.65
  -1   4   3  196.93   19.05
  -1  -4  -3   33.51    2.06
   1   4   3   30.61    2.95
   2   4   3    0.73    0.47
   2   4   3    1.08    0.57
  -3  -4  -3    0.46    0.11
  -3  -4  -3    0.29    0.16
   3   4   3    0.18    0.42
   3   4   3    0.70    0.55
   3   4   3    0.55    0.30
  -4  -4  -3    1.98    0.34
  -4  -4  -3    1.68    0.19
   4   4   3    1.23    0.54
   4   4   3    2.10    0.45
   4   4   3    2.73    0.72
  -5  -4  -3   25.23    2.21
  -5  -4  -3   27.80    1.93
  -5  -4  -3   23.58    2.35
   5   4   3   30.28    3.14
   5   4   3   29.75    2.85
   5   4   3   26.39    2.35
  -6  -4  -3   11.23    0.79
  -6  -4  -3    9.22    1.06
  -6  -4  -3   10.74    0.95
   6   4   3   11.42    1.82
   6   4   3    8.86    1.39
   6   4   3   12.26    0.87
   6   4   3   10.67    1.21
   6   4   3   10.73    1.21
   6   4   3   11.02    1.10
  -7  -4  -3   51.46    3.85
  -7  -4  -3   42.44    4.17
  -7  -4  -3   49.00    3.42
  -7  -4  -3   48.71    3.98
   7   4   3   52.66    3.55
   7   4   3   43.75    4.50
   7   4   3   46.14    5.22
   7   4   3   50.69    4.25
   7   4   3   49.02    4.30
  -8  -4  -3   14.87    1.11
   8   4   3   14.81    1.22
   8   4   3   19.86    2.56
 -10  -4  -3   13.08    0.93
 -10  -4  -3   15.59    1.09
 -10  -4  -3   13.31    0.98
  10   4   3   13.84    1.10
 -11  -4  -3    1.53    0.17
 -11  -4  -3    2.60    0.28
 -11  -4  -3    1.89    0.16
 -12  -4  -3    0.98    0.17
 -10   5   3    0.05    0.05
 -10   5   3    0.03    0.08
   9  -5  -3    0.17    0.14
  -9   5   3    0.55    0.10
  -9   5   3    0.72    0.14
  -9   5   3    0.49    0.09
  -9   5   3    0.65    0.06
  -8   5   3    2.83    0.18
  -8   5   3    2.65    0.29
  -8   5   3    2.81    0.23
  -8   5   3    2.72    0.24
  -8   5   3    2.79    0.29
  -7   5   3   10.71    0.64
  -7   5   3   11.40    0.98
  -6   5   3    6.20    0.47
  -6   5   3    6.50    0.58
  -5   5   3    1.76    0.16
  -5   5   3    1.98    0.42
  -5   5   3    2.04    0.22
  -4   5   3   22.45    2.45
  -4   5   3   24.32    1.67
   3  -5  -3    9.14    0.63
  -3   5   3   10.13    0.70
  -3   5   3    9.49    0.72
  -3   5   3   10.31    1.13
   2  -5  -3   15.19    1.01
  -2   5   3   16.13    1.72
  -2   5   3   15.47    1.11
  -2   5   3   15.74    1.13
   1  -5  -3    1.63    0.12
  -1   5   3    1.85    0.54
  -1   5   3    1.62    0.15
  -1   5   3    2.40    0.55
   0  -5  -3  202.36   12.40
   0   5   3  188.98   19.05
   0   5   3  190.92   19.68
  -1  -5  -3    8.77    0.55
   1   5   3    7.35    1.43
   1   5   3   12.22    1.93
   1   5   3    7.28    0.92
  -2  -5  -3   95.88    5.68
   2   5   3   94.85    7.99
   2   5   3   87.03    8.79
   2   5   3   78.02    9.07
  -3  -5  -3    1.28    0.19
  -3  -5  -3    0.99    0.17
   3   5   3    1.43    0.69
   3   5   3    1.71    0.55
  -4  -5  -3    7.38    0.57
  -4  -5  -3    6.93    0.64
   4   5   3    7.03    0.93
   4   5   3    7.92    1.05
   5   5   3  113.02   12.11
   5   5   3  125.21   11.75
  -6  -5  -3   31.26    2.39
  -6  -5  -3   30.24    2.06
   6   5   3   24.26    3.06
   6   5   3   29.80    2.13
   6   5   3   28.30    2.80
   6   5   3   26.11    3.31
   6   5   3   29.45    2.64
  -7  -5  -3   19.04    1.55
  -7  -5  -3   17.44    1.29
   7   5   3   18.53    1.88
   7   5   3   16.68    1.89
   7   5   3   16.83    1.37
   7   5   3   18.96    2.57
  -8  -5  -3   10.50    0.66
  -8  -5  -3   10.59    0.77
  -8  -5  -3   10.57    0.82
   8   5   3   10.04    0.87
  -9  -5  -3   23.02    1.66
  -9  -5  -3   27.28    1.81
  -9  -5  -3   26.06    1.88
   9   5   3   24.82    1.91
 -11  -5  -3    0.48    0.16
  11   5   3   -1.27    1.02
 -10   6   3    1.23    0.11
  -9   6   3    0.35    0.08
  -9   6   3    0.43    0.05
  -8   6   3    8.47    0.63
  -8   6   3    8.96    0.49
  -8   6   3    8.38    0.60
  -8   6   3    8.28    0.76
  -7   6   3   20.13    1.42
  -7   6   3   20.42    1.13
  -7   6   3   19.67    1.72
  -7   6   3   18.94    1.32
  -6   6   3    4.53    0.35
  -6   6   3    4.50    0.44
  -5   6   3  106.17    8.56
  -5   6   3   89.72   10.14
  -5   6   3  104.68    7.06
  -4   6   3    4.01    0.60
  -4   6   3    4.67    0.35
  -4   6   3    4.55    0.42
   3  -6  -3   96.98    6.82
  -3   6   3  111.98    7.52
  -3   6   3  108.76   10.81
  -3   6   3  109.89    7.63
   2  -6  -3   56.06    3.63
  -2   6   3   52.95    4.00
  -2   6   3   61.23    4.06
   1  -6  -3    1.81    0.13
  -1   6   3    1.85    0.17
  -1   6   3    1.41    0.15
   0  -6  -3    2.11    0.15
   0   6   3    2.07    0.20
  -1  -6  -3    7.59    0.47
   1   6   3    7.55    1.38
   1   6   3    6.74    0.53
   1   6   3    6.92    0.88
  -2  -6  -3    9.13    0.64
  -2  -6  -3   11.50    0.83
  -2  -6  -3   10.28    0.81
   2   6   3    8.92    1.11
   2   6   3    9.34    0.73
  -3  -6  -3   58.56    4.02
  -3  -6  -3   56.79    4.54
   3   6   3   53.17    5.15
  -4  -6  -3   78.27    5.47
  -4  -6  -3   76.10    6.23
   4   6   3   77.41    7.03
  -5  -6  -3    2.05    0.22
   5   6   3    2.43    0.52
   5   6   3    3.67    0.66
  -6  -6  -3   14.95    1.08
  -6  -6  -3   14.42    1.27
   6   6   3   14.68    1.64
  -7  -6  -3    0.32    0.09
  -7  -6  -3    0.11    0.18
   7   6   3   -0.05    0.44
   7   6   3    0.97    0.59
  -8  -6  -3   10.82    0.69
  -8  -6  -3   10.97    0.80
  -8  -6  -3   10.72    0.86
 -10  -6  -3    4.75    0.44
  -8   7   3   19.90    1.09
  -8   7   3   18.61    1.67
  -7   7   3   15.86    1.14
  -7   7   3   16.20    0.90
  -7   7   3   15.20    1.37
  -6   7   3   71.39    5.00
  -6   7   3   70.42    6.06
  -5   7   3   48.67    3.41
  -5   7   3   47.72    4.13
   4  -7  -3   78.38    5.58
  -4   7   3   91.40    6.16
  -4   7   3   89.19    7.46
  -4   7   3   90.55    6.25
   3  -7  -3   19.28    1.32
  -3   7   3   22.72    1.49
  -3   7   3   17.57    1.76
  -3   7   3   22.17    1.46
   2  -7  -3   54.73    3.29
  -2   7   3   44.84    3.63
  -2   7   3   54.66    3.69
   1  -7  -3    0.06    0.03
   0  -7  -3    4.58    0.32
   0   7   3    4.61    0.38
   0   7   3    5.02    0.36
  -1  -7  -3    3.15    0.44
  -1  -7  -3    3.76    0.27
   1   7   3    4.78    0.33
  -2  -7  -3   63.29    4.35
  -2  -7  -3   57.17    3.86
   2   7   3   60.66    5.53
   2   7   3   61.04    4.33
  -3  -7  -3  210.99   14.16
  -3  -7  -3  206.57   16.09
   3   7   3  184.22   17.88
  -4  -7  -3    1.82    0.23
  -4  -7  -3    1.81    0.24
   4   7   3    2.18    0.60
  -5  -7  -3    7.19    0.52
  -5  -7  -3    5.54    0.59
  -6  -7  -3   16.31    1.16
  -6  -7  -3   16.63    1.37
   6   7   3   14.36    1.70
   6   7   3   14.66    1.78
  -7  -7  -3   80.53    4.96
  -7  -7  -3   81.00    5.71
   8   7   3   28.21    3.95
  -9  -7  -3   12.96    0.95
   9   7   3   13.18    1.58
 -11  -7  -3    2.23    0.25
  11   7   3    2.33    1.01
  -8   8   3    4.09    0.24
  -7   8   3    4.03    0.24
  -7   8   3    3.75    0.37
  -6   8   3    2.52    0.29
  -6   8   3    2.67    0.18
  -6   8   3    3.24    0.25
  -5   8   3   33.93    2.27
  -5   8   3   29.73    2.74
   4  -8  -3   52.73    3.66
  -4   8   3   60.19    4.11
  -4   8   3   56.94    4.05
  -4   8   3   58.97    4.90
   3  -8  -3    1.55    0.13
  -3   8   3    1.62    0.22
   2  -8  -3   36.28    2.34
  -2   8   3   32.78    2.58
  -2   8   3   36.02    3.13
  -2   8   3   40.42    2.62
   1  -8  -3   29.19    1.78
  -1   8   3   29.89    1.99
  -1   8   3   23.57    1.96
   0  -8  -3   16.40    1.08
   0   8   3   18.05    1.19
   0   8   3   15.36    1.21
  -2  -8  -3    3.05    0.22
   2   8   3    3.76    0.68
   2   8   3    3.32    0.28
  -3  -8  -3   40.57    2.81
   3   8   3   36.51    3.42
   4   8   3   40.03    3.56
   4   8   3   33.85    3.31
  -6  -8  -3   24.47    2.03
  -6  -8  -3   23.20    1.74
   6   8   3   23.81    2.39
   6   8   3   24.95    2.56
  -7  -8  -3   11.36    0.88
  -7  -8  -3   12.47    0.75
  -7  -8  -3   11.35    0.91
   7   8   3   12.91    1.63
   8   8   3    3.45    0.86
  -9  -8  -3   19.45    1.42
  -9  -8  -3   19.84    1.18
   9   8   3   15.60    2.07
 -10  -8  -3   10.30    0.79
  10   8   3    9.84    1.86
  -7   9   3    5.89    0.34
  -6   9   3   45.39    3.30
  -6   9   3   47.87    2.63
  -5   9   3   35.52    2.53
   4  -9  -3    6.19    0.44
  -4   9   3    6.84    0.51
  -4   9   3    6.55    0.60
  -4   9   3    6.34    0.50
   3  -9  -3   40.66    2.60
  -3   9   3   42.43    3.47
  -3   9   3   41.52    2.91
  -3   9   3   36.78    2.86
   2  -9  -3   22.30    1.63
   2  -9  -3   24.36    1.47
  -2   9   3   23.13    1.65
  -2   9   3   20.09    1.62
  -2   9   3   23.74    1.98
   1  -9  -3   15.99    0.95
   1  -9  -3   13.96    1.04
  -1   9   3   14.05    1.04
  -1   9   3   12.52    1.30
  -1   9   3   15.40    1.06
   0  -9  -3    3.81    0.25
   0  -9  -3    3.51    0.26
   0   9   3    3.46    0.30
   0   9   3    2.65    0.54
  -1  -9  -3    0.81    0.07
  -1  -9  -3    0.67    0.07
  -1  -9  -3    0.62    0.25
   1   9   3    0.71    0.12
  -2  -9  -3    6.55    0.62
  -2  -9  -3    6.26    0.48
  -2  -9  -3    6.82    0.44
   2   9   3    6.70    0.51
   2   9   3    6.06    0.94
  -3  -9  -3    8.22    0.65
   3   9   3    7.15    1.03
   3   9   3    5.76    1.09
  -4  -9  -3    5.52    0.49
   4   9   3    4.95    0.91
   5   9   3   31.84    2.89
   5   9   3   29.14    3.07
  -6  -9  -3    0.67    0.08
  -6  -9  -3    0.53    0.14
   6   9   3    1.21    0.58
   6   9   3    0.82    0.81
   7   9   3    1.97    1.38
   7   9   3    1.20    0.84
  -8  -9  -3   13.10    0.99
  -8  -9  -3   13.58    1.03
  -8  -9  -3   13.95    0.85
  -6  10   3    7.94    0.46
  -5  10   3   16.65    0.91
  -5  10   3   15.06    0.95
  -4  10   3   50.82    3.55
  -4  10   3   47.92    3.50
   3 -10  -3    0.36    0.05
   3 -10  -3    0.32    0.07
  -3  10   3    0.37    0.09
  -3  10   3    0.38    0.10
   2 -10  -3    5.53    0.34
   2 -10  -3    4.74    0.36
  -2  10   3    4.76    0.39
  -2  10   3    4.20    0.38
   1 -10  -3   42.86    3.21
   1 -10  -3   46.19    2.88
  -1  10   3   45.27    3.22
   0 -10  -3    8.38    0.62
   0 -10  -3    8.95    0.57
   0  10   3    8.00    0.64
   0  10   3    8.10    0.97
  -1 -10  -3    9.04    0.85
  -1 -10  -3    9.70    0.70
  -1 -10  -3    9.75    0.64
   1  10   3    9.59    0.73
   1  10   3    9.67    1.21
  -2 -10  -3    3.59    0.43
  -2 -10  -3    3.25    0.25
   2  10   3    3.74    0.74
   2  10   3    2.69    0.72
   2  10   3    3.43    0.30
  -3 -10  -3   31.81    2.21
   3  10   3   27.47    2.93
  -4 -10  -3    0.70    0.19
   4  10   3    0.54    0.71
   4  10   3    0.70    0.57
  -5 -10  -3    2.03    0.25
  -5 -10  -3    2.00    0.16
   5  10   3    1.75    0.82
   5  10   3    3.95    0.79
  -6 -10  -3   36.15    2.17
  -6 -10  -3   34.06    2.53
   6  10   3   35.22    3.68
  -7 -10  -3    3.59    0.24
  -7 -10  -3    3.17    0.29
   7  10   3    4.07    0.68
   7  10   3    2.51    0.94
   7  10   3    0.82    1.47
   8  10   3   33.43    4.43
   8  10   3   31.97    3.12
  -9 -10  -3   17.66    1.08
  -9 -10  -3   17.28    1.30
  -5  11   3   10.37    0.69
  -5  11   3   12.08    0.65
   4 -11  -3   91.12    6.32
  -4  11   3   90.65    4.96
  -4  11   3   86.23    6.32
  -4  11   3   84.92    5.15
   3 -11  -3   13.15    0.92
  -3  11   3   12.26    0.95
  -3  11   3   12.62    0.74
   2 -11  -3    0.97    0.09
   2 -11  -3    0.97    0.11
  -2  11   3    1.03    0.15
   1 -11  -3  110.95    7.88
   1 -11  -3  115.45    7.04
  -1  11   3  103.52    7.86
   0 -11  -3    0.90    0.09
   0 -11  -3    1.72    0.38
   0 -11  -3    0.93    0.10
   0  11   3    0.99    0.15
  -1 -11  -3    1.82    0.36
  -1 -11  -3    1.82    0.15
  -1 -11  -3    1.80    0.15
   1  11   3    1.60    0.20
  -2 -11  -3   16.80    1.22
  -2 -11  -3   16.95    1.33
   2  11   3   16.89    1.25
  -3 -11  -3   17.55    1.42
   3  11   3   20.12    2.08
  -4 -11  -3   58.46    3.63
  -4 -11  -3   55.28    4.22
   4  11   3   63.53    6.03
  -5 -11  -3  116.33    6.52
  -5 -11  -3   97.64    7.52
   5  11   3  104.60   10.73
  -6 -11  -3   10.17    0.84
  -6 -11  -3   11.90    0.71
   7  11   3    1.03    0.47
   7  11   3   -0.24    1.38
   7  11   3   -0.82    0.78
   5 -12  -3    8.89    0.68
  -5  12   3    9.35    0.58
  -5  12   3    9.88    0.54
   4 -12  -3    7.00    0.52
  -4  12   3    7.37    0.42
  -4  12   3    7.09    0.45
  -4  12   3    6.99    0.55
   3 -12  -3   25.41    1.74
  -3  12   3   23.70    1.43
  -3  12   3   21.23    1.56
  -3  12   3   25.57    1.38
  -3  12   3   24.25    1.76
   2 -12  -3  107.01    7.23
  -2  12   3  103.06    5.55
  -2  12   3   97.80    5.88
  -2  12   3  100.16    7.21
  -2  12   3  101.25    5.68
  -2  12   3   95.41    6.32
   1 -12  -3   58.71    3.85
   1 -12  -3   44.74    3.92
  -1  12   3   51.76    5.42
  -1  12   3   53.92    3.85
  -1  12   3   55.28    2.96
  -1  12   3   55.39    3.40
   0 -12  -3   56.94    3.86
   0  12   3   50.31    5.44
   0  12   3   55.68    3.41
   0  12   3   51.88    3.86
  -1 -12  -3   16.65    1.14
  -1 -12  -3   13.32    1.24
  -1 -12  -3   15.03    0.98
   1  12   3   15.77    1.16
   1  12   3   15.99    1.71
   1  12   3   16.56    1.07
  -2 -12  -3    4.77    0.50
  -2 -12  -3    4.77    0.32
   2  12   3    5.15    0.81
   2  12   3    5.68    0.44
   2  12   3    4.72    0.41
  -3 -12  -3    7.58    0.68
  -3 -12  -3    8.21    0.52
   3  12   3    8.91    1.11
  -4 -12  -3   11.32    0.99
  -4 -12  -3   13.74    0.82
   4  12   3   13.89    1.55
  -5 -12  -3    0.30    0.11
  -5 -12  -3    0.18    0.06
   5  12   3    0.89    0.43
   5  12   3   -1.19    0.77
  -6 -12  -3    0.31    0.06
   6  12   3    0.27    0.44
  -7 -12  -3    9.39    0.56
   7  12   3    7.65    1.07
  -8 -12  -3    9.47    0.59
  -6  13   3    1.91    0.13
  -5  13   3    7.20    0.45
   4 -13  -3    0.23    0.04
  -4  13   3    0.51    0.09
  -4  13   3    0.11    0.05
   3 -13  -3    7.84    0.55
  -3  13   3    6.85    0.55
  -3  13   3    7.68    0.48
  -3  13   3    7.57    0.45
   2 -13  -3    0.71    0.08
  -2  13   3    0.68    0.10
  -2  13   3    0.49    0.18
  -2  13   3    0.64    0.11
  -2  13   3    0.60    0.06
  -2  13   3    0.53    0.12
  -1  13   3    0.46    0.07
  -1  13   3    0.77    0.11
  -1  13   3    1.10    0.21
  -1  13   3    0.47    0.12
  -1  13   3    0.49    0.12
   0 -13  -3   13.43    0.94
   0  13   3   12.84    1.43
   0  13   3   14.18    0.91
   0  13   3   12.81    0.73
   0  13   3   12.57    0.97
   0  13   3   12.07    0.79
  -1 -13  -3    7.45    0.50
  -1 -13  -3    8.07    0.58
   1  13   3    7.69    0.46
   1  13   3    8.39    0.61
   1  13   3    8.22    1.00
   1  13   3    7.51    0.61
  -2 -13  -3   64.32    4.12
  -2 -13  -3   58.68    4.80
   2  13   3   69.57    3.71
   2  13   3   67.76    4.82
   2  13   3   76.33    4.26
   2  13   3   66.33    6.79
  -3 -13  -3    7.54    0.70
  -3 -13  -3    8.84    0.56
  -3 -13  -3    9.06    0.56
   3  13   3    9.42    1.09
  -4 -13  -3    0.52    0.07
  -4 -13  -3    0.37    0.13
   4  13   3    0.83    0.42
  -5 -13  -3    1.50    0.13
   5  13   3    2.39    0.47
  -6 -13  -3    0.59    0.08
   6  13   3    0.74    0.38
  -7 -13  -3    0.02    0.04
   7  13   3    0.15    0.29
  -8 -13  -3    0.80    0.07
  -6  14   3    0.88    0.06
  -5  14   3    2.47    0.17
  -4  14   3    9.00    0.55
   3 -14  -3    2.18    0.16
  -3  14   3    2.11    0.18
  -3  14   3    2.07    0.14
  -3  14   3    1.65    0.23
   2 -14  -3   13.91    0.94
  -2  14   3   11.07    0.87
  -2  14   3   13.13    0.75
  -2  14   3   12.98    0.78
   1 -14  -3    0.99    0.09
  -1  14   3    1.03    0.20
  -1  14   3    0.93    0.12
  -1  14   3    0.84    0.12
  -1  14   3    0.87    0.09
   0 -14  -3    0.45    0.06
   0  14   3    0.43    0.07
   0  14   3    0.23    0.09
   0  14   3    0.41    0.17
  -1 -14  -3    0.41    0.06
  -1 -14  -3    0.50    0.07
   1  14   3    0.88    0.30
   1  14   3    0.46    0.07
   1  14   3    0.40    0.18
  -2 -14  -3    1.19    0.10
   2  14   3    1.21    0.11
  -4 -14  -3    3.09    0.22
   4  14   3    3.71    0.60
   5  14   3    2.61    0.56
  -6 -14  -3   37.18    2.11
   6  14   3   31.15    3.49
  -7 -14  -3    2.83    0.19
  -5  15   3    1.05    0.08
  -4  15   3    0.38    0.07
  -3  15   3   37.34    2.07
  -3  15   3   33.14    2.23
   2 -15  -3    5.88    0.42
  -2  15   3    5.78    0.37
  -2  15   3    5.04    0.43
  -2  15   3    5.71    0.34
   1 -15  -3    0.63    0.07
  -1  15   3    0.61    0.10
  -1  15   3    0.66    0.06
  -1  15   3    0.65    0.17
  -1  15   3    0.81    0.10
   0 -15  -3    0.34    0.05
   0  15   3    0.35    0.16
   0  15   3    0.30    0.08
  -1 -15  -3    0.05    0.04
   1  15   3    0.07    0.23
   1  15   3    0.08    0.05
  -2 -15  -3   10.21    0.61
  -2 -15  -3    9.01    0.60
   2  15   3    9.58    1.07
   2  15   3    9.30    0.55
  -3 -15  -3   16.25    1.02
  -3 -15  -3   15.45    1.01
   3  15   3   17.41    1.72
   3  15   3   15.86    0.91
   4  15   3    0.61    0.27
  -5 -15  -3   52.16    3.29
   5  15   3   55.04    5.41
  -6 -15  -3    0.62    0.06
  -4  16   3    1.89    0.12
   3 -16  -3    5.13    0.35
  -3  16   3    6.16    0.35
   2 -16  -3   13.85    0.92
  -2  16   3   15.55    0.88
  -1  16   3    0.06    0.05
  -1  16   3    0.04    0.06
   0 -16  -3   18.37    1.18
   0  16   3   18.98    1.04
   0  16   3   19.07    1.12
   0  16   3   19.26    1.08
  -1 -16  -3    2.15    0.15
   1  16   3    2.20    0.14
   1  16   3    2.13    0.17
  -2 -16  -3    5.77    0.41
  -2 -16  -3    6.65    0.41
   2  16   3    6.87    0.37
  -3 -16  -3    2.81    0.19
  -3 -16  -3    2.76    0.19
   3  16   3    2.99    0.18
   4  16   3   10.00    0.58
   4  16   3   10.49    1.10
   1 -17  -3    0.05    0.02
  -1  17   3    0.11    0.04
   0 -17  -3    1.22    0.09
   0  17   3    1.20    0.09
  -1 -17  -3    2.78    0.19
   1  17   3    2.98    0.18
   2  17   3    5.02    0.29
   2  17   3    4.73    0.28
   3  17   3   10.02    0.56
  -1 -16   4    0.06    0.03
   0  16  -4    2.71    0.17
   0 -16   4    3.14    0.20
  -1  16  -4    9.82    0.76
  -1  16  -4   11.20    0.68
   1 -16   4   12.34    0.70
  -2  16  -4    0.86    0.10
  -2  16  -4    0.82    0.17
   2 -16   4    0.69    0.07
  -3  16  -4    0.28    0.14
  -3  16  -4    0.15    0.07
   3 -16   4    0.18    0.04
  -4  16  -4   15.17    0.90
   3  15  -4   10.21    0.62
  -3 -15   4   11.49    0.68
   2  15  -4    1.64    0.13
  -2 -15   4    1.50    0.12
   1  15  -4    6.42    0.37
  -1 -15   4    6.03    0.40
   0  15  -4   10.78    0.61
   0  15  -4   10.11    0.65
   0 -15   4   11.03    0.67
  -1  15  -4    9.48    0.69
  -1  15  -4    9.66    0.53
  -1  15  -4    8.74    0.58
   1 -15   4    9.80    0.60
  -2  15  -4    0.03    0.17
  -2  15  -4    0.09    0.08
   2 -15   4    0.05    0.04
  -3  15  -4    0.31    0.17
  -3  15  -4    0.39    0.08
  -4  15  -4    4.76    0.31
  -4  15  -4    4.76    0.39
  -5  15  -4    2.67    0.26
  -5  15  -4    2.91    0.19
  -3 -14   4    1.44    0.16
  -3 -14   4    1.74    0.12
   2  14  -4    6.83    0.41
  -2 -14   4    6.61    0.43
   1  14  -4    0.28    0.08
  -1 -14   4    0.37    0.06
   0  14  -4    0.67    0.11
   0  14  -4    0.66    0.09
   0 -14   4    0.71    0.09
  -1  14  -4   14.48    0.88
  -1  14  -4   15.70    1.02
  -1  14  -4   15.89    0.82
   1 -14   4   12.24    1.13
   1 -14   4   14.70    1.06
  -2  14  -4    4.26    0.24
  -2  14  -4    3.74    0.40
  -2  14  -4    4.21    0.29
   2 -14   4    3.83    0.31
  -3  14  -4   12.15    0.84
  -3  14  -4   11.41    0.73
   3 -14   4   12.15    0.87
  -4  14  -4    2.92    0.30
  -4  14  -4    2.68    0.20
   4 -14   4    2.54    0.21
  -5  14  -4    3.41    0.23
  -5  14  -4    3.34    0.31
  -6  14  -4    1.31    0.11
  -6  14  -4    1.27    0.17
  -6 -13   4    0.57    0.09
   5  13  -4    2.60    0.58
  -5 -13   4    2.04    0.20
   4  13  -4    1.61    0.54
  -4 -13   4    1.35    0.16
   3  13  -4    1.09    0.56
  -3 -13   4    1.83    0.13
  -3 -13   4    1.55    0.18
  -2 -13   4    0.71    0.12
  -2 -13   4    0.69    0.08
   1  13  -4    0.24    0.08
  -1 -13   4    0.34    0.06
   0  13  -4    8.55    0.52
   0  13  -4    9.10    0.56
   0 -13   4    8.38    0.70
   0 -13   4    9.22    0.65
  -1  13  -4   30.65    2.00
  -1  13  -4   30.46    1.70
  -1  13  -4   28.64    1.81
   1 -13   4   32.08    2.20
  -2  13  -4    2.92    0.36
  -2  13  -4    3.32    0.21
  -2  13  -4    3.29    0.25
   2 -13   4    3.31    0.26
  -3  13  -4    9.90    0.77
  -3  13  -4   11.19    0.97
  -3  13  -4   10.21    0.65
   3 -13   4   10.81    0.77
   3 -13   4   10.62    0.77
  -4  13  -4    2.27    0.30
  -4  13  -4    2.36    0.47
  -4  13  -4    2.58    0.20
   4 -13   4    2.35    0.19
   4 -13   4    2.38    0.19
  -5  13  -4    0.55    0.10
  -5  13  -4    0.51    0.33
  -5  13  -4    0.72    0.18
   5 -13   4    0.79    0.08
   5 -13   4    0.75    0.08
  -6  13  -4    0.17    0.06
  -6  13  -4    0.10    0.13
  -7 -12   4   14.29    1.05
   6  12  -4    0.04    0.51
  -6 -12   4    0.05    0.08
   5  12  -4    4.41    0.91
  -5 -12   4    3.32    0.30
   4  12  -4    4.33    0.89
  -4 -12   4    5.37    0.42
   3  12  -4   22.29    1.60
  -3 -12   4   21.41    1.30
  -3 -12   4   18.97    1.53
   2  12  -4   13.01    1.03
   2  12  -4   12.54    1.02
  -2 -12   4   12.95    0.99
  -2 -12   4   14.05    0.83
   1  12  -4    8.93    0.50
   1  12  -4    9.45    0.90
   1  12  -4    8.11    0.67
   1  12  -4    8.58    0.68
  -1 -12   4    7.88    0.67
  -1 -12   4    7.77    0.64
   0  12  -4   23.14    1.34
   0  12  -4   22.40    1.26
   0  12  -4   22.36    1.66
   0 -12   4   20.41    1.74
   0 -12   4   23.39    1.62
  -1  12  -4   39.52    2.40
  -1  12  -4   38.58    2.62
  -1  12  -4   39.61    2.25
  -1  12  -4   38.74    2.95
   1 -12   4   43.13    2.93
   1 -12   4   43.53    2.93
  -2  12  -4   31.40    2.46
  -2  12  -4   33.62    2.00
  -2  12  -4   35.16    2.34
  -2  12  -4   33.27    1.87
  -2  12  -4   32.47    2.20
   2 -12   4   36.93    2.44
  -3  12  -4    0.57    0.11
  -3  12  -4    0.26    0.44
  -3  12  -4    0.45    0.06
  -3  12  -4    0.53    0.19
   3 -12   4    0.51    0.08
  -4  12  -4    0.52    0.10
  -4  12  -4    0.33    0.40
  -4  12  -4    0.65    0.19
   4 -12   4    0.54    0.07
  -5  12  -4   38.10    2.32
  -5  12  -4   35.56    2.38
  -5  12  -4   37.35    2.13
   5 -12   4   33.41    2.59
  -6  12  -4   13.10    0.99
  -6  12  -4   13.62    0.80
  -6  12  -4   13.08    0.90
   7  11  -4    3.74    0.77
  -7 -11   4    4.22    0.34
   6  11  -4   46.03    4.96
  -6 -11   4   49.27    3.45
   5  11  -4    3.82    0.88
   4  11  -4   58.12    7.04
  -4 -11   4   71.73    4.95
  -4 -11   4   75.33    4.75
   3  11  -4    3.76    0.40
   3  11  -4    2.88    1.28
   3  11  -4    4.49    0.39
  -3 -11   4    3.75    0.35
  -3 -11   4    4.42    0.28
   2  11  -4   14.33    2.30
   2  11  -4   21.97    1.59
   2  11  -4   18.83    1.42
   2  11  -4   18.70    1.39
  -2 -11   4   18.12    1.43
  -2 -11   4   16.60    1.35
  -2 -11   4   18.89    1.15
   1  11  -4    6.91    0.55
   1  11  -4    7.53    0.78
   1  11  -4    4.81    1.20
   1  11  -4    6.49    0.55
  -1 -11   4    5.90    0.51
   0  11  -4   28.03    2.07
   0  11  -4   28.28    2.01
   0 -11   4   26.47    1.97
   0 -11   4   26.39    1.97
  -1  11  -4    0.35    0.46
  -1  11  -4    0.12    0.13
  -1  11  -4    0.40    0.11
   1 -11   4    0.12    0.06
  -2  11  -4   31.48    2.25
  -2  11  -4   32.06    2.11
  -2  11  -4   31.41    2.37
   2 -11   4   34.85    2.35
  -3  11  -4    3.27    0.55
  -3  11  -4    2.55    0.27
  -3  11  -4    2.73    0.17
  -3  11  -4    3.02    0.33
   3 -11   4    2.47    0.22
  -4  11  -4   11.18    0.78
  -4  11  -4   11.34    0.68
  -4  11  -4   11.40    0.99
   4 -11   4   10.42    0.80
  -5  11  -4   29.74    1.75
  -5  11  -4   29.44    2.01
  -5  11  -4   30.52    1.92
   5 -11   4   28.74    2.13
  -6  11  -4   15.88    1.05
  -6  11  -4   15.36    1.14
  -8 -10   4    6.37    0.50
   7  10  -4    2.73    0.71
  -7 -10   4    1.93    0.21
   6  10  -4    0.49    0.67
  -6 -10   4    0.15    0.10
   4  10  -4   -0.33    1.11
   4  10  -4    0.90    0.21
   4  10  -4    0.75    0.69
  -4 -10   4    0.93    0.14
  -4 -10   4    0.95    0.15
   3  10  -4    0.20    0.16
   3  10  -4    0.35    0.12
   3  10  -4   -0.07    0.64
   3  10  -4   -0.91    1.04
  -3 -10   4    0.32    0.10
   2  10  -4    3.35    1.32
   2  10  -4    4.87    0.42
   2  10  -4    4.65    0.43
   1  10  -4    8.00    1.52
   1  10  -4    8.12    0.66
  -1 -10   4    9.17    0.79
  -1 -10   4    7.91    0.61
   0  10  -4   44.05    2.97
   0  10  -4   41.58    3.88
   0 -10   4   40.60    3.37
   0 -10   4   37.58    2.94
  -1  10  -4    0.46    0.73
  -1  10  -4    0.20    0.12
   1 -10   4    0.31    0.19
   1 -10   4    0.26    0.06
  -2  10  -4    1.20    0.18
   2 -10   4    1.67    0.28
   2 -10   4    1.16    0.12
  -3  10  -4   21.29    1.64
   3 -10   4   23.34    1.90
   3 -10   4   22.51    1.62
  -4  10  -4    1.12    0.39
   4 -10   4    0.59    0.09
  -5  10  -4   13.47    0.90
  -5  10  -4   13.74    1.03
  -5  10  -4   12.73    0.80
  -6  10  -4   24.81    1.71
  -6  10  -4   25.64    1.64
   8   9  -4    3.79    0.76
  -8  -9   4    3.56    0.31
   7   9  -4   15.59    1.88
  -7  -9   4   16.13    1.19
   5   9  -4    1.71    0.64
   5   9  -4    1.93    0.28
   5   9  -4    1.81    0.99
  -5  -9   4    2.11    0.22
   4   9  -4   20.49    1.45
  -4  -9   4   18.60    1.42
  -4  -9   4   18.55    1.37
   3   9  -4    3.44    1.15
   2   9  -4   -0.57    0.96
   1   9  -4    9.99    0.73
  -1  -9   4    8.68    0.68
  -1  -9   4    8.71    0.68
  -1  -9   4   10.02    0.85
   0   9  -4   13.69    0.95
   0   9  -4   14.30    1.70
   0  -9   4   12.17    1.11
   0  -9   4   11.49    0.92
  -1   9  -4    8.67    1.16
  -1   9  -4    8.06    0.63
   1  -9   4    8.39    0.75
   1  -9   4    7.67    0.59
  -2   9  -4   23.79    1.80
   2  -9   4   24.14    1.78
   2  -9   4   26.06    2.07
  -3   9  -4    1.60    0.19
  -3   9  -4    3.14    0.66
   3  -9   4    1.52    0.15
   3  -9   4    1.79    0.29
   4  -9   4   14.58    1.27
  -6   9  -4    7.62    0.54
  -6   9  -4    7.49    0.66
  -9  -8   4   22.35    1.63
  -8  -8   4   13.58    1.01
   7   8  -4    2.10    0.63
   5   8  -4   15.26    1.17
   4   8  -4    3.48    1.02
   4   8  -4    3.52    0.36
   3   8  -4    3.64    0.32
   3   8  -4    4.02    1.03
  -3  -8   4    2.35    0.35
   2   8  -4   43.40    4.17
   2   8  -4   42.05    3.14
  -2  -8   4   44.69    3.56
   1   8  -4   12.51    0.88
  -1  -8   4   10.20    0.84
  -1  -8   4   12.26    1.02
   0  -8   4   16.32    1.31
   0  -8   4   20.25    1.54
  -1   8  -4   50.37    3.60
   1  -8   4   55.42    4.10
   1  -8   4   44.99    3.60
  -3   8  -4   15.02    1.12
   3  -8   4   15.61    1.32
   3  -8   4   15.00    1.12
   8   7  -4    1.30    0.55
  -8  -7   4    1.17    0.17
  -8  -7   4    1.29    0.10
   7   7  -4    8.41    1.35
  -7  -7   4   10.39    0.76
  -7  -7   4    9.99    0.79
  -7  -7   4    9.62    0.57
   6   7  -4   37.99    4.36
   6   7  -4   40.44    4.02
  -6  -7   4   43.38    3.01
  -6  -7   4   42.05    2.34
  -6  -7   4   42.79    2.98
   5   7  -4   73.10    6.40
  -5  -7   4   71.93    4.92
  -5  -7   4   64.62    4.79
   4   7  -4    2.35    0.84
   4   7  -4    2.69    0.29
  -4  -7   4    2.29    0.31
   3   7  -4    0.04    0.67
   3   7  -4    0.27    0.12
  -3  -7   4    0.11    0.14
   2   7  -4    9.77    0.74
   2   7  -4    8.95    1.31
  -2  -7   4    9.51    0.85
   1   7  -4   15.88    1.89
   1   7  -4   15.91    1.19
  -1  -7   4   16.23    1.36
  -1   7  -4   28.94    2.20
  -1   7  -4   31.58    2.90
   1  -7   4   31.30    2.51
  -2   7  -4  253.05   18.54
   2  -7   4  267.52   20.86
  -3   7  -4    2.70    0.62
  -3   7  -4    1.53    0.63
   3  -7   4    1.90    0.28
  -4   7  -4   12.39    1.35
   4  -7   4   11.26    1.02
  -5   7  -4   11.65    1.26
   5  -7   4    9.44    0.91
  -6   7  -4   17.16    1.66
   6  -7   4   14.37    1.33
   9   6  -4    1.64    0.49
  -9  -6   4    1.64    0.19
  -9  -6   4    1.72    0.11
   8   6  -4    8.23    1.32
  -8  -6   4   11.12    0.60
  -8  -6   4   10.88    0.80
   7   6  -4    2.86    0.71
  -7  -6   4    2.79    0.28
  -7  -6   4    2.60    0.34
  -7  -6   4    2.79    0.18
   6   6  -4   30.12    3.53
   6   6  -4   33.12    2.43
   6   6  -4   32.09    3.27
  -6  -6   4   31.98    2.39
  -6  -6   4   34.51    1.86
  -6  -6   4   34.60    2.39
   5   6  -4    2.27    0.28
   4   6  -4   15.11    1.06
   4   6  -4   11.42    1.54
   4   6  -4   12.50    1.59
   4   6  -4   14.78    1.58
  -4  -6   4   14.07    1.20
   3   6  -4    7.33    1.06
   3   6  -4    7.82    1.10
   3   6  -4    8.18    0.62
  -3  -6   4    7.56    0.71
   2   6  -4   32.19    3.06
   2   6  -4   32.77    2.32
   2   6  -4   31.36    2.91
  -2  -6   4   31.60    2.63
   1   6  -4  131.59   12.22
   1   6  -4  142.81    9.86
  -1  -6   4  139.20   11.09
   0   6  -4    5.14    0.92
   0   6  -4    4.81    0.34
   0   6  -4    5.70    0.70
   0  -6   4    3.79    0.42
   0  -6   4    3.36    0.38
  -1   6  -4   17.20    1.33
  -1   6  -4   18.93    1.86
   1  -6   4   18.72    1.52
   1  -6   4   18.81    1.53
  -2   6  -4   54.78    4.10
  -2   6  -4   56.20    5.14
   2  -6   4   60.75    4.64
  -4   6  -4    0.82    0.47
  -4   6  -4    0.05    0.45
   4  -6   4    0.50    0.19
  -5   6  -4    1.82    0.56
  -5   6  -4    0.98    0.48
   5  -6   4    0.36    0.20
  -6   6  -4    9.76    1.10
   6  -6   4    8.89    0.88
  -7   6  -4    6.49    0.93
   7  -6   4    6.12    0.66
   8   5  -4    4.47    0.93
  -8  -5   4    5.32    0.45
  -8  -5   4    5.71    0.32
   7   5  -4    4.23    0.98
   7   5  -4    5.92    1.17
  -7  -5   4    5.26    0.45
  -7  -5   4    5.54    0.40
  -7  -5   4    5.61    0.52
  -7  -5   4    5.23    0.32
   5   5  -4    7.83    1.43
   5   5  -4    9.67    0.74
   5   5  -4    8.65    1.24
  -5  -5   4    9.27    0.67
  -5  -5   4    9.45    0.86
  -5  -5   4    9.05    0.84
   4   5  -4   49.04    4.63
   4   5  -4   51.47    4.64
   4   5  -4   50.16    3.68
  -4  -5   4   55.33    4.08
  -4  -5   4   48.31    4.14
   3   5  -4   20.20    1.96
   3   5  -4   18.56    2.02
   3   5  -4   15.95    1.91
   3   5  -4   21.07    1.45
  -3  -5   4   21.51    1.63
  -3  -5   4   19.90    1.64
   2   5  -4   25.36    2.39
   2   5  -4   26.00    1.82
   2   5  -4   24.77    2.45
  -2  -5   4   24.28    2.06
   1   5  -4   91.02    8.48
   1   5  -4   83.44    8.03
   1   5  -4  104.73    6.82
  -1  -5   4  100.86    7.67
   0   5  -4    1.90    0.36
   0   5  -4    2.58    0.64
   0  -5   4    1.69    0.19
   0  -5   4    2.02    0.24
  -1   5  -4   10.11    1.34
  -1   5  -4   11.73    0.92
  -1   5  -4   15.58    1.26
   1  -5   4   13.27    1.06
   1  -5   4   12.84    1.07
  -2   5  -4    1.46    0.51
  -2   5  -4    0.84    0.44
   2  -5   4    0.90    0.12
   2  -5   4    0.65    0.17
  -3   5  -4   18.34    1.82
  -3   5  -4   18.18    1.66
  -3   5  -4   17.99    1.73
   3  -5   4   18.79    1.52
   3  -5   4   18.31    1.54
  -4   5  -4    1.66    0.48
  -4   5  -4    3.04    0.61
  -4   5  -4    1.90    0.40
   4  -5   4    1.65    0.30
  -5   5  -4   76.63    5.75
  -5   5  -4   66.48    5.62
  -5   5  -4   68.72    6.09
   5  -5   4   59.42    5.34
  -6   5  -4    0.73    0.40
  -6   5  -4    0.62    0.29
   6  -5   4    0.78    0.29
  -7   5  -4   36.32    3.05
  -7   5  -4   32.03    2.99
  -8   5  -4    1.90    0.36
   8  -5   4    2.34    0.51
  -9   5  -4    6.21    0.64
 -10   5  -4    0.08    0.09
 -11   5  -4    2.19    0.20
  10   4  -4   12.53    1.56
 -10  -4   4   15.96    0.82
  -9  -4   4    9.13    0.71
  -9  -4   4    9.45    0.54
   8   4  -4    2.60    0.70
   8   4  -4    2.21    0.82
  -8  -4   4    3.11    0.19
  -8  -4   4    2.96    0.23
  -8  -4   4    2.68    0.28
   7   4  -4    5.17    1.17
   7   4  -4    6.14    0.94
   7   4  -4    6.18    1.07
  -7  -4   4    6.89    0.38
  -7  -4   4    6.27    0.52
  -7  -4   4    6.07    0.66
  -7  -4   4    6.43    0.58
  -7  -4   4    6.29    0.47
   6   4  -4    0.20    0.53
   6   4  -4    0.48    0.35
   6   4  -4    1.64    0.64
   6   4  -4    0.16    0.16
   6   4  -4    0.31    0.95
   6   4  -4    0.38    0.58
  -6  -4   4    0.18    0.06
  -6  -4   4    0.06    0.23
  -6  -4   4    0.31    0.17
   5   4  -4   69.65    5.18
   5   4  -4   65.53    5.11
   5   4  -4   73.08    6.40
   5   4  -4   71.14    6.39
   5   4  -4   70.92    6.54
  -5  -4   4   75.50    5.76
  -5  -4   4   73.03    5.65
  -5  -4   4   70.16    5.00
   4   4  -4   19.43    2.29
   4   4  -4   22.23    1.74
   4   4  -4   25.77    2.50
   4   4  -4   24.91    2.28
  -4  -4   4   24.53    1.68
  -4  -4   4   24.52    1.97
  -4  -4   4   25.41    1.95
   3   4  -4    0.86    0.32
   3   4  -4    0.55    0.66
   3   4  -4    0.50    0.46
  -3  -4   4    1.30    0.21
   2   4  -4   16.42    1.16
   2   4  -4   14.84    1.52
   2   4  -4   16.62    1.70
   2   4  -4   16.02    1.61
  -2  -4   4   15.84    1.33
  -2  -4   4   15.40    1.31
   1   4  -4   63.70    4.27
   1   4  -4   58.70    5.36
   1   4  -4   58.91    5.12
  -1  -4   4   60.80    4.81
  -1  -4   4   57.01    4.73
  -1  -4   4   58.50    4.82
   0   4  -4    4.03    0.63
   0   4  -4    3.05    0.50
   0  -4   4    2.95    0.27
   0  -4   4    2.66    0.29
  -1   4  -4   48.74    3.87
  -1   4  -4   50.26    4.09
   1  -4   4   44.50    3.67
   1  -4   4   38.58    3.65
  -2   4  -4   14.97    1.27
  -2   4  -4   12.41    1.28
  -2   4  -4   10.97    1.31
   2  -4   4   14.21    1.09
   2  -4   4   12.70    1.10
  -3   4  -4   36.59    2.92
  -3   4  -4   34.67    3.14
  -3   4  -4   34.13    2.95
   3  -4   4   32.12    2.78
  -4   4  -4    2.77    0.57
  -4   4  -4    1.63    0.37
  -4   4  -4    2.18    0.45
   4  -4   4    1.50    0.27
   4  -4   4    1.44    0.17
  -5   4  -4   73.60    6.16
  -5   4  -4   63.34    5.62
  -6   4  -4   58.08    4.88
  -6   4  -4   56.05    4.74
  -7   4  -4    4.14    0.65
  -7   4  -4    4.60    0.65
  -9   4  -4   68.72    4.34
  -9   4  -4   58.42    4.66
 -10   4  -4    1.16    0.31
 -11   4  -4    1.34    0.16
 -12   4  -4    0.02    0.07
  -9  -3   4    4.22    0.25
  -9  -3   4    4.08    0.34
   8   3  -4   25.58    3.37
  -8  -3   4   33.11    2.21
  -8  -3   4   32.75    2.26
  -8  -3   4   34.81    1.81
   7   3  -4    5.63    0.78
   7   3  -4    4.07    0.86
   7   3  -4    3.41    0.54
  -7  -3   4    4.06    0.31
  -7  -3   4    3.48    0.42
  -7  -3   4    3.44    0.36
  -7  -3   4    4.49    0.37
  -7  -3   4    4.78    0.53
  -7  -3   4    4.07    0.25
   6   3  -4   38.03    3.06
   6   3  -4   43.41    3.84
   6   3  -4   41.91    4.10
  -6  -3   4   42.61    3.34
  -6  -3   4   40.71    2.91
   5   3  -4   42.41    4.30
   5   3  -4   43.67    4.44
   5   3  -4   50.04    3.43
   5   3  -4   51.82    3.48
  -5  -3   4   44.60    3.34
  -5  -3   4   45.89    3.81
  -5  -3   4   51.91    3.87
   4   3  -4  135.16   12.14
   4   3  -4  120.97    9.86
   4   3  -4  133.27    9.92
   4   3  -4  148.44   11.81
  -4  -3   4  152.52   11.09
  -4  -3   4  139.65   10.86
  -4  -3   4  137.75    9.69
   3   3  -4    0.35    0.24
   3   3  -4    0.11    0.66
   3   3  -4    0.49    0.38
   3   3  -4    0.33    0.10
  -3  -3   4    0.39    0.06
  -3  -3   4    0.66    0.23
  -3  -3   4    0.25    0.12
   2   3  -4    7.72    0.82
   2   3  -4    8.43    0.61
   2   3  -4    8.12    0.93
   2   3  -4    8.28    1.19
  -2  -3   4    7.74    0.75
  -2  -3   4    7.95    0.69
   1   3  -4   83.34    7.36
   1   3  -4   83.00    7.04
   1   3  -4   84.28    7.34
  -1  -3   4   79.51    6.68
  -1  -3   4   84.60    6.66
   0   3  -4    0.67    0.06
   0   3  -4    0.44    0.28
   0   3  -4    0.62    0.31
   0  -3   4    0.55    0.11
  -1   3  -4    2.61    0.52
  -1   3  -4    4.21    0.53
   1  -3   4    3.63    0.36
   1  -3   4    3.92    0.32
  -2   3  -4   45.18    3.65
  -2   3  -4   38.59    3.93
  -2   3  -4   51.11    3.77
   2  -3   4   37.23    4.36
   2  -3   4   48.58    3.57
  -3   3  -4   41.22    3.31
  -3   3  -4   44.65    3.23
  -3   3  -4   38.46    3.50
   3  -3   4   33.34    3.06
   3  -3   4   36.32    3.84
  -4   3  -4    1.26    0.45
  -4   3  -4    1.03    0.33
  -4   3  -4    1.23    0.32
   4  -3   4    0.72    0.44
  -5   3  -4   71.25    6.24
  -5   3  -4   82.22    6.70
   5  -3   4   80.99    8.17
   5  -3   4   83.91    7.87
  -6   3  -4    9.25    0.76
  -6   3  -4    8.57    0.94
  -6   3  -4    8.12    0.88
  -7   3  -4   44.87    3.41
  -7   3  -4   46.77    3.77
  -7   3  -4   41.54    3.60
   7  -3   4   37.41    4.65
  -8   3  -4   20.18    2.01
  -8   3  -4   24.26    1.84
  -9   3  -4   14.21    0.99
  -9   3  -4   13.95    0.92
  -9   3  -4   12.86    1.12
 -10   3  -4    4.33    0.34
 -10   3  -4    3.92    0.29
 -10   3  -4    3.31    0.48
 -11   3  -4    5.55    0.55
 -11   3  -4    5.65    0.42
 -11   3  -4    5.13    0.37
 -12   3  -4    2.95    0.24
 -12   3  -4    2.90    0.21
  10   2  -4    4.51    0.65
 -10  -2   4    4.25    0.31
 -10  -2   4    4.75    0.26
 -10  -2   4    4.30    0.34
  -8  -2   4   25.92    1.37
  -8  -2   4   22.89    1.71
  -8  -2   4   24.00    1.60
  -8  -2   4   23.55    1.69
   7   2  -4    3.07    0.48
  -7  -2   4    3.17    0.49
  -7  -2   4    3.56    0.22
  -7  -2   4    3.45    0.40
  -7  -2   4    3.38    0.27
   6   2  -4   14.76    1.22
   6   2  -4   18.01    2.18
   6   2  -4   16.26    1.65
  -6  -2   4   16.40    1.38
  -6  -2   4   15.30    1.13
  -6  -2   4   15.89    1.38
   5   2  -4   10.67    1.62
  -5  -2   4   11.81    1.02
  -5  -2   4   11.30    0.84
  -5  -2   4   12.31    1.05
   4   2  -4    3.49    0.95
   4   2  -4    2.41    0.45
  -4  -2   4    3.21    0.32
  -4  -2   4    2.45    0.38
  -4  -2   4    2.33    0.44
  -4  -2   4    2.91    0.22
   3   2  -4   12.16    1.33
   3   2  -4   14.11    1.58
   3   2  -4   12.09    1.30
  -3  -2   4   14.66    0.96
  -3  -2   4   13.90    1.13
  -3  -2   4   13.62    1.16
  -3  -2   4   13.39    1.44
   2   2  -4   29.34    2.73
   2   2  -4   28.24    2.67
   2   2  -4   28.23    2.65
  -2  -2   4   28.83    2.38
  -2  -2   4   32.26    3.02
  -2  -2   4   29.03    2.37
   1   2  -4    5.52    0.36
   1   2  -4    5.10    0.83
   1   2  -4    5.40    0.53
  -1  -2   4    5.23    0.47
  -1  -2   4    5.21    0.45
  -1  -2   4    6.06    0.63
   0   2  -4  166.17    9.32
   0   2  -4  131.63   12.14
   0  -2   4  130.31   11.68
   0  -2   4  155.67   14.30
  -1   2  -4   78.17    7.13
  -1   2  -4   87.58    7.34
   1  -2   4   97.67    7.06
  -2   2  -4   39.47    2.35
  -2   2  -4   37.39    3.04
  -2   2  -4   39.12    3.16
   2  -2   4   31.16    3.66
  -3   2  -4   24.20    1.88
  -3   2  -4   22.09    2.08
  -3   2  -4   22.91    1.97
   3  -2   4   20.03    2.26
  -4   2  -4   76.35    5.93
  -4   2  -4   77.46    6.71
  -4   2  -4   82.16    6.36
  -4   2  -4   76.05    6.13
   4  -2   4   66.05    7.44
   5  -2   4  243.34   23.07
   5  -2   4  228.35   23.78
  -6   2  -4  117.62    9.83
  -6   2  -4  117.82    9.48
  -6   2  -4  128.92    9.21
   6  -2   4  103.72   11.95
  -8   2  -4    0.14    0.38
  -8   2  -4    0.11    0.30
  -8   2  -4    0.13    0.18
   8  -2   4    0.96    1.13
  -9   2  -4    5.08    0.56
  -9   2  -4    5.31    0.39
  -9   2  -4    5.53    0.44
 -10   2  -4   -0.01    0.10
 -10   2  -4    0.18    0.25
 -10   2  -4    0.14    0.07
  10  -2   4    0.28    0.23
 -11   2  -4    1.36    0.17
 -11   2  -4    1.11    0.12
 -11   2  -4    1.20    0.29
 -12   2  -4    1.94    0.18
 -12   2  -4    1.89    0.15
 -12   2  -4    1.89    0.28
 -10  -1   4   10.59    0.72
 -10  -1   4   11.25    0.62
 -10  -1   4   10.52    0.77
   9   1  -4   10.58    1.45
  -9  -1   4   12.82    0.94
  -9  -1   4   14.35    0.75
  -9  -1   4   12.99    0.88
  -8  -1   4   32.43    2.12
  -8  -1   4   29.65    2.63
  -8  -1   4   31.61    2.28
  -8  -1   4   31.75    2.24
  -8  -1   4   35.28    1.83
   7   1  -4    4.27    0.48
  -7  -1   4    4.51    0.57
  -7  -1   4    4.49    0.43
  -7  -1   4    4.50    0.34
   6   1  -4   38.92    3.61
   6   1  -4   32.36    2.59
  -6  -1   4   35.76    3.04
  -6  -1   4   35.79    2.88
  -6  -1   4   35.75    2.50
   5   1  -4   77.80    6.92
  -5  -1   4   78.06    5.50
  -5  -1   4   81.76    6.21
  -5  -1   4   74.95    6.67
  -5  -1   4   78.34    7.94
   4   1  -4    4.92    1.03
   4   1  -4    4.09    0.56
  -4  -1   4    4.52    0.51
  -4  -1   4    4.10    0.31
   3   1  -4   22.12    2.11
   3   1  -4   24.22    2.32
  -3  -1   4   23.98    2.40
  -3  -1   4   22.17    1.88
   2   1  -4   31.82    2.95
   2   1  -4   30.93    2.95
   2   1  -4   32.57    3.01
  -2  -1   4   34.85    3.38
  -2  -1   4   31.03    2.64
  -2  -1   4   35.89    2.66
   1   1  -4    1.39    0.11
   1   1  -4    1.27    0.48
  -1  -1   4    1.31    0.16
  -1  -1   4    2.46    0.41
  -1  -1   4    1.54    0.13
   0   1  -4  109.76    6.94
   0   1  -4  121.09    9.10
   0  -1   4  104.81   10.73
   0  -1   4  100.18    8.71
  -1   1  -4    6.29    0.45
  -1   1  -4    7.88    0.72
  -1   1  -4    7.43    0.69
  -2   1  -4  474.35   29.48
  -2   1  -4  474.17   38.17
  -2   1  -4  479.19   36.98
   2  -1   4  421.19   45.02
  -3   1  -4   23.40    2.27
  -3   1  -4   25.42    2.04
  -3   1  -4   25.00    1.58
  -3   1  -4   24.83    2.16
  -5   1  -4   44.37    3.83
  -5   1  -4   48.53    4.16
  -5   1  -4   41.09    3.95
   5  -1   4   56.26    5.15
   5  -1   4   54.11    4.88
  -6   1  -4   33.21    3.09
  -6   1  -4   37.15    2.82
  -6   1  -4   35.17    2.94
  -7   1  -4   26.89    2.51
  -7   1  -4   26.25    2.36
  -7   1  -4   29.72    2.24
  -9   1  -4    1.53    0.22
  -9   1  -4    2.64    0.35
  -9   1  -4    1.59    0.16
   9  -1   4    0.99    0.31
 -10   1  -4    9.59    0.62
 -10   1  -4    9.90    0.80
 -10   1  -4    8.86    0.66
  10  -1   4    7.26    0.75
 -11   1  -4    0.09    0.23
 -11   1  -4    0.25    0.07
 -11   1  -4    0.34    0.11
  11  -1   4    0.23    0.20
 -12   1  -4    4.26    0.31
 -12   1  -4    4.53    0.34
  10   0  -4    2.18    0.43
 -10   0   4    1.76    0.15
 -10   0   4    1.76    0.11
 -10   0   4    1.77    0.18
  -9   0   4   17.61    1.21
  -9   0   4   17.48    1.28
  -9   0   4   19.18    1.03
  -8   0   4   28.65    1.95
  -8   0   4   32.58    1.68
  -8   0   4   27.88    2.06
  -8   0   4   29.86    2.10
  -8   0   4   28.38    2.43
   7   0  -4    0.53    0.21
  -7   0   4    0.39    0.10
  -7   0   4    0.47    0.08
  -7   0   4    0.29    0.25
   6   0  -4    9.92    1.31
   6   0  -4   11.83    0.95
   6   0  -4   12.17    1.78
  -6   0   4   12.38    1.12
  -6   0   4   14.55    0.91
  -6   0   4   13.09    1.11
  -5   0   4   27.82    2.52
  -5   0   4   31.14    2.40
  -5   0   4   29.29    2.07
   4   0  -4    3.95    0.93
   4   0  -4    3.82    0.51
  -4   0   4    3.80    0.59
  -4   0   4    3.50    0.49
  -4   0   4    4.19    0.30
   3   0  -4   33.99    3.08
   3   0  -4   30.86    2.97
  -3   0   4   32.30    2.65
  -3   0   4   35.15    3.41
   2   0  -4   71.13    6.03
   2   0  -4   71.66    4.48
   2   0  -4   69.92    6.22
  -2   0   4   65.04    5.53
  -2   0   4   72.90    7.11
   1   0  -4  122.94   10.69
   1   0  -4  132.25    8.13
  -1   0   4  134.32   12.51
  -1   0   4  123.05   12.91
  -1   0   4  124.75   10.20
   0   0  -4  362.44   28.62
   0   0  -4  363.45   22.08
   0   0   4  312.37   33.80
  -1   0  -4  647.37   50.72
  -1   0  -4  597.14   52.31
   1   0   4  658.46   61.82
  -2   0  -4   33.76    3.00
   2   0   4   40.36    3.70
  -3   0  -4   45.60    3.35
   3   0   4   60.00    5.38
  -4   0  -4   30.57    2.50
  -4   0  -4   30.32    2.58
  -4   0  -4   34.09    2.74
   4   0   4   30.90    3.38
   4   0   4   31.97    3.20
  -5   0  -4   45.48    3.82
  -5   0  -4   43.24    3.50
  -7   0  -4    1.74    0.32
  -7   0  -4    1.56    0.26
  -7   0  -4    1.30    0.42
   7   0   4    1.99    1.02
   7   0   4    1.08    0.23
  -8   0  -4   17.52    1.67
   8   0   4   15.57    1.27
   8   0   4   17.18    1.65
  -9   0  -4   76.62    4.94
  -9   0  -4   83.18    5.17
   9   0   4   67.68    5.51
 -10   0  -4    2.72    0.22
 -10   0  -4    2.59    0.26
  10   0   4    2.23    0.38
 -11   0  -4   61.38    3.84
 -11   0  -4   60.18    4.01
  11   0   4   55.28    4.29
 -12   0  -4    0.08    0.05
 -12   0  -4    0.05    0.08
 -12   0  -4    0.09    0.17
  10  -1  -4    2.52    0.47
 -10   1   4    2.49    0.16
 -10   1   4    2.77    0.24
 -10   1   4    2.62    0.20
   9  -1  -4    1.92    0.38
  -9   1   4    2.76    0.23
  -9   1   4    2.66    0.27
  -9   1   4    2.79    0.17
   8  -1  -4    5.35    0.57
  -8   1   4    5.88    0.65
  -8   1   4    6.07    0.51
  -8   1   4    6.45    0.58
  -8   1   4    6.89    0.37
  -8   1   4    6.33    0.45
  -8   1   4    6.05    0.46
   7  -1  -4   12.00    1.00
  -7   1   4   13.24    0.94
  -7   1   4   12.36    1.17
  -7   1   4   14.39    1.16
   6  -1  -4    0.02    0.25
   6  -1  -4    0.37    0.11
   6  -1  -4   -0.28    0.86
  -6   1   4    0.04    0.22
  -6   1   4    0.14    0.07
  -6   1   4    0.13    0.05
  -5   1   4   44.38    3.47
  -5   1   4   49.32    3.95
  -5   1   4   46.50    4.22
  -5   1   4   57.93    5.07
   4  -1  -4   36.27    3.39
   4  -1  -4   32.71    3.30
  -4   1   4   39.89    3.78
  -4   1   4   35.68    2.94
  -4   1   4   37.76    2.57
   3  -1  -4   20.66    2.11
  -3   1   4   22.00    1.50
  -3   1   4   19.66    1.74
  -3   1   4   22.20    2.24
   2  -1  -4   27.41    1.81
   2  -1  -4   28.28    2.61
  -2   1   4   30.13    2.85
  -2   1   4   25.75    2.28
  -2   1   4   29.87    2.95
   1  -1  -4    0.34    0.05
   1  -1  -4    0.27    0.38
  -1   1   4    0.10    0.65
  -1   1   4    0.21    0.55
   0  -1  -4   93.80    5.87
   0   1   4   90.12    9.18
  -1  -1  -4    4.09    0.55
  -1  -1  -4    5.13    0.32
  -2  -1  -4  439.23   35.62
  -2  -1  -4  387.84   28.39
  -2  -1  -4  489.14   36.76
   2   1   4  464.52   43.40
  -3  -1  -4  107.83    8.58
  -3  -1  -4  109.93    8.27
  -3  -1  -4  101.52    6.56
   3   1   4   97.12   10.40
   3   1   4  100.46    9.13
   3   1   4  100.90   10.10
  -4  -1  -4   17.24    1.58
  -4  -1  -4   18.80    1.46
  -4  -1  -4   17.38    1.40
   4   1   4   15.98    2.07
   4   1   4   17.04    1.87
   4   1   4   17.88    1.64
  -5  -1  -4   64.88    5.64
  -5  -1  -4   68.34    5.25
  -6  -1  -4   97.01    7.36
  -6  -1  -4   84.98    7.87
  -6  -1  -4   96.98    7.57
  -6  -1  -4   93.71    6.59
   6   1   4   94.98    6.75
  -7  -1  -4   12.78    0.95
  -7  -1  -4    9.07    0.99
  -8  -1  -4   19.99    1.75
  -8  -1  -4   16.93    1.87
  -8  -1  -4   20.86    1.63
   8   1   4   20.80    1.52
   8   1   4   18.21    1.95
   8   1   4   19.86    2.90
   8   1   4   20.95    1.92
  -9  -1  -4    3.88    0.35
  -9  -1  -4    4.14    0.31
  -9  -1  -4    3.55    0.41
  -9  -1  -4    3.29    0.44
   9   1   4    4.55    0.49
 -10  -1  -4    3.43    0.43
 -10  -1  -4    4.35    0.34
  10   1   4    3.43    0.45
 -11  -1  -4    0.13    0.07
 -11  -1  -4    0.10    0.21
 -11  -1  -4    0.11    0.10
  11   1   4   -0.07    0.20
 -12  -1  -4   13.24    0.97
 -12  -1  -4   11.74    0.87
 -12  -1  -4   12.63    0.83
 -10   2   4    8.11    0.54
 -10   2   4    7.89    0.46
 -10   2   4    7.97    0.58
  -9   2   4   25.63    1.71
  -9   2   4   24.85    1.80
  -9   2   4   27.01    1.47
   8  -2  -4    1.19    0.24
  -8   2   4    0.95    0.08
  -8   2   4    0.71    0.10
  -8   2   4    0.73    0.12
  -8   2   4    0.66    0.17
  -8   2   4    0.86    0.13
  -8   2   4    0.61    0.27
   7  -2  -4    0.11    0.13
  -7   2   4   -0.02    0.23
  -7   2   4    0.11    0.06
  -7   2   4    0.15    0.08
   6  -2  -4   41.00    4.06
   6  -2  -4   38.59    3.08
  -6   2   4   44.70    3.02
  -6   2   4   47.80    3.67
  -6   2   4   40.69    3.45
   5  -2  -4   73.05    6.30
   5  -2  -4   62.20    6.40
   5  -2  -4   66.85    5.12
  -5   2   4   75.92    6.10
  -5   2   4   72.57    5.67
  -5   2   4   75.02    5.03
  -5   2   4   74.67    7.29
   4  -2  -4    0.31    0.59
   4  -2  -4    0.51    0.16
  -4   2   4    0.30    0.22
  -4   2   4    0.46    0.07
  -4   2   4    0.51    0.29
   3  -2  -4   26.81    2.56
  -3   2   4   28.01    1.92
  -3   2   4   28.14    2.84
  -3   2   4   25.42    2.19
   2  -2  -4    0.73    0.07
   2  -2  -4    1.08    0.49
  -2   2   4    1.18    0.39
  -2   2   4    0.91    0.37
  -2   2   4    0.68    0.20
   0  -2  -4   70.73    5.22
   0   2   4   55.47    6.50
   0   2   4   59.66    6.26
  -1  -2  -4   68.77    6.27
  -1  -2  -4   82.34    4.79
   1   2   4   73.77    7.51
  -2  -2  -4   44.50    3.74
  -2  -2  -4   44.65    2.83
  -2  -2  -4   49.21    3.57
   2   2   4   38.61    3.99
  -3  -2  -4   13.88    0.93
  -3  -2  -4   16.29    1.21
  -3  -2  -4   13.55    1.29
   3   2   4   15.32    1.55
   3   2   4   13.20    1.67
   3   2   4   14.34    1.39
  -4  -2  -4    8.63    0.74
  -4  -2  -4    7.57    0.88
  -4  -2  -4    9.29    0.78
   4   2   4    9.98    1.14
   4   2   4    9.51    0.95
  -5  -2  -4   27.10    1.83
  -5  -2  -4   24.29    2.13
  -6  -2  -4   10.31    0.90
  -6  -2  -4    9.12    1.09
  -6  -2  -4   10.88    0.78
  -6  -2  -4   11.13    0.96
   6   2   4   12.42    0.85
   6   2   4    9.39    1.14
  -7  -2  -4   17.92    1.90
  -7  -2  -4   20.42    1.67
  -7  -2  -4   21.78    1.47
  -7  -2  -4   20.65    1.76
   7   2   4   22.01    1.56
   7   2   4   18.41    1.97
   7   2   4   22.25    2.77
  -8  -2  -4    2.92    0.39
  -8  -2  -4    2.69    0.58
  -8  -2  -4    2.62    0.43
  -8  -2  -4    3.11    0.25
   8   2   4    3.47    0.67
   8   2   4    3.82    1.31
   8   2   4    3.99    0.69
   8   2   4    3.17    0.42
 -10  -2  -4    0.24    0.11
 -10  -2  -4    0.25    0.08
 -10  -2  -4    0.32    0.19
  10   2   4    0.38    0.59
  10   2   4    0.20    0.26
 -11  -2  -4   10.61    0.79
 -11  -2  -4    9.46    0.64
 -11  -2  -4    8.33    0.68
  11   2   4    9.70    0.77
 -12  -2  -4    1.38    0.12
 -12  -2  -4    1.50    0.22
 -12  -2  -4    1.26    0.14
  12   2   4    0.66    0.74
  -9   3   4   10.24    0.71
  -9   3   4   10.48    0.59
  -9   3   4   10.25    0.76
  -8   3   4    3.71    0.28
  -8   3   4    3.07    0.34
  -8   3   4    3.39    0.33
  -8   3   4    3.33    0.27
  -8   3   4    3.43    0.21
  -7   3   4   82.55    6.73
  -7   3   4   83.48    4.43
  -7   3   4   68.98    6.25
  -7   3   4   79.15    5.54
   6  -3  -4   30.00    3.07
   6  -3  -4   27.76    2.11
  -6   3   4   29.02    2.41
  -6   3   4   30.70    2.08
  -6   3   4   29.52    3.09
   5  -3  -4  134.39   11.12
   5  -3  -4  119.87    9.31
  -5   3   4  135.24    9.14
  -5   3   4  119.00   10.23
  -5   3   4  130.47   13.16
  -5   3   4  142.11   11.09
   4  -3  -4  360.15   29.98
  -4   3   4  378.85   36.25
  -4   3   4  345.48   28.20
  -4   3   4  357.14   25.32
  -3   3   4    2.39    0.38
  -3   3   4    3.77    0.61
   2  -3  -4   29.51    2.79
   2  -3  -4   29.71    1.97
  -2   3   4   31.51    3.22
  -2   3   4   32.18    3.11
   1  -3  -4  103.62    6.54
   1  -3  -4   96.83    8.59
  -1   3   4  102.48   10.48
  -1   3   4  107.34   10.12
   0  -3  -4    0.06    0.02
   0  -3  -4   -0.03    0.13
   0   3   4   -0.68    1.05
   0   3   4   -0.15    0.87
  -1  -3  -4    8.46    0.85
  -1  -3  -4    9.00    0.57
   1   3   4   10.74    1.61
   1   3   4    9.41    1.84
   1   3   4    7.86    0.94
  -2  -3  -4   63.18    5.25
  -2  -3  -4   66.35    4.02
   2   3   4   55.18    6.44
   2   3   4   66.35    5.65
   2   3   4   63.07    6.24
  -3  -3  -4  113.67    7.93
  -3  -3  -4   94.79    6.30
  -3  -3  -4   92.24    8.21
   3   3   4   97.32    8.81
   3   3   4   90.96   10.01
   3   3   4  103.29    9.71
  -4  -3  -4   30.10    2.82
  -4  -3  -4   34.13    2.61
  -4  -3  -4   34.80    2.69
   4   3   4   32.53    3.05
   4   3   4   32.83    3.36
  -5  -3  -4   28.67    2.57
  -5  -3  -4   27.75    2.43
  -5  -3  -4   32.03    2.11
  -7  -3  -4   38.98    3.96
  -7  -3  -4   47.52    3.25
  -7  -3  -4   46.55    3.64
  -7  -3  -4   46.91    3.78
   7   3   4   47.98    4.07
   7   3   4   42.01    4.26
   7   3   4   49.64    3.36
   7   3   4   42.88    4.99
   7   3   4   48.72    4.00
  -8  -3  -4    7.36    0.76
  -8  -3  -4    6.86    0.68
  -8  -3  -4    7.53    0.55
  -8  -3  -4    5.41    0.89
   8   3   4    8.25    0.68
   8   3   4   11.47    2.08
   8   3   4    8.06    1.00
  -9  -3  -4   22.89    1.73
  -9  -3  -4   25.00    1.64
  -9  -3  -4   23.73    1.61
  -9  -3  -4   22.49    1.52
  -9  -3  -4   19.50    1.87
   9   3   4   24.08    1.76
 -11  -3  -4    0.58    0.20
 -11  -3  -4    0.57    0.09
 -11  -3  -4    0.46    0.11
 -12  -3  -4    4.11    0.34
 -12  -3  -4    2.95    0.25
 -12  -3  -4    3.31    0.24
 -10   4   4   11.12    0.75
 -10   4   4   10.63    0.71
 -10   4   4   10.11    0.60
  -9   4   4    6.94    0.40
  -9   4   4    6.68    0.53
  -9   4   4    6.88    0.48
  -8   4   4   35.23    2.57
  -8   4   4   37.35    2.63
  -8   4   4   37.16    2.44
  -8   4   4   35.83    3.19
  -8   4   4   40.08    2.10
   7  -4  -4    0.20    0.09
  -7   4   4    0.12    0.08
  -7   4   4    0.16    0.05
  -7   4   4    0.16    0.08
  -7   4   4    0.13    0.07
  -7   4   4    0.29    0.14
   6  -4  -4    6.80    0.53
  -6   4   4    7.62    0.65
  -6   4   4    7.26    0.93
  -6   4   4    7.09    0.53
  -5   4   4   38.06    3.03
  -5   4   4   32.91    3.67
  -5   4   4   34.64    2.50
  -4   4   4   19.80    2.23
  -4   4   4   20.26    1.48
  -4   4   4   22.32    1.81
  -3   4   4   20.19    1.43
   2  -4  -4   35.71    2.42
  -2   4   4   40.76    2.67
  -2   4   4   38.56    2.72
  -2   4   4   36.93    3.93
  -2   4   4   37.25    3.80
   1  -4  -4  601.77   37.96
  -1   4   4  597.05   42.43
  -1   4   4  589.43   58.01
  -1   4   4  592.05   59.80
   0  -4  -4   34.32    2.04
   0   4   4   28.33    3.86
   0   4   4   30.79    3.46
   1   4   4   61.32    5.06
   1   4   4   49.75    5.99
  -2  -4  -4   50.98    3.54
  -2  -4  -4   45.02    2.81
   2   4   4   39.28    3.99
   2   4   4   44.71    4.47
   2   4   4   38.46    4.65
  -3  -4  -4  104.57    7.16
  -3  -4  -4  124.61    9.01
   3   4   4  105.10   11.38
   3   4   4  114.56   11.04
   3   4   4  112.31   10.03
  -4  -4  -4    5.12    0.47
  -4  -4  -4    4.99    0.42
   4   4   4    5.03    0.75
   4   4   4    5.16    0.91
  -5  -4  -4   33.24    3.22
  -5  -4  -4   33.10    3.06
  -5  -4  -4   36.64    2.67
   5   4   4   44.01    4.12
   5   4   4   43.19    3.89
  -6  -4  -4   64.38    4.89
  -6  -4  -4   55.50    5.10
  -6  -4  -4   63.31    4.25
   6   4   4   53.75    5.22
   6   4   4   59.00    5.51
   6   4   4   52.25    6.05
   6   4   4   66.12    4.36
   6   4   4   58.37    6.29
   6   4   4   66.25    5.12
  -7  -4  -4   23.35    1.64
  -7  -4  -4   24.19    1.95
   7   4   4   20.70    2.29
   7   4   4   23.03    2.95
   7   4   4   21.55    2.22
   7   4   4   23.66    1.73
  -9  -4  -4   16.61    1.13
  -9  -4  -4   16.23    0.98
  -9  -4  -4   14.73    1.04
  -9  -4  -4   14.98    1.19
  -9  -4  -4   15.18    1.11
   9   4   4   15.65    1.23
 -10  -4  -4   18.78    1.26
 -10  -4  -4   17.60    1.33
 -10  -4  -4   20.31    1.44
  10   4   4   19.33    2.02
  10   4   4   19.42    1.45
 -11  -4  -4    6.55    0.51
 -11  -4  -4    7.20    0.47
  12   4   4   -0.08    0.76
  -9   5   4    0.97    0.12
  -9   5   4    0.94    0.07
  -9   5   4    0.97    0.15
  -8   5   4    3.37    0.20
  -8   5   4    3.09    0.31
  -8   5   4    3.11    0.31
  -8   5   4    2.99    0.25
  -8   5   4    3.09    0.26
   7  -5  -4   24.55    1.85
  -7   5   4   27.74    1.45
  -7   5   4   25.90    1.82
  -7   5   4   23.06    1.79
  -7   5   4   26.94    2.21
  -7   5   4   25.00    1.70
  -6   5   4    7.11    0.64
  -6   5   4    6.77    0.52
  -5   5   4   26.31    3.11
  -5   5   4   30.05    2.11
  -5   5   4   32.59    2.57
  -4   5   4    2.60    0.21
  -4   5   4    2.80    0.53
  -4   5   4    2.48    0.28
   3  -5  -4   15.27    1.05
  -3   5   4   16.33    1.79
  -3   5   4   17.02    1.16
   2  -5  -4   10.59    0.69
  -2   5   4   10.11    1.19
  -2   5   4    9.71    1.31
  -2   5   4   11.25    0.77
  -2   5   4   10.69    0.78
   1  -5  -4   22.76    1.34
  -1   5   4   21.17    1.51
  -1   5   4   20.76    2.23
  -1   5   4   19.62    1.48
  -1   5   4   18.98    2.55
   0  -5  -4    2.96    0.21
   0   5   4    4.17    1.06
   0   5   4    2.90    0.24
   0   5   4    5.32    1.33
  -1  -5  -4    8.09    0.51
   1   5   4    7.06    0.89
   1   5   4    6.81    1.42
   1   5   4   13.17    2.44
  -2  -5  -4   23.05    1.48
   2   5   4   25.17    2.85
   2   5   4   22.22    2.21
   2   5   4   22.60    2.61
  -3  -5  -4   22.57    1.62
  -3  -5  -4   27.54    2.06
  -3  -5  -4   25.49    1.85
   3   5   4   25.82    2.69
   3   5   4   24.91    2.87
  -4  -5  -4   12.86    0.95
  -4  -5  -4   12.34    1.06
   4   5   4   14.45    1.57
   4   5   4   10.90    1.37
   5   5   4   73.16    7.43
   5   5   4   70.79    7.18
  -6  -5  -4    1.66    0.18
  -6  -5  -4    1.53    0.25
   6   5   4    1.52    0.51
   6   5   4    2.80    0.87
   6   5   4    1.51    0.25
  -7  -5  -4   13.18    1.11
  -7  -5  -4   12.92    0.90
   7   5   4   11.07    2.00
   7   5   4   12.92    1.52
   7   5   4    9.82    1.40
   7   5   4   11.88    0.97
  -8  -5  -4    0.47    0.08
  -8  -5  -4    0.52    0.16
  -8  -5  -4    0.58    0.10
   8   5   4    0.34    0.25
   8   5   4    2.07    0.66
   8   5   4   -0.69    1.15
  -9  -5  -4   22.94    1.75
  -9  -5  -4   24.00    1.46
  -9  -5  -4   21.36    1.55
  -9  -5  -4   23.73    1.68
   9   5   4   22.58    1.77
   9   5   4   28.47    2.40
 -10  -5  -4    0.18    0.15
 -10  -5  -4    0.19    0.07
  10   5   4    0.28    0.66
 -10   6   4    0.05    0.04
  -9   6   4   15.82    0.93
  -9   6   4   16.94    1.09
  -8   6   4    2.04    0.19
  -8   6   4    2.15    0.23
  -8   6   4    2.24    0.14
  -7   6   4   26.65    2.24
  -7   6   4   24.27    1.72
  -7   6   4   25.45    1.85
  -7   6   4   27.34    1.47
  -5   6   4    8.08    0.73
  -4   6   4   19.21    2.26
  -4   6   4   22.13    1.52
  -4   6   4   22.03    1.84
   3  -6  -4   16.29    1.14
  -3   6   4   16.74    1.52
  -3   6   4   19.08    1.26
  -3   6   4   16.84    1.90
  -3   6   4   18.61    1.28
   2  -6  -4   26.36    1.75
  -2   6   4   29.24    1.94
  -2   6   4   27.24    1.97
  -2   6   4   25.92    2.90
   1  -6  -4    5.69    0.39
  -1   6   4    7.90    1.19
  -1   6   4    6.83    0.90
  -1   6   4    5.46    0.45
   0  -6  -4   44.66    2.77
   0   6   4   42.22    3.10
   0   6   4   42.01    3.05
   0   6   4   42.10    4.99
   0   6   4   45.10    4.48
   1   6   4    4.63    1.54
   1   6   4    1.98    1.28
  -2  -6  -4  210.17   15.51
  -2  -6  -4  229.92   14.03
   2   6   4  219.59   19.53
  -3  -6  -4    0.69    0.07
  -3  -6  -4    0.28    0.19
   3   6   4    3.05    0.94
   3   6   4    0.06    0.41
  -4  -6  -4    4.03    0.36
  -4  -6  -4    3.36    0.36
   4   6   4    3.65    0.71
   4   6   4    1.84    0.85
  -5  -6  -4   15.71    1.39
  -5  -6  -4   16.65    1.22
   5   6   4   17.87    1.65
   5   6   4   16.04    1.76
  -6  -6  -4    5.23    0.52
  -6  -6  -4    4.74    0.42
   6   6   4    7.52    1.06
   6   6   4    5.07    0.92
  -7  -6  -4   39.87    3.19
  -7  -6  -4   39.18    2.74
   7   6   4   35.06    3.73
   7   6   4   38.64    3.55
  -8  -6  -4   48.36    2.88
  -8  -6  -4   48.47    3.32
  -8  -6  -4   43.23    3.40
  -9  -6  -4    5.70    0.38
  -9  -6  -4    5.27    0.50
  -9  -6  -4    6.16    0.45
   9   6   4    8.54    1.25
   9   6   4    4.11    1.68
  10   6   4    7.16    1.53
 -11  -6  -4    6.65    0.55
  11   6   4    6.36    1.42
  -9   7   4    1.99    0.13
  -9   7   4    2.18    0.17
  -8   7   4   24.36    2.21
  -8   7   4   26.21    1.70
  -8   7   4   26.58    1.45
  -7   7   4    0.51    0.10
  -7   7   4    0.32    0.08
  -7   7   4    0.40    0.05
  -6   7   4    9.66    0.69
  -6   7   4    8.99    0.83
  -6   7   4    9.25    0.54
  -5   7   4   28.62    2.57
  -5   7   4   30.91    2.12
  -4   7   4   13.69    0.98
  -4   7   4   13.14    1.18
   3  -7  -4   13.34    0.97
  -3   7   4   15.73    1.10
  -3   7   4   16.35    1.08
  -3   7   4   14.20    1.30
   2  -7  -4   17.24    1.17
  -2   7   4   17.95    1.29
  -2   7   4   18.78    1.31
   1  -7  -4    3.48    0.25
  -1   7   4    3.41    0.28
  -1   7   4    3.63    0.29
   0  -7  -4  173.75   10.68
   0   7   4  160.36   11.94
   0   7   4  168.43   11.77
  -1  -7  -4    0.17    0.04
  -2  -7  -4  198.68   13.80
  -2  -7  -4  192.00   12.45
  -3  -7  -4   97.61    6.70
   3   7   4   90.53    8.51
  -4  -7  -4   26.53    1.90
   4   7   4   24.83    2.55
   4   7   4   25.86    2.37
  -5  -7  -4   10.33    0.93
  -5  -7  -4   10.88    0.82
  -6  -7  -4  183.10   14.53
  -6  -7  -4  182.24   12.72
   6   7   4  176.38   16.24
   9   7   4    2.86    0.79
  10   7   4    7.36    1.51
  -9   8   4    0.67    0.05
  -8   8   4   17.18    0.97
  -7   8   4   10.10    0.97
  -7   8   4   11.54    0.64
  -7   8   4   11.69    0.81
  -6   8   4  152.20    8.21
  -6   8   4  141.62   12.47
  -6   8   4  144.85   10.28
  -5   8   4   25.13    1.70
  -5   8   4   22.42    2.06
  -4   8   4    0.76    0.14
  -4   8   4    1.14    0.13
   3  -8  -4    0.12    0.04
  -3   8   4    0.08    0.10
  -3   8   4    0.15    0.07
  -3   8   4    0.27    0.09
   2  -8  -4   19.44    1.25
   2  -8  -4   16.73    1.39
  -2   8   4   20.42    1.41
  -2   8   4   19.69    1.39
  -2   8   4   20.43    1.69
   1  -8  -4    0.89    0.08
   1  -8  -4    1.13    0.09
   0  -8  -4    6.91    0.57
   0  -8  -4    8.13    0.52
   0   8   4    8.56    0.59
   0   8   4    8.10    0.59
  -1  -8  -4    1.00    0.31
  -1  -8  -4    1.11    0.10
  -1  -8  -4    1.19    0.10
   1   8   4    1.29    0.15
  -3  -8  -4   33.62    2.53
   3   8   4   35.65    3.31
   4   8   4   60.01    4.95
   4   8   4   51.93    5.23
  -5  -8  -4   47.63    3.59
   5   8   4   47.18    4.47
   5   8   4   57.14    4.80
  -6  -8  -4   12.02    1.10
  -6  -8  -4   11.80    0.93
   6   8   4   14.90    1.62
  -7  -8  -4   63.80    3.84
  -7  -8  -4   61.14    4.43
  -8  -8  -4   42.23    2.41
  -8  -8  -4   39.58    2.78
  -8  -8  -4   37.61    2.84
   8   8   4   35.24    3.61
  -9  -8  -4    1.43    0.22
  -9  -8  -4    1.38    0.12
   9   8   4    3.69    0.81
   9   8   4    4.08    1.29
 -10  -8  -4    2.10    0.24
  10   8   4    1.83    1.18
  -8   9   4    5.95    0.34
  -7   9   4    2.17    0.14
  -6   9   4    2.01    0.19
  -6   9   4    1.90    0.22
  -6   9   4    2.10    0.14
  -5   9   4    3.49    0.35
  -5   9   4    3.30    0.22
  -4   9   4   39.91    2.74
  -4   9   4   37.16    3.31
   3  -9  -4    0.11    0.05
   3  -9  -4    0.10    0.03
  -3   9   4    0.07    0.09
  -3   9   4    0.10    0.10
  -3   9   4    0.09    0.07
   2  -9  -4    0.95    0.10
   2  -9  -4    0.86    0.08
  -2   9   4    1.06    0.14
  -2   9   4    0.90    0.18
  -2   9   4    0.95    0.13
   1  -9  -4   17.68    1.29
   1  -9  -4   20.16    1.17
  -1   9   4   17.76    1.59
  -1   9   4   18.44    1.31
  -1   9   4   15.27    1.28
   0  -9  -4   29.14    2.16
   0  -9  -4   32.75    1.94
   0   9   4   29.63    2.17
   0   9   4   28.32    2.66
  -1  -9  -4    1.37    0.11
  -1  -9  -4    1.39    0.12
  -1  -9  -4    1.22    0.33
   1   9   4    2.88    0.58
   1   9   4    1.24    0.16
  -2  -9  -4    3.39    0.27
  -2  -9  -4    3.50    0.25
  -2  -9  -4    3.79    0.45
   2   9   4    4.64    0.73
   2   9   4    2.95    0.68
   2   9   4    3.74    0.30
  -3  -9  -4    1.17    0.27
   3   9   4    0.98    0.52
   3   9   4    1.42    0.63
  -4  -9  -4   12.19    0.98
   4   9   4   12.99    1.47
   4   9   4   12.38    1.49
  -5  -9  -4    8.35    0.70
   5   9   4    8.40    1.26
   5   9   4   10.53    1.41
  -6  -9  -4   39.62    3.00
  -6  -9  -4   40.26    2.58
   6   9   4   46.89    3.87
  -7  -9  -4    4.84    0.32
  -7  -9  -4    4.24    0.39
   7   9   4    8.16    1.36
   7   9   4    5.45    1.58
   8   9   4   21.88    3.23
  -9  -9  -4    0.26    0.13
   9   9   4    1.33    1.27
 -10  -9  -4   25.64    1.88
  -7  10   4    0.50    0.05
  -6  10   4    0.05    0.04
  -5  10   4    0.21    0.08
  -5  10   4    0.30    0.05
   4 -10  -4  103.10    7.57
  -4  10   4   99.57    6.17
  -4  10   4  100.04    7.45
  -4  10   4  114.61    5.95
  -4  10   4  111.46    9.03
   3 -10  -4    0.30    0.07
   3 -10  -4    0.36    0.05
  -3  10   4    0.40    0.10
  -3  10   4    0.40    0.11
   2 -10  -4    0.23    0.06
   2 -10  -4    0.20    0.04
  -2  10   4    0.26    0.09
  -2  10   4    0.26    0.10
  -2  10   4    0.26    0.15
   1 -10  -4   74.85    4.39
   1 -10  -4   70.88    4.91
  -1  10   4   70.94    4.91
  -1  10   4   68.07    5.87
  -1  10   4   57.80    4.83
   0 -10  -4    7.07    0.50
   0 -10  -4    6.87    0.47
   0  10   4    6.43    0.82
   0  10   4    6.68    0.53
  -1 -10  -4   13.46    0.96
  -1 -10  -4   13.43    0.87
  -1 -10  -4   12.75    1.13
   1  10   4   13.01    1.39
   1  10   4   13.03    0.98
  -2 -10  -4   41.76    3.25
  -2 -10  -4   42.02    3.18
  -2 -10  -4   45.07    2.84
   2  10   4   47.86    3.19
  -3 -10  -4    0.12    0.22
   3  10   4   -0.02    0.48
   3  10   4    0.65    0.69
  -4 -10  -4    2.70    0.33
   4  10   4    2.36    0.72
   4  10   4    2.09    0.80
   5  10   4    5.25    0.91
  -6 -10  -4   15.34    1.21
  -6 -10  -4   17.56    1.02
   6  10   4   14.64    2.81
  -7 -10  -4   49.15    2.88
  -7 -10  -4   42.47    3.32
   7  10   4   48.77    4.25
   8  10   4   47.32    6.49
   8  10   4   53.30    4.51
   9  10   4    5.62    1.40
  10  10   4    0.53    0.93
  -7  11   4   11.07    0.63
  -6  11   4    0.64    0.06
   5 -11  -4    7.12    0.52
  -5  11   4    7.54    0.42
  -5  11   4    6.65    0.45
   4 -11  -4    0.72    0.07
  -4  11   4    0.98    0.09
  -4  11   4    0.88    0.13
  -4  11   4    0.79    0.11
   3 -11  -4   14.44    1.05
  -3  11   4   15.19    0.84
  -3  11   4   14.12    0.88
  -3  11   4   13.79    1.06
  -3  11   4   14.64    1.08
   2 -11  -4    2.33    0.18
  -2  11   4    1.90    0.21
  -2  11   4    2.15    0.22
  -2  11   4    2.61    0.34
  -2  11   4    2.22    0.26
   1 -11  -4    3.37    0.61
   1 -11  -4    4.67    0.33
   1 -11  -4    4.71    0.35
  -1  11   4    4.39    0.51
  -1  11   4    4.79    0.38
   0 -11  -4    0.40    0.34
   0 -11  -4    0.30    0.05
   0 -11  -4    0.40    0.07
   0  11   4    0.12    0.28
   0  11   4    0.33    0.11
  -1 -11  -4   19.74    1.33
  -1 -11  -4   18.28    1.20
  -1 -11  -4   15.91    1.47
   1  11   4   17.64    1.35
   1  11   4   19.69    1.80
  -2 -11  -4    9.39    0.86
  -2 -11  -4   10.06    0.70
   2  11   4    7.97    1.25
  -3 -11  -4    7.66    0.67
  -3 -11  -4    7.25    0.47
   3  11   4    5.47    1.03
   3  11   4    7.95    1.00
  -4 -11  -4    1.08    0.24
  -4 -11  -4    1.24    0.11
  -4 -11  -4    1.35    0.11
   4  11   4    1.97    0.49
   4  11   4    1.35    0.81
   5  11   4    8.56    1.19
   5  11   4    8.08    1.39
   5  11   4   10.45    2.32
  -6 -11  -4    0.63    0.08
  -6 -11  -4    0.55    0.14
   6  11   4    1.05    0.50
   6  11   4    0.45    1.44
   6  11   4    1.10    0.77
  -7 -11  -4    5.86    0.40
   7  11   4    8.53    1.25
  -9 -11  -4   28.59    1.76
  -6  12   4    0.46    0.05
   5 -12  -4    0.99    0.09
  -5  12   4    1.09    0.08
  -5  12   4    0.88    0.10
   4 -12  -4    1.22    0.10
  -4  12   4    1.21    0.10
  -4  12   4    1.24    0.14
   3 -12  -4    6.18    0.45
  -3  12   4    5.73    0.48
  -3  12   4    6.31    0.37
  -3  12   4    6.08    0.40
   2 -12  -4    0.43    0.06
   2 -12  -4    0.11    0.37
  -2  12   4    0.29    0.09
  -2  12   4    0.28    0.05
  -2  12   4    0.17    0.16
  -2  12   4    0.66    0.13
  -2  12   4    0.17    0.09
   1 -12  -4    4.83    0.73
   1 -12  -4    7.25    0.48
  -1  12   4    6.74    0.52
  -1  12   4    6.19    0.42
  -1  12   4    6.39    0.51
  -1  12   4    6.48    0.38
  -1  12   4    6.10    0.41
   0 -12  -4    0.70    0.08
   0 -12  -4    1.01    0.38
   0  12   4    0.70    0.08
   0  12   4    0.66    0.13
   0  12   4    0.82    0.20
   0  12   4    0.98    0.34
  -1 -12  -4    4.50    0.60
  -1 -12  -4    5.75    0.41
   1  12   4    6.82    0.81
   1  12   4    6.27    0.82
   1  12   4    5.42    0.48
   1  12   4    5.24    0.33
   1  12   4    5.07    0.44
  -2 -12  -4   19.06    1.19
  -2 -12  -4   17.40    1.49
   2  12   4   22.55    1.29
   2  12   4   16.30    1.85
   2  12   4   19.68    2.05
  -3 -12  -4    4.52    0.29
  -3 -12  -4    4.34    0.29
  -3 -12  -4    3.98    0.46
   3  12   4    4.26    0.88
   3  12   4    4.62    0.76
  -4 -12  -4    4.27    0.28
  -4 -12  -4    3.54    0.40
  -4 -12  -4    4.13    0.28
   4  12   4    5.13    0.78
   4  12   4    2.84    0.88
  -5 -12  -4   19.03    1.54
  -5 -12  -4   22.65    1.31
   5  12   4   21.05    2.25
  -6 -12  -4   15.19    0.88
   6  12   4   12.76    1.56
   6  12   4   13.27    1.58
  -7 -12  -4    0.98    0.09
   7  12   4    0.38    1.36
  -8 -12  -4   10.09    0.63
  -5  13   4   51.24    2.92
  -5  13   4   52.46    3.03
   4 -13  -4    1.58    0.13
  -4  13   4    1.51    0.11
  -4  13   4    1.44    0.14
   3 -13  -4    4.84    0.36
  -3  13   4    4.71    0.32
  -3  13   4    4.81    0.29
   2 -13  -4    3.43    0.24
  -2  13   4    2.25    0.30
  -2  13   4    3.23    0.24
  -2  13   4    3.10    0.22
   1 -13  -4   10.51    0.71
   1 -13  -4    7.96    0.90
  -1  13   4    9.96    0.59
  -1  13   4    9.38    0.60
  -1  13   4    9.50    0.69
  -1  13   4   10.23    0.55
  -1  13   4    8.81    0.73
   0 -13  -4    4.43    0.34
   0  13   4    4.99    0.67
   0  13   4    4.59    0.28
   0  13   4    4.21    0.38
   0  13   4    4.25    0.31
   0  13   4    4.89    0.41
  -1 -13  -4   18.57    1.66
  -1 -13  -4   22.21    1.55
   1  13   4   24.60    1.43
   1  13   4   21.63    1.21
   1  13   4   20.60    2.25
   1  13   4   21.01    1.57
  -2 -13  -4    0.90    0.26
  -2 -13  -4    1.36    0.11
   2  13   4    1.24    0.12
   2  13   4    1.92    0.41
  -3 -13  -4    1.65    0.13
  -3 -13  -4    1.53    0.26
  -3 -13  -4    1.52    0.13
   3  13   4    1.83    0.40
  -4 -13  -4    6.43    0.39
  -4 -13  -4    6.12    0.39
  -4 -13  -4    5.03    0.50
   4  13   4    6.04    0.83
  -5 -13  -4    2.84    0.20
   5  13   4    2.95    0.56
   5  13   4    1.07    0.77
  -6 -13  -4    0.66    0.08
   6  13   4    0.92    0.34
  -7 -13  -4    0.08    0.04
  -8 -13  -4    1.73    0.12
  -5  14   4    0.74    0.07
  -4  14   4    5.48    0.33
  -4  14   4    4.87    0.30
   3 -14  -4    8.90    0.62
  -3  14   4    8.20    0.49
  -3  14   4    8.10    0.52
   2 -14  -4    8.41    0.58
  -2  14   4    6.87    0.56
  -2  14   4    7.91    0.50
  -2  14   4    7.86    0.46
   1 -14  -4    0.79    0.08
  -1  14   4    0.77    0.08
  -1  14   4    0.78    0.11
  -1  14   4    0.78    0.11
  -1  14   4    0.79    0.18
   0 -14  -4    8.21    0.60
   0  14   4    8.20    0.47
   0  14   4    8.33    0.52
   0  14   4    7.72    0.50
   0  14   4    8.77    0.61
   1  14   4    0.09    0.06
   1  14   4    0.14    0.26
  -2 -14  -4    3.24    0.23
  -2 -14  -4    3.46    0.23
   2  14   4    3.36    0.22
  -4 -14  -4    4.71    0.31
  -4 -14  -4    4.64    0.31
  -5 -14  -4   17.29    1.08
  -6 -14  -4    0.23    0.05
   6  14   4    0.51    0.26
  -7 -14  -4    0.11    0.04
  -5  15   4    1.50    0.10
  -4  15   4   23.15    1.30
  -4  15   4   22.90    1.35
  -3  15   4   24.60    1.41
  -3  15   4   23.39    1.36
  -2  15   4    0.66    0.07
  -2  15   4    0.50    0.09
   1 -15  -4    0.38    0.06
  -1  15   4    0.52    0.08
  -1  15   4    0.32    0.08
   0 -15  -4   11.22    0.82
   0  15   4   11.39    0.67
   0  15   4   11.11    0.69
   0  15   4   11.45    0.64
  -1 -15  -4    4.73    0.30
   1  15   4    4.48    0.27
   1  15   4    4.14    0.30
  -2 -15  -4   10.92    0.64
  -2 -15  -4    9.64    0.63
   2  15   4    9.67    0.58
  -3 -15  -4   14.13    0.91
  -3 -15  -4   14.91    0.92
   3  15   4   13.64    0.82
   3  15   4   15.80    1.55
  -4 -15  -4   12.90    0.82
  -4 -15  -4   13.04    0.83
   4  15   4   13.66    1.41
  -6 -15  -4    0.03    0.03
  -3  16   4    2.12    0.14
   2 -16  -4    6.94    0.48
  -2  16   4    8.16    0.46
  -2  16   4    7.97    0.44
   1 -16  -4    2.70    0.20
  -1  16   4    3.06    0.20
  -1  16   4    3.06    0.18
   0 -16  -4    4.50    0.30
   0  16   4    4.59    0.28
   0  16   4    4.72    0.29
  -1 -16  -4    2.95    0.22
   1  16   4    3.39    0.20
   1  16   4    3.80    0.23
  -2 -16  -4    0.08    0.03
   2  16   4    0.28    0.08
   2  16   4    0.16    0.05
  -3 -16  -4    0.42    0.05
  -3 -16  -4    0.55    0.05
  -4 -16  -4    3.35    0.22
   4  16   4    3.28    0.21
   0 -17  -4    2.24    0.16
   0  17   4    2.48    0.15
  -1 -17  -4    0.05    0.02
   1  17   4    0.03    0.04
   2  17   4   10.55    0.59
   2  17   4   10.10    0.57
   1  16  -5    3.18    0.19
   0 -16   5   14.21    0.88
  -1  16  -5    7.28    0.48
   1 -16   5    8.38    0.49
  -2  16  -5    2.35    0.27
  -2  16  -5    2.96    0.20
   2 -16   5    3.01    0.19
  -3  16  -5    3.49    0.23
  -3  16  -5    3.54    0.30
   3  15  -5    1.88    0.14
   2  15  -5    1.38    0.12
  -2 -15   5    1.41    0.10
   1  15  -5    0.05    0.06
  -1 -15   5    0.20    0.04
   0  15  -5   11.52    0.75
   0  15  -5   12.37    0.70
   0 -15   5   12.92    0.77
  -1  15  -5   -0.05    0.17
  -1  15  -5    0.08    0.04
  -1  15  -5    0.20    0.08
   1 -15   5    0.09    0.05
  -2  15  -5    4.73    0.41
  -2  15  -5    5.09    0.32
   2 -15   5    4.35    0.38
  -3  15  -5    8.38    0.50
  -3  15  -5    9.15    0.60
   3 -15   5    7.07    0.63
  -4  15  -5   -0.05    0.06
  -4  15  -5    0.16    0.15
  -5  15  -5    1.58    0.20
  -5  15  -5    1.49    0.12
  -4 -14   5    0.03    0.06
  -3 -14   5    1.92    0.18
   2  14  -5   14.98    0.84
  -2 -14   5   15.47    0.91
  -2 -14   5   13.26    1.07
   1  14  -5    4.88    0.33
  -1 -14   5    5.52    0.34
   0  14  -5    1.87    0.15
   0  14  -5    2.00    0.18
   0 -14   5    2.00    0.15
  -1  14  -5    3.00    0.37
  -1  14  -5    3.37    0.24
  -1  14  -5    3.41    0.21
   1 -14   5    3.19    0.25
   1 -14   5    2.82    0.27
  -2  14  -5    1.61    0.16
  -2  14  -5    1.58    0.11
  -2  14  -5    1.72    0.28
   2 -14   5    1.69    0.14
   2 -14   5    1.61    0.16
  -3  14  -5    0.76    0.21
  -3  14  -5    0.60    0.10
   3 -14   5    0.71    0.08
  -4  14  -5    9.70    0.68
  -4  14  -5    9.19    0.58
  -5  14  -5    0.25    0.15
  -5  14  -5    0.19    0.07
  -6  14  -5    3.68    0.23
  -6  14  -5    3.39    0.30
  -5 -13   5    7.40    0.56
   4  13  -5    7.80    1.08
  -4 -13   5    8.23    0.62
  -3 -13   5    4.53    0.37
  -2 -13   5    0.89    0.14
  -2 -13   5    1.15    0.10
   1  13  -5    5.65    0.36
  -1 -13   5    5.16    0.45
  -1 -13   5    6.02    0.37
   0  13  -5    0.77    0.38
   0  13  -5    0.33    0.08
   0  13  -5    0.24    0.10
   0 -13   5    0.38    0.10
   0 -13   5    0.34    0.08
  -1  13  -5   20.33    1.41
  -1  13  -5   21.99    1.25
  -1  13  -5   21.80    1.17
   1 -13   5   21.14    1.51
   1 -13   5   18.54    1.62
  -2  13  -5   14.09    1.11
  -2  13  -5   15.55    0.97
  -2  13  -5   16.97    0.90
   2 -13   5   16.71    1.17
  -3  13  -5    0.57    0.46
  -3  13  -5    0.49    0.21
  -3  13  -5    0.32    0.10
   3 -13   5    0.48    0.07
   3 -13   5    0.44    0.07
  -4  13  -5    3.43    0.56
  -4  13  -5    3.42    0.36
  -4  13  -5    3.71    0.26
   4 -13   5    3.47    0.28
  -5  13  -5    0.92    0.37
  -5  13  -5    0.65    0.18
  -5  13  -5    0.48    0.09
   5 -13   5    0.51    0.06
  -6  13  -5    0.52    0.30
  -6  13  -5    0.62    0.16
  -6  13  -5    0.52    0.08
  -7  13  -5    0.62    0.14
  -6 -12   5    1.45    0.16
   5  12  -5    0.09    0.51
  -5 -12   5    0.09    0.08
  -4 -12   5   20.74    1.52
   3  12  -5    0.05    0.12
  -3 -12   5    0.02    0.08
  -3 -12   5    0.22    0.10
   2  12  -5    5.57    0.49
  -2 -12   5    5.79    0.36
  -2 -12   5    5.26    0.45
   1  12  -5   46.18    3.64
   1  12  -5   45.33    3.50
   1  12  -5   53.13    3.62
  -1 -12   5   49.68    3.71
  -1 -12   5   46.40    3.48
   0  12  -5    1.59    0.15
   0  12  -5    1.71    0.17
   0  12  -5    1.52    0.23
   0  12  -5    2.03    0.50
   0  12  -5    1.66    0.22
   0 -12   5    1.12    0.17
   0 -12   5    1.53    0.13
   0 -12   5    1.16    0.17
  -1  12  -5   28.82    1.73
  -1  12  -5   25.69    2.30
  -1  12  -5   28.65    1.63
  -1  12  -5   27.93    2.14
  -1  12  -5   27.86    1.92
   1 -12   5   32.43    2.11
   1 -12   5   27.69    2.12
   1 -12   5   31.96    2.11
  -2  12  -5    8.11    0.52
  -2  12  -5    8.20    0.91
  -2  12  -5    7.80    0.65
  -2  12  -5    7.43    0.65
  -2  12  -5    8.11    0.48
   2 -12   5    9.01    0.61
  -3  12  -5   -0.03    0.17
  -3  12  -5   -0.01    0.08
  -3  12  -5   -0.01    0.46
  -3  12  -5    0.02    0.04
   3 -12   5    0.14    0.06
  -4  12  -5   17.07    1.16
  -4  12  -5   17.93    1.04
  -4  12  -5   16.51    1.34
   4 -12   5   16.75    1.25
  -5  12  -5    0.15    0.08
  -5  12  -5    0.03    0.15
  -5  12  -5    0.32    0.39
   5 -12   5    0.06    0.04
  -6  12  -5    0.45    0.33
  -6  12  -5    0.47    0.16
  -6  12  -5    0.39    0.08
   6 -12   5    0.36    0.05
  -7  12  -5    4.12    0.34
  -7 -11   5    0.17    0.08
   6  11  -5   14.89    1.84
  -6 -11   5   16.65    1.18
   5  11  -5   16.24    1.87
  -5 -11   5   15.20    1.16
   3  11  -5    0.18    0.66
   3  11  -5    1.17    0.18
   3  11  -5    1.18    0.23
  -3 -11   5    0.94    0.15
  -3 -11   5    0.83    0.16
   2  11  -5    0.80    0.16
   2  11  -5    0.02    1.00
   2  11  -5    1.61    0.48
   2  11  -5    1.00    0.21
  -2 -11   5    0.87    0.09
  -2 -11   5    0.61    0.13
   1  11  -5   10.21    1.08
   1  11  -5   11.79    0.85
   1  11  -5   10.31    0.84
  -1 -11   5   10.32    0.84
  -1 -11   5    9.92    0.80
   0  11  -5    0.49    0.13
   0  11  -5    0.35    0.79
   0  11  -5    0.53    0.47
   0  11  -5    0.25    0.16
   0  11  -5    0.28    0.09
   0  11  -5    0.37    0.09
   0 -11   5    0.32    0.07
   0 -11   5    0.18    0.10
   0 -11   5    0.19    0.06
  -1  11  -5    4.61    0.44
  -1  11  -5    4.50    0.42
  -1  11  -5    5.11    0.43
  -1  11  -5    5.11    0.77
  -1  11  -5    4.69    0.30
  -1  11  -5    6.00    1.07
  -1  11  -5    3.97    0.67
   1 -11   5    3.93    0.39
   1 -11   5    5.27    0.37
  -2  11  -5    9.01    0.74
  -2  11  -5    9.58    0.60
  -2  11  -5    9.01    0.98
  -2  11  -5    9.83    0.55
  -2  11  -5    6.82    1.06
  -2  11  -5    9.19    0.71
   2 -11   5   10.39    0.71
  -3  11  -5    5.01    0.35
  -3  11  -5    4.88    0.45
  -3  11  -5    5.20    0.72
  -3  11  -5    5.37    0.31
   3 -11   5    5.40    0.40
  -4  11  -5   41.62    2.58
  -4  11  -5   39.80    2.70
  -4  11  -5   40.80    2.37
   4 -11   5   38.52    2.89
  -5  11  -5    0.43    0.17
  -5  11  -5    0.22    0.39
  -5  11  -5    0.50    0.10
   5 -11   5    0.45    0.08
  -6  11  -5   36.36    2.29
  -6  11  -5   34.97    2.36
  -7  11  -5    3.86    0.33
  -7  11  -5    4.04    0.47
   7  10  -5    4.82    0.92
  -7 -10   5    5.05    0.41
   5  10  -5    7.42    1.33
  -5 -10   5    9.90    0.71
   4  10  -5    0.68    0.21
   4  10  -5    1.56    0.67
  -4 -10   5    0.64    0.13
  -4 -10   5    0.88    0.14
   3  10  -5    0.38    0.19
   3  10  -5    0.67    0.66
   3  10  -5    0.32    0.13
   3  10  -5   -0.78    1.10
  -3 -10   5    0.41    0.11
   2  10  -5    1.34    0.19
   2  10  -5    1.04    1.12
   2  10  -5    0.95    0.47
   2  10  -5    1.21    0.22
  -2 -10   5    1.03    0.16
   1  10  -5    3.20    0.34
   1  10  -5    3.27    1.17
   1  10  -5    3.54    0.34
   0  10  -5   10.58    0.76
   0  10  -5   10.04    1.43
   0 -10   5    9.12    0.87
   0 -10   5    8.71    0.70
  -1  10  -5    2.13    0.82
  -1  10  -5    1.39    0.21
   1 -10   5    1.77    0.31
   1 -10   5    1.43    0.14
  -2  10  -5   14.34    1.18
  -2  10  -5   16.50    1.85
   2 -10   5   16.04    1.15
   2 -10   5   16.75    1.39
  -3  10  -5   54.44    4.92
   3 -10   5   52.00    3.82
  -4  10  -5    4.00    0.55
   4 -10   5    2.95    0.25
  -5  10  -5    0.81    0.40
  -5  10  -5    1.12    0.13
  -5  10  -5    0.93    0.18
   5 -10   5    0.77    0.12
  -6  10  -5    3.88    0.34
  -6  10  -5    3.80    0.51
  -7  10  -5    9.40    0.80
  -7  10  -5    9.91    0.68
  -7  -9   5   13.36    1.00
   6   9  -5    5.94    0.93
  -6  -9   5    3.97    0.41
  -6  -9   5    4.51    0.38
  -5  -9   5   11.09    0.83
  -5  -9   5   10.63    0.86
   4   9  -5    0.32    0.57
   4   9  -5    0.62    0.21
   4   9  -5    0.33    1.02
  -4  -9   5    0.79    0.13
  -4  -9   5    0.45    0.18
  -4  -9   5    0.53    0.13
   3   9  -5    3.58    0.62
   3   9  -5    4.47    0.39
   3   9  -5    4.38    0.42
  -3  -9   5    3.91    0.35
   2   9  -5    9.40    0.80
  -2  -9   5   10.88    0.93
   1   9  -5    1.17    0.20
  -1  -9   5    1.28    0.25
   0   9  -5   58.68    5.05
   0   9  -5   57.13    3.89
   0  -9   5   47.20    3.86
   0  -9   5   53.60    4.40
  -2   9  -5   14.87    1.64
  -2   9  -5   12.41    1.04
   2  -9   5   15.17    1.23
   2  -9   5   13.99    1.02
   3  -9   5    4.09    0.34
   3  -9   5    4.78    0.49
  -4   9  -5   10.68    1.23
   4  -9   5    8.19    0.79
   4  -9   5    7.94    0.63
  -5   9  -5    2.50    0.42
  -6   9  -5   20.01    1.45
  -6   9  -5   21.65    1.36
  -7   9  -5    2.82    0.40
  -7   9  -5    2.36    0.24
   7   8  -5    0.18    0.50
  -7  -8   5    0.37    0.11
   6   8  -5    2.26    0.65
  -6  -8   5    0.78    0.08
  -6  -8   5    0.99    0.21
  -6  -8   5    1.00    0.15
   5   8  -5   22.44    1.69
   4   8  -5   19.94    2.15
   4   8  -5   18.88    1.99
   4   8  -5   17.87    1.29
  -4  -8   5   15.94    1.25
  -4  -8   5   15.20    1.23
  -4  -8   5   15.34    1.20
   3   8  -5   31.95    2.39
   3   8  -5   31.28    3.34
  -3  -8   5   33.70    2.70
   1   8  -5   26.45    1.87
  -1  -8   5   24.34    2.12
   0   8  -5   11.11    0.78
   0  -8   5    9.11    0.73
   0  -8   5   10.15    0.91
  -1   8  -5   25.43    2.00
  -1   8  -5   30.85    2.68
   1  -8   5   24.33    1.98
   1  -8   5   31.03    2.31
  -2   8  -5   17.05    1.19
   2  -8   5   16.76    1.38
   2  -8   5   14.43    1.16
  -5   8  -5   24.41    2.40
   5  -8   5   24.13    2.05
  -6   8  -5    6.91    0.61
   8   7  -5   14.91    1.48
  -8  -7   5   11.40    0.95
   7   7  -5   13.01    1.76
  -7  -7   5   14.49    0.85
  -7  -7   5   14.60    1.13
  -7  -7   5   16.46    1.11
   6   7  -5   29.57    2.60
  -6  -7   5   37.79    2.56
  -6  -7   5   38.39    2.57
  -6  -7   5   35.54    2.00
   5   7  -5  106.20    7.64
   4   7  -5    4.59    1.03
   4   7  -5    3.61    0.38
  -4  -7   5    3.05    0.38
   3   7  -5   18.15    1.85
   3   7  -5   13.12    1.10
  -3  -7   5   14.48    1.25
   2   7  -5    5.32    0.46
  -2  -7   5    5.35    0.52
   0   7  -5   37.08    2.58
   0  -7   5   33.94    2.91
  -1   7  -5   18.44    1.39
   1  -7   5   17.93    1.37
   1  -7   5   20.67    1.60
  -2   7  -5    1.81    0.19
   2  -7   5    1.80    0.17
   2  -7   5    1.97    0.27
  -4   7  -5   15.00    1.78
  -4   7  -5   21.22    1.88
   4  -7   5   16.87    1.50
  -6   7  -5    3.43    0.82
   6  -7   5    5.88    0.57
  -8   7  -5    6.25    0.68
   9   6  -5    4.27    0.67
  -9  -6   5    4.44    0.35
   8   6  -5   16.13    1.76
  -8  -6   5   15.92    1.14
  -8  -6   5   14.47    0.88
   7   6  -5    0.25    0.54
  -7  -6   5    0.11    0.09
  -7  -6   5    0.05    0.16
   6   6  -5    9.92    0.93
   6   6  -5   11.53    1.68
  -6  -6   5   11.99    0.67
  -6  -6   5   12.18    0.93
  -6  -6   5   12.34    0.89
   5   6  -5   11.87    0.95
   4   6  -5   31.54    3.16
   4   6  -5   32.26    2.35
   4   6  -5   29.66    3.01
  -4  -6   5   33.04    2.63
   3   6  -5    8.71    1.18
   3   6  -5    7.19    0.60
   3   6  -5    6.67    1.01
  -3  -6   5    7.44    0.68
   2   6  -5    1.11    0.71
   2   6  -5    0.65    0.14
   2   6  -5    0.73    0.48
  -2  -6   5    0.80    0.17
   1   6  -5   45.13    4.46
   1   6  -5   49.24    3.45
  -1  -6   5   48.37    3.89
   0   6  -5   10.68    1.64
   0   6  -5   16.66    1.46
   0   6  -5   14.56    1.01
   0  -6   5   12.08    1.16
  -1   6  -5   25.95    1.92
  -1   6  -5   30.31    2.46
   1  -6   5   24.25    2.18
  -2   6  -5    0.41    0.50
   2  -6   5    0.75    0.20
  -3   6  -5   49.89    4.14
  -3   6  -5   45.82    4.15
  -3   6  -5   48.19    4.41
   3  -6   5   48.89    3.93
  -6   6  -5   27.40    2.40
   6  -6   5   24.82    2.19
  -8   6  -5   31.05    2.36
  -9   6  -5    1.56    0.35
 -10   6  -5   12.65    1.05
   9   5  -5    1.61    0.47
  -9  -5   5    1.28    0.09
   8   5  -5   33.30    3.70
  -8  -5   5   37.37    2.57
  -8  -5   5   35.22    2.00
   7   5  -5    0.01    0.57
  -7  -5   5    0.23    0.05
  -7  -5   5    0.16    0.17
  -7  -5   5    0.19    0.10
   6   5  -5   49.78    5.10
   6   5  -5   49.73    4.65
  -6  -5   5   49.34    2.76
  -6  -5   5   49.06    3.49
  -6  -5   5   45.80    3.53
  -6  -5   5   50.42    3.94
   5   5  -5    7.54    0.59
   5   5  -5    6.54    1.13
   5   5  -5    4.99    1.16
  -5  -5   5    6.51    0.70
   4   5  -5   13.16    1.58
   4   5  -5   11.37    0.96
   4   5  -5   12.89    1.52
  -4  -5   5   12.51    1.07
  -4  -5   5   13.11    1.10
   3   5  -5    1.95    0.21
   3   5  -5    1.35    0.64
   3   5  -5    1.33    0.60
  -3  -5   5    1.43    0.28
  -3  -5   5    1.20    0.22
   2   5  -5    1.64    0.20
   2   5  -5    2.38    0.75
   2   5  -5    1.95    0.60
  -2  -5   5    2.21    0.34
  -2  -5   5    1.79    0.25
   1   5  -5   22.72    1.63
   1   5  -5   22.23    2.28
   1   5  -5   21.15    2.10
  -1  -5   5   23.51    1.85
  -1  -5   5   21.68    1.86
   0   5  -5   23.06    2.03
   0   5  -5   23.34    2.29
   0  -5   5   20.88    1.84
   0  -5   5   23.02    1.86
  -1   5  -5   60.59    5.76
  -1   5  -5   69.55    5.51
  -1   5  -5   64.86    4.60
   1  -5   5   61.86    5.21
   1  -5   5   65.04    5.19
  -2   5  -5    2.71    0.46
  -2   5  -5    1.98    0.58
  -2   5  -5    1.60    0.46
   2  -5   5    2.01    0.20
   2  -5   5    1.53    0.27
  -3   5  -5   35.13    2.86
  -3   5  -5   34.60    2.85
  -3   5  -5   32.57    3.03
   3  -5   5   33.11    2.67
   3  -5   5   28.21    2.59
  -4   5  -5   64.70    5.66
  -4   5  -5   65.13    6.01
  -4   5  -5   74.79    5.60
   4  -5   5   60.18    5.28
   4  -5   5   70.71    5.43
  -6   5  -5   34.02    2.89
  -6   5  -5   33.07    2.85
   6  -5   5   30.62    2.63
  -7   5  -5   17.91    1.63
  -7   5  -5   15.93    1.63
   7  -5   5   16.34    1.47
  -8   5  -5    9.23    0.66
  -8   5  -5    9.60    0.85
   8  -5   5    9.56    0.96
  -9   5  -5    3.54    0.49
 -10   5  -5    5.86    0.42
 -10   5  -5    4.94    0.58
 -11   5  -5    5.68    0.60
 -11   5  -5    6.84    0.47
 -10  -4   5    4.47    0.26
   9   4  -5   18.70    1.81
  -9  -4   5   14.60    0.92
   8   4  -5    8.76    1.18
  -8  -4   5    7.69    0.46
   7   4  -5   10.20    1.50
  -7  -4   5   10.59    0.62
  -7  -4   5   10.63    0.82
  -7  -4   5   11.08    0.78
  -7  -4   5   10.69    0.99
  -7  -4   5   10.75    0.86
   6   4  -5   27.95    2.77
  -6  -4   5   26.16    1.98
  -6  -4   5   28.33    2.25
  -6  -4   5   26.09    1.98
  -6  -4   5   27.37    1.92
   5   4  -5    4.03    0.42
   5   4  -5    4.26    1.10
   5   4  -5    4.50    0.82
   5   4  -5    5.63    0.93
  -5  -4   5    4.48    0.33
  -5  -4   5    4.26    0.55
   4   4  -5   43.04    4.69
   4   4  -5   53.15    4.66
   4   4  -5   54.51    4.68
   4   4  -5   47.26    3.68
  -4  -4   5   54.41    4.08
  -4  -4   5   53.64    4.13
   3   4  -5   18.30    1.49
   3   4  -5   21.13    2.05
   3   4  -5   21.71    2.12
  -3  -4   5   20.91    1.68
  -3  -4   5   20.35    1.68
   2   4  -5   13.97    1.55
   2   4  -5   12.68    1.04
   2   4  -5   15.19    1.57
  -2  -4   5   14.40    1.18
  -2  -4   5   14.51    1.22
   1   4  -5    4.63    0.73
   1   4  -5    4.38    0.73
   1   4  -5    3.52    0.32
  -1  -4   5    4.19    0.39
  -1  -4   5    3.82    0.52
   0   4  -5   10.96    1.06
   0   4  -5   10.72    1.27
   0  -4   5    9.35    0.84
   0  -4   5   10.14    0.86
  -1   4  -5    2.66    0.23
  -1   4  -5    4.44    0.62
   1  -4   5    2.89    0.27
   1  -4   5    2.84    0.32
   1  -4   5    2.41    0.45
  -2   4  -5    2.92    0.53
  -2   4  -5    3.13    0.58
  -2   4  -5    3.04    0.55
   2  -4   5    2.97    0.35
   2  -4   5    3.57    0.46
   2  -4   5    3.90    0.32
  -3   4  -5  143.41   11.63
  -3   4  -5  129.37   12.26
  -3   4  -5  144.22   11.30
   3  -4   5  134.42   11.23
   3  -4   5  145.19   11.19
  -4   4  -5   50.35    3.71
  -4   4  -5   42.40    4.00
  -4   4  -5   42.84    3.76
   4  -4   5   40.51    3.48
  -5   4  -5    1.62    0.55
  -5   4  -5    1.10    0.38
   5  -4   5    1.46    0.31
  -6   4  -5   14.21    1.31
  -6   4  -5   14.15    1.36
   6  -4   5   12.89    1.22
  -7   4  -5   33.32    2.80
  -7   4  -5   33.63    2.88
   7  -4   5   29.69    2.64
  -8   4  -5    0.86    0.27
   8  -4   5    0.23    0.46
  -9   4  -5   27.07    1.87
  -9   4  -5   27.95    2.07
   9  -4   5   26.11    2.28
 -10   4  -5    1.53    0.34
 -11   4  -5    0.39    0.26
 -12   4  -5    2.80    0.22
 -10  -3   5    1.17    0.08
  -9  -3   5    5.35    0.31
  -9  -3   5    5.26    0.41
   8   3  -5    1.18    0.68
   8   3  -5    0.57    0.54
  -8  -3   5    0.94    0.16
  -8  -3   5    0.82    0.08
   7   3  -5   28.23    2.95
   7   3  -5   31.74    2.43
   7   3  -5   32.07    3.40
  -7  -3   5   33.10    1.80
  -7  -3   5   31.57    2.21
  -7  -3   5   34.61    2.62
  -7  -3   5   31.33    2.31
  -7  -3   5   31.24    2.25
   6   3  -5   40.94    2.96
   6   3  -5   33.47    2.88
   6   3  -5   43.55    3.75
  -6  -3   5   38.44    2.83
  -6  -3   5   39.07    2.79
  -6  -3   5   42.70    3.22
   4   3  -5  172.98   12.54
   4   3  -5  191.95   14.94
   4   3  -5  171.53   15.44
   4   3  -5  151.68   15.63
  -4  -3   5  181.74   12.32
  -4  -3   5  184.46   13.80
   3   3  -5   12.88    1.38
   3   3  -5   11.35    1.30
   3   3  -5   13.28    0.97
   3   3  -5   13.12    1.61
  -3  -3   5   13.39    1.09
  -3  -3   5   13.16    1.14
   2   3  -5   55.05    3.88
   2   3  -5   52.63    4.86
   2   3  -5   47.70    4.85
   2   3  -5   57.23    4.76
  -2  -3   5   55.06    4.36
  -2  -3   5   56.88    4.31
   1   3  -5    0.54    0.48
   1   3  -5    0.77    0.08
   1   3  -5    0.72    0.11
   1   3  -5    1.29    0.55
  -1  -3   5    1.05    0.16
  -1  -3   5    0.78    0.38
   0   3  -5   11.35    1.28
   0   3  -5   12.11    0.74
   0   3  -5   12.21    1.14
   0  -3   5   10.64    0.95
   0  -3   5   10.84    0.94
  -1   3  -5   21.75    2.21
  -1   3  -5   27.42    1.62
   1  -3   5   25.18    2.04
   1  -3   5   25.34    2.05
  -2   3  -5    1.26    0.37
  -2   3  -5    0.03    0.36
  -2   3  -5    0.04    0.29
   2  -3   5    0.16    0.13
   2  -3   5    0.36    0.19
  -3   3  -5   29.58    2.87
  -3   3  -5   32.45    2.73
  -3   3  -5   34.30    2.64
   3  -3   5   28.32    2.47
  -4   3  -5   82.78    6.03
  -4   3  -5   72.09    6.57
  -4   3  -5   72.28    6.21
   4  -3   5   67.67    5.80
  -5   3  -5    7.00    0.99
  -5   3  -5    5.45    0.71
   5  -3   5    6.96    0.73
  -6   3  -5  116.98    9.69
  -6   3  -5  113.47    9.36
  -7   3  -5    3.26    0.52
  -7   3  -5    3.48    0.58
  -9   3  -5   14.02    1.04
  -9   3  -5   12.81    0.89
  -9   3  -5   12.16    0.83
   9  -3   5   10.32    1.20
 -10   3  -5   18.56    1.26
 -10   3  -5   15.63    1.41
 -10   3  -5   19.14    1.19
 -11   3  -5    0.58    0.26
 -11   3  -5    0.72    0.13
 -11   3  -5    0.60    0.08
 -12   3  -5    1.23    0.11
 -12   3  -5    1.33    0.14
 -12   3  -5    1.48    0.25
 -10  -2   5    1.20    0.14
 -10  -2   5    1.48    0.09
  -9  -2   5    2.83    0.22
  -9  -2   5    3.02    0.18
  -9  -2   5    2.90    0.26
   8   2  -5    7.94    1.13
   8   2  -5    6.93    1.12
   8   2  -5    6.34    0.75
  -8  -2   5    8.46    0.45
  -8  -2   5    7.80    0.60
  -8  -2   5    8.45    0.55
  -8  -2   5    7.22    0.56
   7   2  -5    1.01    0.37
   7   2  -5    0.78    0.13
  -7  -2   5    0.73    0.17
  -7  -2   5    0.57    0.21
  -7  -2   5    1.06    0.09
  -7  -2   5    1.00    0.11
  -7  -2   5    0.73    0.29
   6   2  -5    0.79    0.47
   6   2  -5    0.64    0.27
  -6  -2   5    0.22    0.26
  -6  -2   5    0.19    0.08
  -6  -2   5    0.39    0.06
  -6  -2   5    0.03    0.15
   5   2  -5   13.61    1.04
   4   2  -5    9.86    0.73
   4   2  -5    8.02    1.00
   4   2  -5    9.98    1.45
   4   2  -5    8.53    1.07
  -4  -2   5    8.89    1.05
  -4  -2   5    9.31    0.66
  -4  -2   5    9.91    0.86
   3   2  -5    2.02    0.84
   3   2  -5    2.02    0.38
   3   2  -5    3.23    0.58
  -3  -2   5    2.77    0.39
  -3  -2   5    2.10    0.17
  -3  -2   5    2.19    0.44
   2   2  -5    8.73    1.06
   2   2  -5    9.53    1.29
   2   2  -5    8.83    0.94
  -2  -2   5    9.43    0.90
  -2  -2   5   10.77    1.09
  -2  -2   5    9.56    0.80
   1   2  -5    7.87    0.50
   1   2  -5    7.44    1.00
   1   2  -5    7.18    0.93
  -1  -2   5    8.72    0.88
  -1  -2   5    6.28    0.79
  -1  -2   5    7.20    0.64
   0   2  -5    1.60    0.41
   0   2  -5    2.24    0.45
   0   2  -5    1.57    0.12
   0  -2   5    1.43    0.19
   0  -2   5    2.16    0.58
   0  -2   5    1.28    0.40
  -1   2  -5    9.71    0.58
  -1   2  -5    7.05    0.89
  -1   2  -5    8.30    0.92
   1  -2   5    9.51    0.75
   1  -2   5    7.80    1.31
  -2   2  -5    0.79    0.34
  -2   2  -5    0.90    0.33
  -2   2  -5    0.61    0.26
  -2   2  -5    0.47    0.05
   2  -2   5    1.75    0.60
  -3   2  -5   51.72    4.24
  -3   2  -5   54.59    4.07
  -3   2  -5   54.79    3.17
  -3   2  -5   51.12    4.45
   3  -2   5   42.75    5.11
   3  -2   5   45.72    4.92
   3  -2   5   46.21    3.92
  -4   2  -5    7.84    0.74
  -4   2  -5    8.34    0.82
  -4   2  -5    7.02    0.94
   4  -2   5    7.22    0.97
   4  -2   5    7.10    0.73
  -5   2  -5   18.98    1.78
  -6   2  -5    0.19    0.23
  -6   2  -5    0.10    0.29
   6  -2   5    0.10    0.53
   6  -2   5    1.59    0.77
  -7   2  -5   18.57    1.66
  -7   2  -5   18.77    1.78
  -8   2  -5    8.17    1.00
  -8   2  -5    8.14    0.90
   8  -2   5    8.01    0.68
   8  -2   5    9.48    1.57
  -9   2  -5   11.71    0.84
  -9   2  -5   11.76    0.98
  -9   2  -5   11.35    0.78
 -10   2  -5    7.22    0.68
 -10   2  -5    7.34    0.50
 -10   2  -5    7.53    0.54
  10  -2   5    6.38    0.61
 -11   2  -5    8.70    0.61
 -11   2  -5    8.01    0.74
 -11   2  -5    8.17    0.56
 -12   2  -5    6.93    0.46
 -12   2  -5    6.51    0.59
 -12   2  -5    6.93    0.50
 -10  -1   5    3.52    0.27
 -10  -1   5    3.96    0.31
 -10  -1   5    4.29    0.23
   9   1  -5    1.28    0.48
  -9  -1   5    1.09    0.12
  -9  -1   5    1.16    0.09
  -9  -1   5    1.24    0.17
   8   1  -5    0.10    0.33
  -8  -1   5    0.05    0.05
  -8  -1   5    0.05    0.12
  -8  -1   5    0.15    0.04
  -8  -1   5    0.15    0.07
   7   1  -5    8.43    0.75
  -7  -1   5    7.94    0.60
  -7  -1   5    8.28    0.58
  -7  -1   5    7.65    0.82
  -7  -1   5    7.97    0.64
  -7  -1   5    8.66    0.48
   6   1  -5    4.77    0.84
   6   1  -5    5.17    1.34
   6   1  -5    6.95    0.55
   6   1  -5    5.48    0.51
  -6  -1   5    6.10    0.55
  -6  -1   5    6.50    0.68
  -6  -1   5    5.80    0.44
   5   1  -5   58.09    4.57
   5   1  -5   48.24    4.65
  -5  -1   5   51.01    3.97
  -5  -1   5   44.11    5.05
  -5  -1   5   46.87    3.47
  -5  -1   5   48.27    4.22
   4   1  -5   81.61    7.79
   4   1  -5   86.89    7.62
   4   1  -5   84.09    7.69
   4   1  -5   92.67    6.25
  -4  -1   5   87.13    8.81
  -4  -1   5   89.37    6.88
  -4  -1   5   85.92    6.10
   3   1  -5   25.21    2.51
   3   1  -5   25.46    2.27
   3   1  -5   23.38    2.29
  -3  -1   5   24.74    1.74
  -3  -1   5   24.81    2.57
  -3  -1   5   23.99    2.02
   2   1  -5   11.25    1.25
   2   1  -5   12.94    1.16
   2   1  -5   12.09    1.49
  -2  -1   5   12.97    1.36
  -2  -1   5   11.26    1.08
   1   1  -5   41.86    3.41
   1   1  -5   33.27    2.44
   1   1  -5   39.68    3.39
  -1  -1   5   40.45    3.99
  -1  -1   5   34.49    3.07
  -1  -1   5   41.45    3.84
  -1  -1   5   37.09    3.08
   0   1  -5  175.09   10.70
   0  -1   5  172.57   16.48
   0  -1   5  163.59   13.43
   0  -1   5  160.12   17.01
  -1   1  -5    2.73    0.19
  -1   1  -5    2.67    0.41
   1  -1   5    2.90    0.98
   1  -1   5    2.94    0.27
  -2   1  -5   29.47    3.11
   2  -1   5   39.32    3.68
   2  -1   5   39.57    3.82
  -3   1  -5   15.26    1.45
  -3   1  -5   15.17    1.32
  -3   1  -5   15.59    0.99
   3  -1   5   14.29    1.82
   3  -1   5   14.17    1.26
   3  -1   5   17.13    1.66
  -4   1  -5    0.28    0.27
  -4   1  -5    0.16    0.18
  -4   1  -5    0.07    0.31
  -4   1  -5    0.15    0.03
   4  -1   5   -0.19    0.27
   4  -1   5    0.25    0.44
   5  -1   5  220.75   19.93
   5  -1   5  186.06   20.51
  -7   1  -5   28.89    2.33
  -8   1  -5   48.89    3.77
  -8   1  -5   46.28    4.17
  -8   1  -5   46.76    3.96
   8  -1   5   47.30    3.46
  -9   1  -5    2.72    0.28
  -9   1  -5    2.40    0.37
  -9   1  -5    3.14    0.23
   9  -1   5    2.28    0.37
  10  -1   5    1.02    0.26
 -11   1  -5    0.31    0.12
 -11   1  -5    0.30    0.08
  11  -1   5    0.49    0.19
 -12   1  -5    0.00    0.08
 -12   1  -5    0.27    0.19
  10   0  -5    2.41    0.50
 -10   0   5    2.43    0.19
 -10   0   5    2.64    0.22
 -10   0   5    2.53    0.15
   9   0  -5    3.48    0.48
   9   0  -5    4.34    0.74
  -9   0   5    4.53    0.25
  -9   0   5    4.12    0.31
  -9   0   5    4.22    0.35
   8   0  -5   36.38    2.93
  -8   0   5   39.19    2.73
  -8   0   5   39.47    2.59
  -8   0   5   39.15    2.79
  -8   0   5   42.92    2.23
   7   0  -5   15.99    1.17
  -7   0   5   14.72    1.31
  -7   0   5   15.36    0.86
  -7   0   5   15.37    1.07
  -7   0   5   14.93    1.01
  -7   0   5   13.40    1.31
  -7   0   5   14.65    1.09
   6   0  -5   -0.27    0.98
   6   0  -5    0.12    0.33
   6   0  -5    0.43    0.17
  -6   0   5    0.00    0.25
  -6   0   5    0.19    0.06
  -6   0   5    0.26    0.08
   5   0  -5   26.39    3.20
  -5   0   5   32.95    2.28
  -5   0   5   32.78    2.64
  -5   0   5   34.88    3.36
  -5   0   5   31.48    2.77
   4   0  -5    3.89    0.56
   4   0  -5    5.51    1.12
   4   0  -5    4.60    0.36
  -4   0   5    4.99    0.54
  -4   0   5    4.89    0.34
  -4   0   5    4.13    0.65
   3   0  -5   42.24    4.03
   3   0  -5   45.10    3.96
  -3   0   5   43.23    4.52
  -3   0   5   47.88    3.10
  -3   0   5   40.67    3.52
   2   0  -5   30.78    2.58
   2   0  -5   27.84    1.84
   2   0  -5   28.84    2.74
  -2   0   5   29.81    3.01
  -2   0   5   26.15    2.33
   1   0  -5  234.06   18.19
   1   0  -5  212.89   13.93
  -1   0   5  219.91   22.01
  -1   0   5  230.71   21.36
  -1   0   5  194.89   17.10
   0   0   5   80.38    8.56
   0   0   5   91.94    8.25
   0   0   5   76.11    6.61
   1   0   5    2.86    0.28
   1   0   5    4.79    1.01
   1   0   5    4.17    1.14
  -2   0  -5  499.17   37.27
   2   0   5  432.38   46.79
  -3   0  -5  373.65   33.09
   3   0   5  384.80   36.98
  -4   0  -5   36.98    3.07
  -4   0  -5   32.15    2.73
  -4   0  -5   33.81    2.88
   4   0   5   28.83    3.55
   4   0   5   34.15    3.37
  -5   0  -5   18.93    1.52
  -5   0  -5   19.21    1.76
  -5   0  -5   19.35    1.61
   5   0   5   17.23    2.30
   5   0   5   18.96    2.06
  -7   0  -5   50.40    3.96
  -7   0  -5   47.51    4.12
   7   0   5   52.28    5.37
  -8   0  -5    3.95    0.52
  -8   0  -5    2.70    0.63
  -8   0  -5    4.11    0.42
   8   0   5    5.27    1.28
   8   0   5    2.46    0.38
  -9   0  -5    3.30    0.26
  -9   0  -5    3.52    0.31
  -9   0  -5    3.15    0.25
   9   0   5    3.07    0.42
 -10   0  -5   55.13    3.64
 -10   0  -5   59.81    3.82
  10   0   5   52.73    4.08
 -11   0  -5   26.76    1.73
 -11   0  -5   28.31    1.82
  11   0   5   23.89    1.95
 -12   0  -5   22.36    1.52
 -12   0  -5   21.81    1.45
  10  -1  -5    0.85    0.27
 -10   1   5    0.37    0.06
 -10   1   5    0.49    0.04
 -10   1   5    0.44    0.09
  -9   1   5    5.04    0.38
  -9   1   5    5.35    0.31
  -9   1   5    5.38    0.42
   8  -1  -5    7.69    0.70
  -8   1   5    8.01    0.56
  -8   1   5    8.74    0.47
  -8   1   5    7.96    0.62
  -8   1   5    7.48    0.59
   7  -1  -5    0.49    0.21
  -7   1   5    0.37    0.08
  -7   1   5    0.53    0.11
  -7   1   5    0.41    0.10
  -7   1   5    0.60    0.17
  -7   1   5    0.56    0.06
  -7   1   5    0.38    0.27
   6  -1  -5   14.12    2.02
   6  -1  -5   14.00    1.01
   6  -1  -5   11.67    1.40
  -6   1   5   13.58    1.19
  -6   1   5   13.70    1.18
  -6   1   5   13.43    0.97
   5  -1  -5    4.28    1.19
  -5   1   5    5.27    0.41
  -5   1   5    6.03    0.61
  -5   1   5    5.65    0.51
   4  -1  -5   13.01    1.63
   4  -1  -5   11.96    1.21
   4  -1  -5   13.10    0.91
  -4   1   5   12.96    0.89
  -4   1   5   11.40    1.09
  -4   1   5   12.38    1.41
   3  -1  -5   15.99    1.94
   3  -1  -5   18.87    1.66
  -3   1   5   18.22    1.96
  -3   1   5   16.75    1.50
  -3   1   5   18.59    1.27
   2  -1  -5   13.27    0.88
   2  -1  -5   13.28    1.54
  -2   1   5   13.19    1.19
  -2   1   5   14.60    1.49
  -2   1   5   14.01    1.57
   1  -1  -5   74.33    6.20
   1  -1  -5   71.86    4.64
  -1   1   5   68.94    5.74
  -1   1   5   76.75    7.23
  -1   1   5   71.96    7.49
   0  -1  -5   69.78    4.66
   0   1   5   80.59    7.36
   0   1   5   69.15    7.66
  -1  -1  -5    4.69    0.64
  -1  -1  -5    6.51    0.57
   1   1   5    6.93    1.32
   1   1   5    6.93    1.22
  -2  -1  -5   21.07    1.42
  -2  -1  -5   24.04    1.97
  -2  -1  -5   21.78    1.82
  -3  -1  -5    7.57    0.60
  -3  -1  -5    5.89    0.43
   3   1   5    6.21    0.59
  -4  -1  -5    0.87    0.08
  -4  -1  -5    0.98    0.32
  -4  -1  -5    1.19    0.20
   4   1   5    2.04    0.63
   4   1   5    0.90    0.51
  -5  -1  -5  112.14    8.26
  -5  -1  -5   97.88    8.82
  -6  -1  -5    3.80    0.45
  -6  -1  -5    4.75    0.62
   6   1   5    3.40    0.37
   6   1   5    5.13    0.96
   6   1   5    5.27    0.94
  -7  -1  -5  122.29    9.62
  -7  -1  -5  118.11    9.34
  -7  -1  -5   99.74    9.98
   7   1   5  134.52   12.19
   7   1   5  119.80    8.56
  -8  -1  -5   45.73    3.87
   8   1   5   47.27    3.41
  -9  -1  -5    0.57    0.09
  -9  -1  -5    0.80    0.22
  -9  -1  -5    0.62    0.10
  -9  -1  -5    0.68    0.15
   9   1   5    0.59    0.29
 -10  -1  -5    3.89    0.28
 -10  -1  -5    3.49    0.41
 -10  -1  -5    3.28    0.31
  10   1   5    3.66    0.43
 -11  -1  -5    3.31    0.25
 -11  -1  -5    3.13    0.28
 -11  -1  -5    3.60    0.40
  11   1   5    2.64    0.35
 -12  -1  -5    1.73    0.25
 -12  -1  -5    1.25    0.15
 -12  -1  -5    1.39    0.13
 -10   2   5    0.14    0.08
 -10   2   5    0.16    0.03
 -10   2   5    0.12    0.05
   9  -2  -5    0.34    0.23
  -9   2   5    0.48    0.05
  -9   2   5    0.45    0.13
  -9   2   5    0.56    0.09
   8  -2  -5    0.29    0.21
  -8   2   5    0.44    0.14
  -8   2   5    0.34    0.07
  -8   2   5    0.31    0.05
  -8   2   5    0.24    0.09
  -8   2   5    0.29    0.09
   7  -2  -5    5.29    0.45
  -7   2   5    4.78    0.59
  -7   2   5    5.07    0.39
  -7   2   5    5.60    0.31
  -7   2   5    4.84    0.44
  -7   2   5    4.75    0.39
  -7   2   5    5.32    0.49
   6  -2  -5    7.13    0.53
   6  -2  -5    5.49    0.80
   6  -2  -5    9.07    1.65
  -6   2   5    7.52    0.64
  -6   2   5    7.00    0.51
  -6   2   5    7.17    0.92
  -6   2   5    6.03    0.71
   5  -2  -5   16.51    2.16
   5  -2  -5   18.43    1.34
   5  -2  -5   16.58    1.75
  -5   2   5   19.37    1.60
  -5   2   5   19.46    1.31
  -5   2   5   18.08    2.00
  -5   2   5   18.67    1.56
   4  -2  -5   10.44    0.80
   4  -2  -5   10.62    1.48
   4  -2  -5   11.81    1.08
  -4   2   5   11.26    0.96
  -4   2   5   11.31    1.27
  -4   2   5   10.90    0.79
  -4   2   5   10.35    0.98
   3  -2  -5   33.95    3.31
  -3   2   5   33.10    2.85
  -3   2   5   36.75    2.50
  -3   2   5   37.31    3.69
   2  -2  -5   42.31    2.74
   2  -2  -5   42.13    3.84
  -2   2   5   43.86    4.43
  -2   2   5   45.42    4.29
  -2   2   5   40.25    3.42
   1  -2  -5   61.34    3.82
   1  -2  -5   57.70    5.11
  -1   2   5   59.61    6.25
  -1   2   5   60.30    5.99
   0  -2  -5    0.34    0.21
   0  -2  -5    0.59    0.06
   0   2   5    0.85    0.87
   0   2   5    0.77    1.08
  -1  -2  -5    0.19    0.20
   1   2   5    0.23    0.93
   1   2   5   -0.81    0.80
  -2  -2  -5   19.55    1.44
  -2  -2  -5   17.99    1.12
  -2  -2  -5   15.34    1.56
   2   2   5   15.05    1.63
   2   2   5   18.67    2.03
   2   2   5   17.59    2.18
  -3  -2  -5  175.38   12.21
  -3  -2  -5  142.97   12.64
  -3  -2  -5  154.52    9.71
   3   2   5  142.67   15.37
   3   2   5  142.29   13.50
   3   2   5  160.05   14.93
   3   2   5  147.26   11.91
  -4  -2  -5   74.86    6.65
  -4  -2  -5   84.32    6.39
   4   2   5   86.39    8.10
   4   2   5   74.49    7.83
   4   2   5   75.84    7.09
  -5  -2  -5   52.74    3.93
  -5  -2  -5   46.21    4.05
  -5  -2  -5   50.34    4.27
  -6  -2  -5   15.29    1.27
  -6  -2  -5   13.96    1.47
  -6  -2  -5   17.29    1.36
  -7  -2  -5   65.88    5.24
  -7  -2  -5   59.51    5.66
  -7  -2  -5   65.18    5.41
   7   2   5   66.25    5.77
   7   2   5   73.91    4.81
  -8  -2  -5    5.07    0.59
  -8  -2  -5    4.80    0.50
  -8  -2  -5    4.20    0.72
   8   2   5    4.89    0.49
   8   2   5    5.41    0.77
  -9  -2  -5    8.23    0.56
  -9  -2  -5    7.52    0.67
  -9  -2  -5    7.91    0.60
  -9  -2  -5    8.43    0.53
   9   2   5    7.79    0.71
 -10  -2  -5   13.53    1.10
 -10  -2  -5   12.88    0.98
 -10  -2  -5   15.45    0.93
  10   2   5   13.25    1.09
 -11  -2  -5    4.26    0.31
 -11  -2  -5    3.88    0.34
 -11  -2  -5    5.09    0.46
  11   2   5    4.06    0.41
 -12  -2  -5    0.49    0.17
 -12  -2  -5    0.39    0.07
 -12  -2  -5    0.39    0.09
 -10   3   5    7.79    0.53
 -10   3   5    7.27    0.42
 -10   3   5    7.05    0.49
  -9   3   5    2.13    0.22
  -9   3   5    2.15    0.14
  -9   3   5    2.09    0.18
   8  -3  -5   92.69    7.42
  -8   3   5  104.05    7.00
  -8   3   5  102.08    7.24
  -8   3   5  114.23    5.79
  -8   3   5  101.46    8.79
  -8   3   5  103.22    6.69
   7  -3  -5   15.86    1.27
  -7   3   5   18.03    1.24
  -7   3   5   17.21    1.16
  -7   3   5   18.45    0.98
  -7   3   5   17.95    1.51
  -7   3   5   16.54    1.24
  -7   3   5   15.96    1.48
   6  -3  -5  142.18   10.52
  -6   3   5  139.26   11.57
  -6   3   5  155.64   10.31
  -6   3   5  135.67   14.84
  -6   3   5  160.63   12.52
   5  -3  -5   41.95    4.38
   5  -3  -5   45.75    3.48
   5  -3  -5   47.93    4.56
  -5   3   5   47.92    5.00
  -5   3   5   53.36    3.43
  -5   3   5   55.36    4.16
  -5   3   5   46.34    3.89
   4  -3  -5  161.91   14.08
   4  -3  -5  151.28   11.90
  -4   3   5  173.12   16.79
  -4   3   5  172.52   11.67
  -4   3   5  179.31   14.16
  -4   3   5  158.90   13.07
   3  -3  -5  108.15    9.57
  -3   3   5  105.97    8.83
  -3   3   5  114.71    7.88
  -3   3   5  119.12   11.36
   2  -3  -5   76.07    5.01
   2  -3  -5   80.13    6.73
  -2   3   5   77.64    7.75
  -2   3   5   71.94    6.19
  -2   3   5   78.53    7.99
  -2   3   5   86.32    5.51
   1  -3  -5   49.45    4.46
   1  -3  -5   53.63    3.33
  -1   3   5   52.19    5.25
  -1   3   5   53.00    5.53
   0  -3  -5    8.83    0.58
   0   3   5   10.90    2.16
   0   3   5    8.91    1.60
  -1  -3  -5    2.79    0.49
  -1  -3  -5    3.47    0.23
   1   3   5    4.42    1.28
   1   3   5    3.84    1.14
  -2  -3  -5   17.88    1.11
  -2  -3  -5   15.79    1.54
   2   3   5   16.77    1.65
   2   3   5   19.18    2.10
  -3  -3  -5    8.45    0.64
  -3  -3  -5    6.83    0.47
  -3  -3  -5    6.33    0.73
   3   3   5    5.98    0.84
   3   3   5    9.47    1.18
  -4  -3  -5   40.31    3.66
   4   3   5   40.29    3.40
   4   3   5   45.36    4.36
   4   3   5   47.08    4.57
   4   3   5   42.20    3.93
  -5  -3  -5   29.46    2.62
  -5  -3  -5   31.26    2.14
  -5  -3  -5   28.77    2.46
  -6  -3  -5   78.31    5.62
  -6  -3  -5   72.80    6.27
  -6  -3  -5   80.30    6.46
   6   3   5   87.68    5.76
  -7  -3  -5   14.68    1.32
  -7  -3  -5   16.36    1.10
  -7  -3  -5   13.59    1.47
  -7  -3  -5   14.94    1.25
   7   3   5   15.42    1.16
   7   3   5   14.55    1.61
 -10  -3  -5   18.42    1.50
 -10  -3  -5   19.07    1.39
 -10  -3  -5   22.70    1.32
  10   3   5   18.79    1.51
 -11  -3  -5    3.53    0.32
 -11  -3  -5    4.16    0.30
 -11  -3  -5    4.64    0.42
 -12  -3  -5    0.74    0.17
 -12  -3  -5    0.59    0.09
 -12  -3  -5    0.52    0.07
  12   3   5    1.35    0.78
 -10   4   5    2.96    0.19
 -10   4   5    2.17    0.15
  -9   4   5   11.40    0.79
  -9   4   5   11.76    0.67
  -9   4   5   11.98    0.84
   8  -4  -5    0.56    0.15
  -8   4   5    0.48    0.09
  -8   4   5    0.52    0.06
  -8   4   5    0.49    0.14
  -8   4   5    0.28    0.08
  -7   4   5    1.22    0.18
  -7   4   5    1.00    0.12
  -7   4   5    1.16    0.09
  -7   4   5    1.17    0.20
  -7   4   5    1.10    0.15
   6  -4  -5   14.26    1.03
  -6   4   5   14.34    1.02
  -6   4   5   12.71    1.58
  -6   4   5   14.89    1.24
   5  -4  -5   14.33    1.05
   5  -4  -5   12.07    1.39
  -5   4   5   15.45    1.05
  -5   4   5   16.34    1.28
  -5   4   5   14.04    1.63
   4  -4  -5    1.74    0.14
  -4   4   5    1.75    0.15
  -4   4   5    2.57    0.45
  -4   4   5    1.76    0.22
   3  -4  -5   18.79    1.33
  -3   4   5   22.41    1.47
   2  -4  -5   18.13    1.19
  -2   4   5   17.01    1.95
  -2   4   5   17.38    2.05
  -2   4   5   20.34    1.31
   1  -4  -5    4.00    0.28
  -1   4   5    3.95    0.31
  -1   4   5    5.29    1.03
  -1   4   5    5.90    0.95
   0  -4  -5    0.25    0.04
   0   4   5    0.38    0.99
   0   4   5    0.41    0.07
   0   4   5   -0.31    1.19
   1   4   5    0.87    1.14
   1   4   5    3.21    1.34
  -2  -4  -5    5.33    0.37
   2   4   5    5.99    0.75
   2   4   5    8.20    1.45
  -3  -4  -5    9.97    0.77
  -3  -4  -5    8.55    0.58
   3   4   5    7.51    1.01
  -4  -4  -5  251.24   17.95
  -4  -4  -5  289.07   20.46
   4   4   5  249.17   25.75
   4   4   5  234.99   22.64
   4   4   5  251.80   24.99
  -5  -4  -5   49.65    3.82
  -5  -4  -5   52.30    4.38
   5   4   5   57.79    4.97
   5   4   5   52.15    5.45
   5   4   5   58.75    5.69
  -6  -4  -5   23.04    1.66
  -6  -4  -5   23.56    1.95
   6   4   5   20.79    2.28
   6   4   5   24.54    1.72
  -9  -4  -5   77.80    4.52
  -9  -4  -5   73.44    4.78
  -9  -4  -5   71.70    5.00
  -9  -4  -5   77.05    5.19
  -9  -4  -5   66.72    5.31
   9   4   5   74.15    5.34
 -11  -4  -5   22.82    1.44
 -11  -4  -5   21.03    1.51
 -12  -4  -5    0.93    0.17
  -9   5   5    1.00    0.14
  -9   5   5    0.78    0.10
  -9   5   5    0.90    0.07
   8  -5  -5    7.60    0.70
  -8   5   5    9.61    0.69
  -8   5   5    9.20    0.82
  -8   5   5   10.02    0.53
  -8   5   5    9.60    0.64
   7  -5  -5   12.64    0.99
  -7   5   5   14.01    0.98
  -7   5   5   13.81    0.92
  -7   5   5   11.95    0.98
  -7   5   5   13.62    1.19
  -7   5   5   15.03    0.78
   6  -5  -5   50.45    3.62
  -6   5   5   54.15    4.32
  -6   5   5   51.93    3.56
  -6   5   5   44.48    5.18
   5  -5  -5    0.87    0.08
  -5   5   5    0.79    0.32
   4  -5  -5   26.08    2.00
  -4   5   5   28.17    1.98
  -4   5   5   30.32    2.41
  -4   5   5   26.85    2.94
   3  -5  -5    1.52    0.12
   3  -5  -5    1.40    0.11
  -3   5   5    1.52    0.14
  -3   5   5    1.24    0.20
  -3   5   5    1.96    0.42
   2  -5  -5   20.28    1.37
  -2   5   5   23.46    1.51
  -2   5   5   19.66    2.22
  -2   5   5   21.16    2.35
   1  -5  -5   61.55    3.84
  -1   5   5   61.87    4.29
  -1   5   5   61.68    4.23
  -1   5   5   58.68    6.33
  -1   5   5   55.61    6.01
   0  -5  -5   27.98    1.77
   0   5   5   26.44    3.07
   0   5   5   26.65    1.97
   0   5   5   26.33    3.52
   0   5   5   28.84    1.95
  -1  -5  -5   17.83    1.11
   1   5   5   19.04    3.15
   1   5   5   13.08    2.38
   1   5   5   17.61    1.25
  -2  -5  -5   55.62    3.94
   2   5   5   62.44    5.00
   2   5   5   50.15    6.00
   2   5   5   49.41    5.68
   3   5   5   11.05    1.22
  -4  -5  -5   32.39    2.24
   4   5   5   32.69    3.57
   4   5   5   28.58    2.94
   4   5   5   29.70    3.31
   5   5   5   65.77    6.73
   5   5   5   62.80    5.58
  -6  -5  -5   42.70    2.82
  -6  -5  -5   41.98    3.25
   6   5   5   35.76    3.74
   6   5   5   42.14    2.88
   6   5   5   39.73    4.40
   6   5   5   32.98    3.53
  -8  -5  -5   38.81    2.31
  -8  -5  -5   37.20    2.66
  -8  -5  -5   34.65    2.73
   8   5   5   40.35    3.51
   8   5   5   34.70    4.42
   8   5   5   37.77    2.75
  -9  -5  -5    2.38    0.29
  -9  -5  -5    2.19    0.20
  -9  -5  -5    2.30    0.17
  -9  -5  -5    1.81    0.19
   9   5   5    4.37    0.81
 -10  -5  -5    0.57    0.07
 -10  -5  -5    0.54    0.09
 -10  -5  -5    0.62    0.18
  10   5   5    1.06    0.67
  10   5   5   -0.12    1.13
 -11  -5  -5    4.43    0.33
  11   5   5    6.78    1.30
  -9   6   5    9.11    0.54
  -9   6   5    9.86    0.64
  -8   6   5   21.16    1.14
  -8   6   5   20.62    1.33
  -8   6   5   18.53    1.74
   7  -6  -5    6.97    0.57
  -7   6   5    8.49    0.45
  -7   6   5    7.96    0.55
  -7   6   5    7.40    0.69
  -7   6   5    7.70    0.57
   6  -6  -5    0.21    0.05
  -6   6   5    0.01    0.08
  -6   6   5    0.23    0.10
  -6   6   5    0.04    0.04
   5  -6  -5    7.29    0.54
  -5   6   5    7.66    0.67
  -5   6   5    7.22    0.93
  -5   6   5    7.14    0.55
   4  -6  -5   27.38    2.04
  -4   6   5   29.16    2.02
  -4   6   5   29.65    2.45
  -4   6   5   27.10    2.99
   2  -6  -5  165.61   11.43
  -2   6   5  187.65   12.78
  -2   6   5  190.51   12.59
  -2   6   5  173.33   18.11
   1  -6  -5  208.76   12.78
  -1   6   5  205.98   14.08
  -1   6   5  199.14   20.27
  -1   6   5  186.99   19.65
  -1   6   5  201.34   14.29
   0   6   5    1.61    0.93
   0   6   5    1.45    1.09
  -1  -6  -5   66.70    3.82
   1   6   5   62.79    4.27
   1   6   5   52.18    6.64
   1   6   5   52.41    6.17
  -2  -6  -5    2.98    0.22
  -2  -6  -5    2.82    0.40
   2   6   5    5.87    1.56
   2   6   5    3.93    0.69
  -3  -6  -5   34.61    2.52
  -3  -6  -5   38.42    2.21
   3   6   5   29.68    4.07
   3   6   5   31.24    3.78
   3   6   5   35.00    3.26
  -4  -6  -5    2.51    0.29
   4   6   5    1.72    0.57
   4   6   5    1.29    0.94
   4   6   5    2.16    1.09
  -5  -6  -5    2.78    0.30
   5   6   5    4.75    1.18
   5   6   5    4.89    1.12
  -6  -6  -5   18.58    1.42
  -6  -6  -5   18.59    1.65
   6   6   5   22.55    2.03
   6   6   5   24.27    2.74
   6   6   5   16.54    2.04
  -7  -6  -5   32.91    2.28
  -7  -6  -5   35.41    2.67
   7   6   5   28.27    3.15
   7   6   5   28.57    3.02
  -8  -6  -5    6.41    0.47
  -8  -6  -5    6.79    0.52
  -8  -6  -5    6.98    0.44
  -8  -6  -5    6.10    0.56
   8   6   5    8.65    1.71
  -9  -6  -5    7.85    0.59
  -9  -6  -5    8.11    0.70
  -9  -6  -5    9.28    0.56
  -9  -6  -5    9.13    0.64
 -10  -6  -5    4.40    0.35
 -10  -6  -5    5.37    0.33
 -10  -6  -5    5.28    0.45
 -11  -6  -5   13.53    1.00
  11   6   5   11.93    2.04
  -9   7   5   26.09    1.61
  -9   7   5   23.26    1.39
  -8   7   5    1.14    0.12
  -8   7   5    0.99    0.08
   7  -7  -5    1.66    0.16
  -7   7   5    1.72    0.21
  -7   7   5    1.95    0.12
  -7   7   5    1.97    0.17
  -7   7   5    1.84    0.18
   6  -7  -5    0.82    0.09
  -6   7   5    0.64    0.12
  -6   7   5    0.93    0.16
  -6   7   5    0.83    0.08
   5  -7  -5   53.59    4.11
  -5   7   5   59.00    4.05
  -5   7   5   59.37    4.91
   4  -7  -5   38.04    2.81
  -4   7   5   39.94    3.36
  -4   7   5   34.75    4.05
  -4   7   5   43.34    2.78
   3  -7  -5    2.47    0.20
   3  -7  -5    2.47    0.19
  -3   7   5    3.15    0.58
  -3   7   5    3.07    0.23
   2  -7  -5   32.17    2.09
   2  -7  -5   29.60    2.33
  -2   7   5   31.85    2.79
  -2   7   5   33.22    3.41
  -2   7   5   35.63    2.34
   1  -7  -5    0.83    0.08
   1  -7  -5    0.68    0.07
  -1   7   5    1.06    0.12
  -1   7   5    0.84    0.10
   0  -7  -5  191.37   14.95
   0  -7  -5  214.94   13.31
   0   7   5  219.19   14.66
   0   7   5  209.90   14.88
  -1  -7  -5    3.71    0.26
   1   7   5    3.76    0.30
  -2  -7  -5  174.86   12.92
  -2  -7  -5  190.14   11.65
   3   7   5    0.23    0.42
  -4  -7  -5    7.54    0.67
   4   7   5    8.96    1.09
  -5  -7  -5    7.21    0.59
   8   7   5   25.62    3.52
   9   7   5   17.44    2.60
 -10  -7  -5   15.07    1.16
 -10  -7  -5   15.56    0.96
  -9   8   5    1.73    0.10
  -8   8   5    0.20    0.03
   7  -8  -5    1.76    0.15
  -7   8   5    1.61    0.19
  -7   8   5    1.86    0.12
   6  -8  -5    1.55    0.13
  -6   8   5    1.64    0.16
  -6   8   5    1.72    0.12
  -6   8   5    1.48    0.20
   5  -8  -5   39.62    2.90
  -5   8   5   41.43    2.28
  -5   8   5   40.07    3.47
  -5   8   5   40.46    2.87
   4  -8  -5    0.50    0.06
  -4   8   5    0.65    0.11
   3  -8  -5   13.23    1.00
   3  -8  -5   12.95    0.91
  -3   8   5   15.41    1.22
   2  -8  -5    1.83    0.14
  -2   8   5    1.89    0.18
  -2   8   5    1.64    0.30
   1  -8  -5    8.83    0.69
   1  -8  -5    9.59    0.63
  -1   8   5    9.86    0.71
  -1   8   5   10.29    0.90
  -1   8   5    9.29    0.70
   0  -8  -5   26.07    1.99
   0  -8  -5   26.67    1.79
   0   8   5   27.54    1.98
   0   8   5   27.63    2.00
   0   8   5   31.26    2.47
  -1  -8  -5   19.53    1.56
  -1  -8  -5   20.71    1.40
   1   8   5   24.81    1.57
  -2  -8  -5   22.00    1.73
  -2  -8  -5   25.01    1.56
  -2  -8  -5   23.86    1.85
   2   8   5   26.33    2.38
   3   8   5   35.23    3.45
   3   8   5   37.13    3.27
  -4  -8  -5    8.93    0.80
   4   8   5   10.35    1.24
   4   8   5   10.74    1.25
  -5  -8  -5   14.78    1.25
   5   8   5   19.47    1.90
   5   8   5   17.72    1.88
   6   8   5    4.24    0.90
  -7  -8  -5   19.01    1.15
  -7  -8  -5   17.29    1.35
   7   8   5   20.57    2.85
   7   8   5   16.90    2.13
   8   8   5   10.09    2.05
   9   8   5    1.49    1.27
   9   8   5    1.42    0.77
 -10  -8  -5   13.83    1.08
 -10  -8  -5   14.70    0.89
  11   8   5   16.20    2.22
  -8   9   5    0.62    0.05
   7  -9  -5    4.88    0.38
  -7   9   5    5.31    0.30
   6  -9  -5    0.15    0.04
  -6   9   5    0.07    0.06
  -6   9   5    0.16    0.04
  -6   9   5    0.16    0.07
   5  -9  -5    1.48    0.12
  -5   9   5    1.26    0.11
   4  -9  -5   55.97    4.18
  -4   9   5   61.11    4.12
  -4   9   5   57.34    4.99
  -4   9   5   58.69    3.28
   3  -9  -5   17.02    1.20
   3  -9  -5   17.11    1.33
  -3   9   5   20.82    1.34
  -3   9   5   19.10    1.61
   2  -9  -5    1.11    0.09
   2  -9  -5    1.05    0.11
  -2   9   5    1.11    0.13
  -2   9   5    1.08    0.19
  -2   9   5    1.07    0.15
   1  -9  -5    7.03    0.47
   1  -9  -5    6.93    0.50
  -1   9   5    6.66    0.53
  -1   9   5    6.59    0.52
  -1   9   5    7.20    0.70
   0  -9  -5    2.83    0.19
   0  -9  -5    2.36    0.19
   0   9   5    3.61    0.56
   0   9   5    2.09    0.22
   0   9   5    2.30    0.21
  -1  -9  -5    0.51    0.32
  -1  -9  -5    1.58    0.12
  -2  -9  -5   12.71    1.08
  -2  -9  -5   12.35    0.92
  -2  -9  -5   13.03    0.83
  -3  -9  -5    4.05    0.52
   3   9   5    7.11    1.04
   3   9   5    5.07    0.85
 -10  -9  -5   16.39    1.01
  -8  10   5    0.11    0.02
  -7  10   5   25.07    1.41
   6 -10  -5    1.14    0.10
  -6  10   5    1.20    0.09
  -6  10   5    1.16    0.15
   5 -10  -5    3.65    0.27
  -5  10   5    3.41    0.24
  -5  10   5    3.68    0.22
  -5  10   5    3.72    0.35
   4 -10  -5    5.04    0.39
  -4  10   5    4.77    0.35
  -4  10   5    5.38    0.51
  -4  10   5    5.72    0.42
  -4  10   5    5.65    0.32
   3 -10  -5    2.91    0.23
  -3  10   5    3.19    0.33
  -3  10   5    3.49    0.28
  -3  10   5    3.00    0.21
   2 -10  -5    3.85    0.28
   2 -10  -5    3.88    0.29
  -2  10   5    4.00    0.34
  -2  10   5    4.00    0.33
  -2  10   5    3.90    0.44
   1 -10  -5    0.84    0.08
   1 -10  -5    0.79    0.09
  -1  10   5    0.78    0.22
  -1  10   5    0.67    0.12
  -1  10   5    0.73    0.12
   0 -10  -5   17.10    1.08
   0 -10  -5   17.36    1.19
   0  10   5   15.82    1.21
   0  10   5   15.25    1.51
  -1 -10  -5    2.06    0.17
  -1 -10  -5    2.21    0.44
  -1 -10  -5    2.13    0.17
   1  10   5    2.34    0.21
  -2 -10  -5    3.65    0.27
  -2 -10  -5    3.54    0.26
  -2 -10  -5    3.47    0.50
   2  10   5    3.63    0.75
  -3 -10  -5   20.68    1.62
   3  10   5   20.96    2.12
   6  10   5   82.48    6.56
   6  10   5   66.67    9.43
  -7 -10  -5   13.28    0.76
  -7 -10  -5   11.51    0.90
   7  10   5    9.07    1.57
   8  10   5   21.31    3.40
   8  10   5   25.66    2.34
  10  10   5    3.73    1.05
  -7  11   5    1.53    0.10
  -6  11   5    0.02    0.03
   5 -11  -5   14.22    1.08
  -5  11   5   15.60    0.86
  -5  11   5   15.20    0.89
   4 -11  -5   20.82    1.51
  -4  11   5   20.61    1.51
  -4  11   5   21.63    1.19
  -4  11   5   21.31    1.82
  -4  11   5   20.17    1.24
   3 -11  -5   45.81    3.39
  -3  11   5   47.95    4.06
  -3  11   5   47.50    2.67
  -3  11   5   46.50    2.78
  -3  11   5   48.82    3.36
   2 -11  -5   19.48    1.36
  -2  11   5   19.56    1.65
  -2  11   5   19.53    1.05
  -2  11   5   17.95    1.36
  -2  11   5   17.53    1.13
  -2  11   5   18.81    1.09
  -2  11   5   19.05    1.39
   1 -11  -5   15.88    1.10
  -1  11   5   15.65    1.35
  -1  11   5   14.74    1.12
  -1  11   5   14.14    1.01
   0 -11  -5    5.78    0.40
   0 -11  -5    5.95    0.42
   0  11   5    5.42    0.75
   0  11   5    5.84    0.67
   0  11   5    5.38    0.45
  -1 -11  -5    5.10    0.65
  -1 -11  -5    5.77    0.41
  -1 -11  -5    5.70    0.39
   1  11   5    6.11    0.86
   1  11   5    4.98    0.76
   1  11   5    5.24    0.44
  -2 -11  -5    1.52    0.38
   2  11   5    1.76    0.66
   2  11   5    1.46    0.35
  -3 -11  -5   25.38    1.98
  -3 -11  -5   26.75    1.64
  -3 -11  -5   25.60    1.62
   3  11   5   26.72    2.74
  -4 -11  -5   48.18    3.04
  -4 -11  -5   46.03    3.57
  -4 -11  -5   51.88    3.08
   4  11   5   51.39    5.05
  -5 -11  -5   39.02    2.43
  -5 -11  -5   38.31    2.85
   5  11   5   40.81    4.06
   7  11   5   10.00    1.39
   8  11   5    0.89    1.25
  -9 -11  -5    2.80    0.19
   9  11   5    1.40    1.15
  -6  12   5    3.62    0.21
   5 -12  -5    7.26    0.50
  -5  12   5    6.60    0.41
  -5  12   5    6.45    0.39
   4 -12  -5    5.45    0.41
  -4  12   5    5.53    0.33
  -4  12   5    5.79    0.36
   3 -12  -5    4.89    0.35
  -3  12   5    4.31    0.32
  -3  12   5    4.91    0.29
   2 -12  -5   35.15    2.37
  -2  12   5   32.63    1.87
  -2  12   5   33.11    1.82
  -2  12   5   31.73    1.95
  -2  12   5   34.29    2.85
  -2  12   5   30.92    2.39
   1 -12  -5   69.03    4.56
  -1  12   5   63.90    3.50
  -1  12   5   66.35    5.44
  -1  12   5   59.02    4.00
  -1  12   5   61.32    3.72
  -1  12   5   61.49    4.56
  -1  12   5   62.99    3.59
   0 -12  -5    4.05    0.29
   0  12   5    3.61    0.27
   0  12   5    3.39    0.32
   0  12   5    3.99    0.52
   0  12   5    3.74    0.36
   0  12   5    3.68    0.24
  -1 -12  -5    6.90    0.48
  -1 -12  -5    4.96    0.68
   1  12   5    5.97    0.73
   1  12   5    6.45    0.39
   1  12   5    6.32    0.51
   1  12   5    7.65    0.53
   1  12   5    5.98    0.84
  -2 -12  -5    0.28    0.28
   2  12   5    0.40    0.52
   2  12   5    0.18    0.33
  -3 -12  -5   33.17    2.09
  -3 -12  -5   37.14    2.12
  -3 -12  -5   31.33    2.50
   3  12   5   33.02    3.49
  -4 -12  -5    0.15    0.05
  -4 -12  -5    0.11    0.05
  -4 -12  -5    0.18    0.17
   4  12   5    0.23    1.58
   4  12   5    0.55    0.75
   4  12   5    0.30    0.38
  -6 -12  -5   23.44    1.58
   6  12   5   29.85    3.76
  -7 -12  -5    7.41    0.47
   8  12   5    0.17    1.17
  -6  13   5    0.22    0.03
  -5  13   5    3.09    0.19
  -5  13   5    2.97    0.18
   4 -13  -5    5.21    0.39
  -4  13   5    5.40    0.33
  -4  13   5    5.20    0.31
   3 -13  -5    0.34    0.05
  -3  13   5    0.13    0.08
  -3  13   5    0.45    0.06
   2 -13  -5    7.07    0.50
  -2  13   5    6.02    0.49
  -2  13   5    6.97    0.40
  -2  13   5    6.39    0.43
   1 -13  -5    2.97    0.22
   1 -13  -5    2.44    0.49
  -1  13   5    2.86    0.30
  -1  13   5    2.73    0.21
  -1  13   5    2.79    0.18
  -1  13   5    2.64    0.22
   0 -13  -5   26.08    1.73
   0  13   5   22.43    1.75
   0  13   5   22.09    1.38
   0  13   5   25.21    1.57
   0  13   5   24.04    1.34
   0  13   5   24.17    1.43
  -1 -13  -5    1.80    0.40
  -1 -13  -5    2.51    0.19
   1  13   5    2.58    0.45
   1  13   5    2.81    0.52
   1  13   5    2.00    0.17
  -2 -13  -5    1.26    0.11
  -2 -13  -5    0.79    0.28
   2  13   5    1.80    0.39
   2  13   5    1.43    0.36
   2  13   5    1.24    0.12
  -3 -13  -5    2.07    0.17
  -3 -13  -5    2.25    0.32
  -3 -13  -5    2.36    0.17
   3  13   5    3.39    0.58
   3  13   5    3.14    0.56
  -4 -13  -5    0.42    0.06
  -4 -13  -5    0.45    0.16
  -4 -13  -5    0.34    0.06
   4  13   5    0.58    0.34
   4  13   5    0.37    0.58
  -5 -13  -5    1.48    0.12
   5  13   5    1.68    0.38
   5  13   5   -0.09    1.42
   5  13   5    1.00    0.66
   6  13   5   -0.86    1.31
  -8 -13  -5    0.03    0.03
  -5  14   5    5.16    0.33
  -5  14   5    5.80    0.31
  -4  14   5    0.04    0.04
  -4  14   5    0.17    0.03
  -3  14   5    0.37    0.05
  -3  14   5    0.30    0.07
   2 -14  -5    0.16    0.04
   2 -14  -5    0.11    0.04
  -2  14   5    0.19    0.05
  -2  14   5    0.06    0.07
   1 -14  -5    0.96    0.09
  -1  14   5    0.71    0.11
  -1  14   5    0.92    0.10
  -1  14   5    0.82    0.07
   0 -14  -5    5.44    0.36
   0 -14  -5    5.77    0.41
   0  14   5    5.36    0.35
   0  14   5    5.34    0.33
   0  14   5    5.65    0.36
  -1 -14  -5   24.93    1.52
   1  14   5   23.55    1.35
  -2 -14  -5    0.40    0.06
   2  14   5    0.41    0.07
   2  14   5    0.61    0.26
  -4 -14  -5   17.77    1.14
  -4 -14  -5   18.78    1.15
  -5 -14  -5    3.17    0.22
   5  14   5    3.59    0.54
  -6 -14  -5   11.16    0.66
   6  14   5    9.82    1.14
  -7 -14  -5    0.35    0.05
  -4  15   5    1.10    0.07
  -4  15   5    1.08    0.08
  -3  15   5    3.93    0.24
  -3  15   5    3.72    0.23
   2 -15  -5    0.29    0.04
  -2  15   5    0.24    0.06
  -2  15   5    0.26    0.05
   1 -15  -5   15.06    0.98
  -1  15   5   16.28    0.90
  -1  15   5   15.61    0.93
   0 -15  -5    0.09    0.04
   0  15   5    0.06    0.06
   0  15   5    0.13    0.04
  -1 -15  -5    6.19    0.41
   1  15   5    6.18    0.37
   1  15   5    6.53    0.39
  -2 -15  -5   33.02    1.96
   2  15   5   29.53    1.74
  -3 -15  -5    2.71    0.19
  -3 -15  -5    2.77    0.19
   3  15   5    2.67    0.18
  -4 -15  -5   21.31    1.38
  -4 -15  -5   22.00    1.40
   4  15   5   24.09    2.31
  -5 -15  -5    3.49    0.23
   5  15   5    3.33    0.47
  -6 -15  -5    2.60    0.17
   2 -16  -5    0.57    0.06
  -2  16   5    0.66    0.06
  -2  16   5    0.76    0.06
   1 -16  -5   10.00    0.65
  -1  16   5   10.69    0.59
  -1  16   5   10.38    0.61
   0 -16  -5    9.69    0.64
   0  16   5   10.53    0.58
   0  16   5   10.09    0.60
  -1 -16  -5    7.30    0.47
   1  16   5    7.53    0.42
   1  16   5    7.44    0.44
  -2 -16  -5    0.54    0.05
  -3 -16  -5    0.54    0.05
   3  16   5    0.64    0.09
   3  16   5    0.60    0.07
   4  16   5    0.13    0.05
   1  17   5    1.14    0.08
   2  15  -6    2.02    0.14
   1  15  -6   17.13    1.00
  -1 -15   6   18.44    1.10
   0 -15   6    0.62    0.06
  -1  15  -6    0.83    0.08
  -1  15  -6    1.03    0.12
   1 -15   6    1.08    0.09
  -2  15  -6    1.12    0.12
  -2  15  -6    0.93    0.19
  -3  15  -6    0.07    0.07
  -3  15  -6    0.06    0.16
   3 -15   6    0.05    0.04
  -4  15  -6    3.26    0.22
  -4  15  -6    3.32    0.31
   4 -15   6    3.06    0.26
  -5  15  -6    6.48    0.49
  -5  15  -6    7.31    0.43
  -3 -14   6    1.32    0.14
   2  14  -6   -0.02    0.07
  -2 -14   6    0.11    0.07
   1  14  -6    0.18    0.08
  -1 -14   6    0.26    0.05
  -1 -14   6    0.12    0.07
   0  14  -6    2.42    0.18
   0  14  -6    2.61    0.21
   0 -14   6    2.65    0.18
   0 -14   6    2.38    0.22
  -1  14  -6    0.06    0.09
  -1  14  -6    0.14    0.06
   1 -14   6    0.18    0.06
  -2  14  -6    9.01    0.71
  -2  14  -6   10.11    0.60
  -2  14  -6   10.13    0.53
   2 -14   6    8.46    0.75
  -3  14  -6   13.48    0.82
  -3  14  -6   13.34    0.94
  -4  14  -6    8.53    0.53
  -4  14  -6    8.27    0.63
  -5  14  -6    0.54    0.17
  -5  14  -6    0.75    0.10
  -6  14  -6    0.99    0.16
  -6  14  -6    1.01    0.10
  -4 -13   6    8.43    0.64
  -3 -13   6    4.92    0.39
  -2 -13   6    0.37    0.09
   1  13  -6    1.53    0.14
  -1 -13   6    1.14    0.15
  -1 -13   6    1.34    0.11
   0  13  -6   13.13    0.78
   0  13  -6   16.51    1.23
   0  13  -6   13.66    0.84
   0 -13   6   12.49    1.01
   0 -13   6   13.60    1.06
  -1  13  -6    4.32    0.26
  -1  13  -6    3.91    0.60
  -1  13  -6    4.56    0.30
   1 -13   6    4.28    0.31
   1 -13   6    3.70    0.35
   1 -13   6    3.69    0.34
  -2  13  -6    0.28    0.10
  -2  13  -6    0.25    0.06
  -2  13  -6    0.17    0.21
   2 -13   6    0.22    0.09
   2 -13   6    0.24    0.06
  -3  13  -6    6.42    0.60
  -3  13  -6    6.87    0.83
  -3  13  -6    7.24    0.49
   3 -13   6    8.48    0.58
   3 -13   6    8.06    0.58
  -4  13  -6   13.34    1.15
  -4  13  -6   13.44    0.99
  -4  13  -6   14.50    0.87
   4 -13   6   15.26    1.05
  -5  13  -6    1.46    0.23
  -5  13  -6    1.63    0.43
  -5  13  -6    1.61    0.15
  -6  13  -6    0.34    0.32
  -6  13  -6    0.28    0.15
  -6  13  -6    0.36    0.07
  -7  13  -6    2.71    0.25
  -4 -12   6    2.21    0.21
   3  12  -6    2.05    0.25
  -3 -12   6    2.06    0.22
  -3 -12   6    2.20    0.21
   2  12  -6   23.03    1.69
  -2 -12   6   21.04    1.61
   1  12  -6    1.41    0.22
   1  12  -6    1.21    0.47
  -1 -12   6    1.47    0.18
  -1 -12   6    1.44    0.15
   0  12  -6    0.13    0.08
   0  12  -6    0.15    0.13
   0  12  -6    0.07    0.09
   0  12  -6    0.05    0.43
   0 -12   6    0.08    0.07
   0 -12   6    0.23    0.10
  -1  12  -6    3.79    0.42
  -1  12  -6    4.17    0.69
  -1  12  -6    5.21    0.33
  -1  12  -6    4.96    0.30
   1 -12   6    4.96    0.36
   1 -12   6    4.33    0.41
   1 -12   6    4.47    0.39
  -2  12  -6    6.41    0.87
  -2  12  -6    7.25    0.46
  -2  12  -6    7.32    0.42
  -2  12  -6    5.55    0.88
  -2  12  -6    6.22    0.58
   2 -12   6    6.08    0.54
   2 -12   6    7.99    0.53
  -3  12  -6    3.15    0.20
  -3  12  -6    3.07    0.62
  -3  12  -6    3.09    0.24
  -3  12  -6    2.59    0.35
  -3  12  -6    2.88    0.66
   3 -12   6    2.53    0.27
   3 -12   6    3.54    0.25
  -4  12  -6   13.24    1.19
  -4  12  -6   13.81    1.01
  -4  12  -6   15.32    0.89
   4 -12   6   14.85    1.06
  -5  12  -6    0.38    0.41
  -5  12  -6    0.10    0.08
  -5  12  -6    0.02    0.16
   5 -12   6    0.06    0.04
  -6  12  -6    0.63    0.09
  -6  12  -6    0.77    0.18
  -6  12  -6    0.42    0.36
   6 -12   6    0.65    0.07
  -7  12  -6    2.32    0.38
  -7  12  -6    2.35    0.25
   6  11  -6    8.22    0.93
  -6 -11   6    6.24    0.52
   4  11  -6    2.14    0.28
  -4 -11   6    2.88    0.25
   3  11  -6    3.68    0.38
  -3 -11   6    4.01    0.34
  -3 -11   6    4.07    0.36
   2  11  -6    5.86    0.57
   2  11  -6    7.28    0.82
   2  11  -6    7.26    0.58
  -2 -11   6    6.27    0.52
   1  11  -6    2.86    0.63
   1  11  -6    3.47    0.35
   1  11  -6    2.50    0.34
  -1 -11   6    3.24    0.29
  -1 -11   6    3.47    0.30
   0  11  -6   42.95    2.31
   0  11  -6   44.75    3.11
   0  11  -6   42.49    3.01
   0  11  -6   42.59    3.98
   0  11  -6   42.22    2.43
   0  11  -6   47.10    3.21
   0 -11   6   35.03    3.18
   0 -11   6   35.06    2.98
  -1  11  -6    3.51    0.34
  -1  11  -6    3.13    0.23
  -1  11  -6    2.64    0.32
  -1  11  -6    3.00    0.60
  -1  11  -6    3.34    0.25
  -1  11  -6    3.99    1.00
  -1  11  -6    2.32    0.67
   1 -11   6    3.38    0.26
   1 -11   6    2.89    0.28
  -2  11  -6   16.10    1.20
  -2  11  -6   14.41    1.16
  -2  11  -6   11.70    1.42
  -2  11  -6   15.92    1.95
  -2  11  -6   15.62    0.94
  -2  11  -6   16.12    0.88
  -2  11  -6   14.10    1.07
   2 -11   6   16.89    1.13
  -3  11  -6    9.10    0.58
  -3  11  -6    8.55    1.12
  -3  11  -6    9.68    0.53
  -3  11  -6    8.80    0.70
  -3  11  -6    8.08    0.99
   3 -11   6    9.67    0.69
  -4  11  -6   19.35    2.05
  -4  11  -6   25.52    1.63
  -4  11  -6   25.57    1.36
  -4  11  -6   21.79    1.77
  -4  11  -6   25.84    1.47
   4 -11   6   26.17    1.78
  -5  11  -6    0.39    0.43
  -5  11  -6    0.51    0.18
  -5  11  -6    0.75    0.11
   5 -11   6    0.55    0.09
  -6  11  -6    0.10    0.14
  -6  11  -6    0.38    0.37
   6 -11   6    0.02    0.05
  -7  11  -6    0.48    0.32
  -7  11  -6    0.20    0.14
  -8  11  -6    0.70    0.27
  -7 -10   6    0.04    0.07
   6  10  -6    0.80    0.53
   5  10  -6    8.01    1.26
  -5 -10   6   10.06    0.72
  -5 -10   6    9.47    0.74
   4  10  -6    3.98    0.40
  -4 -10   6    4.35    0.36
  -4 -10   6    4.41    0.36
   3  10  -6   15.68    1.17
   3  10  -6   13.06    1.14
  -3 -10   6   14.63    1.08
  -3 -10   6   15.30    1.10
   2  10  -6    7.79    1.62
   2  10  -6    8.56    1.07
   2  10  -6   12.04    0.90
   2  10  -6    9.92    0.88
  -2 -10   6   11.67    0.84
  -2 -10   6   12.06    0.87
   1  10  -6   23.30    1.57
   1  10  -6   19.66    1.52
   1  10  -6   17.35    2.29
   1  10  -6   20.95    1.75
  -1 -10   6   18.74    1.49
   0  10  -6    1.46    0.21
   0  10  -6    1.13    0.55
   0  10  -6    1.16    0.21
   0  10  -6    0.92    0.82
   0  10  -6    0.63    0.46
   0 -10   6    0.96    0.11
   0 -10   6    0.86    0.15
   0 -10   6    1.12    0.11
  -1  10  -6    0.23    0.45
  -1  10  -6    0.90    0.17
  -1  10  -6    0.64    0.86
  -1  10  -6    0.71    0.18
   1 -10   6    0.93    0.11
  -2  10  -6   20.80    1.55
  -2  10  -6   19.76    2.24
  -2  10  -6   18.39    1.50
   2 -10   6   21.63    1.47
  -3  10  -6   14.35    1.79
  -3  10  -6   12.20    1.43
  -3  10  -6   12.56    1.22
  -3  10  -6   14.78    1.02
   3 -10   6   16.95    1.09
  -4  10  -6   31.51    1.86
  -4  10  -6   29.76    2.17
  -4  10  -6   29.85    2.56
  -4  10  -6   32.31    2.03
  -4  10  -6   33.10    1.74
  -4  10  -6   31.92    3.10
   4 -10   6   30.28    2.27
  -5  10  -6   29.35    1.78
  -5  10  -6   33.15    1.95
  -5  10  -6   26.71    2.42
  -5  10  -6   29.94    2.07
   5 -10   6   30.48    2.18
  -6  10  -6    1.26    0.40
  -6  10  -6    1.01    0.18
   6 -10   6    0.80    0.11
  -7  10  -6    0.42    0.33
  -7  10  -6    0.40    0.14
  -8  10  -6    0.06    0.27
   7   9  -6    3.18    0.68
  -7  -9   6    4.02    0.32
  -5  -9   6    0.96    0.15
  -5  -9   6    0.66    0.18
   4   9  -6   20.35    1.76
   4   9  -6   22.83    1.80
  -4  -9   6   24.90    1.73
  -4  -9   6   24.36    1.66
  -4  -9   6   24.83    1.73
   3   9  -6   32.59    2.49
   3   9  -6   30.01    2.43
   3   9  -6   33.11    3.39
  -3  -9   6   34.53    2.38
  -3  -9   6   33.44    2.39
  -3  -9   6   33.54    2.32
   2   9  -6    0.16    0.17
   2   9  -6    0.32    0.99
   2   9  -6   -0.10    0.42
   2   9  -6    0.29    0.10
  -2  -9   6    0.22    0.10
   0   9  -6   27.43    1.85
   0  -9   6   21.95    1.81
   0  -9   6   26.11    2.11
  -2   9  -6   11.86    1.03
  -2   9  -6   15.18    1.70
   2  -9   6   13.65    1.00
   2  -9   6   15.23    1.23
  -3   9  -6    4.04    0.94
   3  -9   6    3.42    0.40
   3  -9   6    2.92    0.26
  -4   9  -6    3.62    0.84
   4  -9   6    2.63    0.24
  -5   9  -6    4.07    0.33
  -5   9  -6    4.67    0.59
   5  -9   6    3.29    0.31
  -6   9  -6    3.09    0.49
  -6   9  -6    3.12    0.64
  -6   9  -6    3.43    0.30
  -7   9  -6   37.74    2.45
  -7   9  -6   40.05    2.39
  -7   9  -6   34.31    2.88
  -8   9  -6   19.96    1.37
   7   8  -6    3.68    0.64
  -7  -8   6    2.96    0.28
   5   8  -6   23.91    1.81
   4   8  -6   14.35    2.07
   4   8  -6   14.04    1.16
   4   8  -6   14.96    1.17
  -4  -8   6   14.92    1.07
  -4  -8   6   14.85    1.13
  -4  -8   6   15.27    1.11
   3   8  -6   27.47    1.88
   3   8  -6   24.83    1.91
   3   8  -6   28.20    2.02
  -3  -8   6   22.60    1.82
  -3  -8   6   23.18    1.79
   2   8  -6   19.56    1.60
  -2  -8   6   23.22    1.81
   1   8  -6   44.62    3.57
  -1  -8   6   54.31    4.04
   0   8  -6   39.14    4.00
   0   8  -6   44.60    3.04
   0  -8   6   40.70    3.43
  -1   8  -6    2.48    0.26
   1  -8   6    2.96    0.36
   1  -8   6    2.49    0.21
  -2   8  -6   19.49    1.54
   2  -8   6   22.53    1.77
   2  -8   6   20.85    1.52
  -3   8  -6   19.53    1.90
   3  -8   6   16.88    1.43
   3  -8   6   15.01    1.21
   4  -8   6   39.79    3.21
   4  -8   6   37.78    2.81
  -6   8  -6    1.79    0.36
  -6   8  -6    2.35    0.50
  -6   8  -6    4.09    0.92
  -6   8  -6    1.84    0.20
  -7   8  -6   28.23    1.87
  -7   8  -6   31.90    2.30
  -7   8  -6   28.39    1.93
  -8   8  -6   12.36    1.02
  -8   8  -6   17.36    1.27
   7   7  -6   13.38    1.58
  -7  -7   6   15.01    1.01
  -7  -7   6   12.41    0.77
   5   7  -6   42.34    3.12
   4   7  -6   33.21    2.50
   4   7  -6   32.72    3.40
   4   7  -6   33.59    2.45
  -4  -7   6   33.11    2.31
  -4  -7   6   33.80    2.39
  -4  -7   6   31.71    2.40
   3   7  -6   10.51    0.92
  -3  -7   6   12.60    1.03
   2   7  -6   43.99    4.18
   2   7  -6   38.12    3.13
  -2  -7   6   47.42    3.53
   1   7  -6   98.11    9.27
   1   7  -6  100.14    7.39
  -1  -7   6  110.64    8.32
   0  -7   6   19.71    1.66
  -2   7  -6    2.72    0.66
   2  -7   6    1.44    0.25
   2  -7   6    1.07    0.13
   3  -7   6   27.93    2.11
   3  -7   6   30.21    2.41
  -5   7  -6    0.14    0.54
  -5   7  -6    1.75    0.61
   5  -7   6    0.07    0.18
  -6   7  -6   42.83    4.06
  -7   7  -6   18.02    1.16
  -7   7  -6   17.91    1.23
  -7   7  -6   18.15    1.48
  -8   7  -6    6.74    0.68
  -8   7  -6    6.12    0.54
  -9   7  -6    6.25    0.67
 -10   7  -6   17.41    1.38
   8   6  -6    0.98    0.46
  -8  -6   6    1.17    0.15
  -8  -6   6    1.05    0.08
   7   6  -6    2.10    0.58
  -7  -6   6    1.69    0.18
  -7  -6   6    1.38    0.10
  -7  -6   6    1.65    0.25
   5   6  -6    6.71    0.61
   4   6  -6    0.32    0.19
   4   6  -6    0.16    0.58
   4   6  -6   -0.05    0.80
  -4  -6   6    0.24    0.16
  -4  -6   6    0.40    0.15
   3   6  -6    3.55    0.73
   3   6  -6    3.09    0.34
   3   6  -6    4.31    0.99
  -3  -6   6    3.40    0.37
   2   6  -6   11.23    1.28
   2   6  -6   11.79    1.58
   2   6  -6   10.53    0.90
  -2  -6   6   12.94    1.02
   1   6  -6    9.51    1.42
   1   6  -6    8.42    0.69
   1   6  -6    7.60    1.00
  -1  -6   6   10.00    0.80
   0   6  -6   10.89    1.45
   0  -6   6   10.43    0.92
  -1   6  -6   48.15    4.86
  -1   6  -6   52.00    3.85
  -1   6  -6   56.12    4.71
   1  -6   6   51.77    3.85
   1  -6   6   60.21    4.36
  -2   6  -6    1.76    0.46
   2  -6   6    1.47    0.24
   2  -6   6    1.25    0.15
  -3   6  -6    3.63    0.57
  -3   6  -6    2.63    0.65
  -3   6  -6    3.15    0.66
   3  -6   6    2.54    0.34
   3  -6   6    2.73    0.27
  -4   6  -6   17.71    1.69
  -4   6  -6   16.91    1.86
  -4   6  -6   18.96    1.81
   4  -6   6   18.30    1.34
   4  -6   6   18.73    1.55
  -5   6  -6    8.45    0.95
  -6   6  -6   12.82    1.37
  -6   6  -6   15.34    1.61
   6  -6   6   11.04    1.11
  -7   6  -6   22.19    1.68
  -7   6  -6   20.80    1.41
  -8   6  -6   11.55    0.84
  -8   6  -6   12.42    1.04
  -9   6  -6    0.15    0.27
  -9   6  -6    0.05    0.18
 -10   6  -6   -0.09    0.26
   9   5  -6    2.79    0.56
   8   5  -6    0.32    0.43
  -8  -5   6    0.42    0.05
   7   5  -6   50.00    5.10
  -7  -5   6   51.90    3.55
  -7  -5   6   51.39    3.51
  -7  -5   6   43.97    2.77
   6   5  -6   10.68    0.95
  -6  -5   6   11.99    0.89
  -6  -5   6   12.73    1.08
  -6  -5   6   12.31    0.93
  -6  -5   6   11.28    0.67
   4   5  -6   20.22    2.21
   4   5  -6   22.73    2.19
   4   5  -6   18.75    1.56
  -4  -5   6   22.22    1.76
   3   5  -6    4.04    0.79
   3   5  -6    3.08    0.35
   3   5  -6    4.02    0.86
  -3  -5   6    3.57    0.37
  -3  -5   6    3.81    0.46
   2   5  -6    3.87    0.88
   2   5  -6    2.86    0.30
   2   5  -6    3.01    0.66
  -2  -5   6    3.17    0.47
  -2  -5   6    3.43    0.34
   1   5  -6    2.10    0.55
   1   5  -6    2.46    0.84
   1   5  -6    1.87    0.23
  -1  -5   6    2.96    0.45
  -1  -5   6    2.34    0.28
   0   5  -6    7.96    1.37
   0   5  -6   11.62    0.76
   0   5  -6   11.62    1.13
   0  -5   6    9.04    0.87
   0  -5   6    7.86    1.02
  -1   5  -6   22.47    2.18
  -1   5  -6   23.76    1.67
  -1   5  -6   23.02    2.25
   1  -5   6   20.73    1.96
   1  -5   6   23.79    1.89
  -2   5  -6    3.78    0.67
  -2   5  -6    3.39    0.63
   2  -5   6    2.20    0.49
   2  -5   6    3.00    0.35
  -3   5  -6    2.00    0.59
  -3   5  -6    2.12    0.58
  -3   5  -6    2.34    0.49
   3  -5   6    1.99    0.28
  -4   5  -6    6.35    0.76
  -4   5  -6    6.31    0.86
  -4   5  -6    6.10    0.93
   4  -5   6    6.46    0.61
   4  -5   6    5.72    0.63
   4  -5   6    6.78    0.49
  -5   5  -6    7.77    1.08
  -5   5  -6    8.28    0.92
   5  -5   6    7.70    0.74
   5  -5   6    7.36    0.74
  -6   5  -6    5.68    0.75
  -6   5  -6    5.14    0.77
  -6   5  -6    6.93    1.09
   6  -5   6    5.50    0.59
   6  -5   6    5.08    0.62
  -7   5  -6    1.35    0.52
  -7   5  -6    1.29    0.41
   7  -5   6    1.59    0.41
  -8   5  -6    9.78    0.87
  -8   5  -6   10.02    0.70
   8  -5   6    9.56    0.97
  -9   5  -6    2.33    0.29
  -9   5  -6    3.00    0.42
 -10   5  -6    1.02    0.30
 -11   5  -6    0.03    0.25
   8   4  -6   16.92    1.78
  -8  -4   6   14.76    0.89
   7   4  -6   28.21    2.72
  -7  -4   6   25.26    1.82
  -7  -4   6   22.00    1.40
   5   4  -6   46.12    4.83
   5   4  -6   56.51    5.35
   5   4  -6   54.57    3.78
  -5  -4   6   49.43    4.18
   4   4  -6   18.66    2.01
   4   4  -6   18.55    1.99
   4   4  -6   17.74    1.38
  -4  -4   6   18.44    1.56
   3   4  -6    4.82    0.39
   3   4  -6    4.16    0.80
   3   4  -6    4.52    0.87
  -3  -4   6    3.87    0.41
  -3  -4   6    4.58    0.52
   2   4  -6   15.53    1.72
   2   4  -6   17.20    1.68
   2   4  -6   14.71    1.19
  -2  -4   6   16.84    1.38
  -2  -4   6   16.28    1.34
   1   4  -6   16.78    1.81
   1   4  -6   13.87    1.20
   1   4  -6   18.04    1.67
  -1  -4   6   16.22    1.44
  -1  -4   6   17.69    1.36
   0   4  -6  318.99   23.94
   0   4  -6  268.03   25.28
   0  -4   6  278.90   23.10
  -1   4  -6    0.49    0.42
  -1   4  -6    0.16    0.08
  -1   4  -6    0.43    0.51
   1  -4   6    0.14    0.12
   1  -4   6    0.13    0.06
   1  -4   6   -0.01    0.48
  -2   4  -6    6.51    0.95
  -2   4  -6    7.35    0.96
  -2   4  -6    8.04    0.98
   2  -4   6    7.46    0.67
   2  -4   6    8.18    0.64
   2  -4   6    6.05    0.81
  -3   4  -6  321.52   24.18
  -3   4  -6  311.57   24.92
  -3   4  -6  293.28   26.28
   3  -4   6  256.42   23.48
   3  -4   6  319.20   24.04
  -4   4  -6   89.30    6.73
  -4   4  -6   83.03    6.90
  -4   4  -6   77.07    7.28
   4  -4   6   70.37    6.42
   4  -4   6   88.87    6.60
  -5   4  -6   31.61    3.17
   5  -4   6   35.48    2.72
  -6   4  -6   11.00    1.17
  -6   4  -6   11.80    1.14
   6  -4   6   10.85    1.02
  -7   4  -6   15.76    1.49
  -7   4  -6   15.80    1.52
   7  -4   6   14.26    1.36
  -8   4  -6   16.37    1.27
  -8   4  -6   15.25    1.03
   8  -4   6   15.94    1.43
  -9   4  -6    5.45    0.56
  -9   4  -6    4.93    0.40
  -9   4  -6    5.10    0.41
   9  -4   6    4.90    0.44
   9  -4   6    4.76    0.71
 -10   4  -6    2.04    0.36
 -10   4  -6    1.15    0.16
  10  -4   6    1.62    0.21
 -11   4  -6    5.99    0.44
 -11   4  -6    5.58    0.58
   8   3  -6    3.36    0.59
  -8  -3   6    2.78    0.26
  -8  -3   6    2.74    0.17
  -7  -3   6    3.91    0.25
  -7  -3   6    4.19    0.31
  -7  -3   6    4.25    0.35
  -7  -3   6    3.51    0.41
   6   3  -6    0.88    0.23
  -6  -3   6    0.57    0.20
  -6  -3   6    0.96    0.31
  -6  -3   6    0.81    0.08
  -6  -3   6    0.88    0.17
  -6  -3   6    0.86    0.10
   5   3  -6   63.83    6.16
   5   3  -6   60.95    6.09
   5   3  -6   76.88    4.90
  -5  -3   6   66.89    5.42
   4   3  -6   19.97    2.20
   4   3  -6   18.79    2.06
   4   3  -6   20.86    1.50
  -4  -3   6   20.20    1.70
   3   3  -6   29.11    2.00
   3   3  -6   27.08    2.66
   3   3  -6   24.31    2.62
  -3  -3   6   27.65    2.24
   2   3  -6   14.18    1.56
   2   3  -6   12.65    1.50
  -2  -3   6   14.12    1.16
  -2  -3   6   14.14    1.25
   1   3  -6   46.11    3.77
   1   3  -6   56.18    4.82
   1   3  -6   58.39    4.59
   1   3  -6   48.21    3.37
  -1  -3   6   51.88    4.21
  -1  -3   6   56.96    4.25
   0   3  -6   55.90    4.86
   0   3  -6   61.25    4.58
   0   3  -6   54.44    3.42
   0  -3   6   50.20    4.30
   0  -3   6   45.66    4.29
  -1   3  -6    9.79    0.65
  -1   3  -6    7.63    1.08
  -1   3  -6   10.48    1.12
  -1   3  -6    9.49    0.73
   1  -3   6   10.36    0.83
   1  -3   6   11.38    0.86
   1  -3   6    8.61    1.01
  -2   3  -6    4.85    0.76
  -2   3  -6    5.27    0.34
  -2   3  -6    4.50    0.68
  -2   3  -6    5.05    0.77
   2  -3   6    4.84    0.64
   2  -3   6    5.02    0.47
  -3   3  -6   21.62    2.15
  -3   3  -6   23.66    1.98
  -3   3  -6   21.95    2.06
   3  -3   6   19.24    1.82
   3  -3   6   25.56    1.87
  -4   3  -6   54.84    4.89
  -4   3  -6   64.05    4.75
  -4   3  -6   54.28    5.16
   4  -3   6   55.90    4.53
  -5   3  -6    2.92    0.51
  -5   3  -6    3.58    0.68
   5  -3   6    4.00    0.50
  -6   3  -6   10.24    1.00
  -6   3  -6    9.41    1.06
   6  -3   6   10.05    0.97
  -7   3  -6    3.49    0.56
  -7   3  -6    3.35    0.60
   7  -3   6    4.51    0.62
  -8   3  -6    1.09    0.16
   8  -3   6    1.13    0.53
   8  -3   6    0.95    0.22
  -9   3  -6    0.26    0.12
  -9   3  -6    0.37    0.27
  -9   3  -6    0.23    0.13
   9  -3   6    0.06    0.19
   9  -3   6    0.93    0.50
 -10   3  -6    1.00    0.31
 -10   3  -6    1.70    0.14
 -10   3  -6    1.47    0.19
 -11   3  -6    8.29    0.58
 -11   3  -6    9.29    0.63
 -11   3  -6    8.53    0.76
 -12   3  -6    0.20    0.20
 -12   3  -6    0.32    0.08
   9   2  -6   11.77    1.34
  -9  -2   6   11.72    0.65
  -9  -2   6   10.99    0.81
   8   2  -6    5.35    0.73
  -8  -2   6    3.67    0.24
  -8  -2   6    3.90    0.34
   7   2  -6    0.58    0.35
   7   2  -6    0.56    0.20
  -7  -2   6    0.56    0.15
  -7  -2   6    0.67    0.19
  -7  -2   6    0.61    0.08
  -7  -2   6    0.73    0.07
   6   2  -6   19.86    1.43
   6   2  -6   20.05    1.38
  -6  -2   6   17.12    1.35
  -6  -2   6   17.03    1.03
  -6  -2   6   17.41    1.29
  -6  -2   6   17.58    1.56
   5   2  -6   35.41    3.34
   5   2  -6   34.44    2.58
   4   2  -6    8.72    1.03
   4   2  -6    9.48    1.40
   4   2  -6   10.54    0.73
   4   2  -6    9.04    1.17
   4   2  -6    9.26    0.73
  -4  -2   6    8.97    0.87
  -4  -2   6    8.59    0.66
   3   2  -6   45.87    4.49
   3   2  -6   51.53    4.51
   3   2  -6   52.06    3.60
   3   2  -6   48.56    4.51
  -3  -2   6   50.29    3.98
   2   2  -6   34.99    3.40
   2   2  -6   39.53    3.40
  -2  -2   6   36.66    2.99
   1   2  -6    0.95    0.48
   1   2  -6    0.58    0.60
  -1  -2   6    0.56    0.39
  -1  -2   6    1.20    0.37
   0   2  -6    3.89    0.27
   0   2  -6    5.37    0.80
   0   2  -6    3.90    0.66
   0  -2   6    3.55    0.36
   0  -2   6    4.42    0.89
   0  -2   6    3.80    0.58
  -1   2  -6   19.66    1.78
  -1   2  -6   18.97    1.22
  -1   2  -6   15.11    1.73
   1  -2   6   21.25    1.55
   1  -2   6   18.02    2.36
   1  -2   6   18.07    1.64
  -2   2  -6   35.36    2.88
  -2   2  -6   34.22    3.10
  -2   2  -6   35.35    2.18
  -2   2  -6   32.60    3.01
   2  -2   6   32.25    2.73
  -3   2  -6   43.62    3.68
  -3   2  -6   44.16    3.84
  -3   2  -6   48.08    3.52
   3  -2   6   40.99    3.35
   3  -2   6   39.35    4.30
   3  -2   6   36.93    4.50
  -4   2  -6   41.19    3.88
  -4   2  -6   44.78    3.70
  -4   2  -6   46.94    3.54
   4  -2   6   37.81    4.29
   4  -2   6   40.35    4.52
   4  -2   6   43.78    3.39
  -5   2  -6   84.05    6.58
  -5   2  -6   78.58    7.23
  -5   2  -6   74.22    6.82
   5  -2   6   83.30    6.38
   5  -2   6   82.73    8.26
  -6   2  -6   28.44    2.39
  -6   2  -6   26.83    2.52
   6  -2   6   28.92    2.04
   6  -2   6   24.45    3.12
   6  -2   6   29.86    2.32
  -7   2  -6    3.29    0.51
  -7   2  -6    3.18    0.60
   7  -2   6    1.75    1.04
   7  -2   6    3.47    0.33
   7  -2   6    3.83    0.62
  -9   2  -6    1.08    0.17
  -9   2  -6    0.87    0.12
  -9   2  -6    1.12    0.29
  -9   2  -6    1.01    0.15
   9  -2   6    1.61    0.57
   9  -2   6    0.70    0.24
 -10   2  -6    1.41    0.33
 -10   2  -6    1.99    0.16
 -10   2  -6    1.81    0.21
  10  -2   6    1.26    0.25
 -11   2  -6    2.11    0.34
 -11   2  -6    1.99    0.19
 -11   2  -6    1.66    0.15
 -12   2  -6    0.02    0.04
 -12   2  -6    0.01    0.20
 -12   2  -6   -0.03    0.07
 -10  -1   6    3.44    0.20
   9   1  -6    4.89    0.71
  -9  -1   6    4.07    0.24
  -9  -1   6    3.94    0.33
  -9  -1   6    3.85    0.29
   8   1  -6    7.08    0.69
  -8  -1   6    7.10    0.56
  -8  -1   6    7.39    0.51
  -8  -1   6    7.31    0.42
   7   1  -6   13.35    0.77
   7   1  -6   12.57    1.08
   7   1  -6   15.24    1.15
  -7  -1   6   14.16    0.95
  -7  -1   6   14.51    0.81
  -7  -1   6   14.46    1.03
  -7  -1   6   13.98    1.01
  -7  -1   6   14.28    1.24
   6   1  -6    5.61    0.48
   6   1  -6    4.49    0.42
  -6  -1   6    4.28    0.42
  -6  -1   6    4.12    0.44
  -6  -1   6    4.63    0.58
  -6  -1   6    4.17    0.33
   5   1  -6    1.89    1.00
  -5  -1   6    3.12    0.24
  -5  -1   6    2.87    0.47
   4   1  -6   98.82    8.75
   4   1  -6  110.63    7.23
   4   1  -6   97.56    9.01
  -4  -1   6   98.10   10.19
  -4  -1   6   95.45    7.06
  -4  -1   6  101.88    7.95
   3   1  -6   12.81    1.60
   3   1  -6   12.86    1.25
   3   1  -6   13.49    0.95
  -3  -1   6   12.76    1.42
  -3  -1   6   12.41    1.13
  -3  -1   6   12.27    0.91
   2   1  -6   46.70    4.18
   2   1  -6   47.20    4.20
  -2  -1   6   48.59    4.81
  -2  -1   6   44.36    3.75
   1   1  -6   70.57    6.30
   1   1  -6   73.06    6.05
   1   1  -6   68.38    4.51
  -1  -1   6   74.14    7.22
  -1  -1   6   65.84    5.59
  -1  -1   6   71.82    6.99
   0   1  -6    3.64    0.59
   0  -1   6    1.92    0.48
   0  -1   6    3.09    0.86
   0  -1   6    2.32    0.99
   0  -1   6    1.57    0.20
  -1   1  -6   24.08    1.94
  -1   1  -6   21.15    1.38
   1  -1   6   19.60    2.63
   1  -1   6   20.83    1.74
   1  -1   6   20.28    1.81
   1  -1   6   23.84    3.11
  -2   1  -6   13.78    1.23
  -2   1  -6   12.41    0.88
  -2   1  -6   14.68    1.36
  -2   1  -6   11.60    1.34
   2  -1   6   12.15    1.91
   2  -1   6   15.63    2.30
   2  -1   6   15.48    1.14
   2  -1   6   13.26    1.16
  -5   1  -6   22.89    2.32
  -5   1  -6   25.04    2.18
   5  -1   6   25.62    2.74
   5  -1   6   30.60    2.95
   5  -1   6   25.75    2.13
  -7   1  -6   45.28    3.73
  -7   1  -6   40.83    3.91
   7  -1   6   48.59    3.64
   7  -1   6   41.32    4.86
   7  -1   6   46.37    3.25
  -9   1  -6   24.62    1.62
  -9   1  -6   25.65    1.69
  -9   1  -6   28.06    1.79
   9  -1   6   24.74    1.92
 -10   1  -6    4.79    0.31
 -10   1  -6    3.82    0.31
  10  -1   6    3.30    0.41
 -11   1  -6    0.19    0.11
 -11   1  -6    0.54    0.25
 -11   1  -6    0.17    0.07
  11  -1   6    0.08    0.16
 -12   1  -6    1.55    0.15
 -12   1  -6    1.12    0.11
 -10   0   6    4.62    0.34
   9   0  -6    1.07    0.41
  -9   0   6    0.52    0.12
  -9   0   6    0.63    0.09
  -9   0   6    0.64    0.06
   8   0  -6   11.32    0.90
   8   0  -6    9.77    0.58
  -8   0   6   10.51    0.77
  -8   0   6   10.58    0.72
  -8   0   6   10.40    0.60
   7   0  -6   10.01    0.76
   7   0  -6    8.05    0.71
  -7   0   6    9.14    0.51
  -7   0   6    7.88    0.79
  -7   0   6    8.66    0.85
  -7   0   6    9.43    0.62
  -7   0   6    8.75    0.64
  -7   0   6    8.44    0.68
   6   0  -6    1.61    0.26
  -6   0   6    1.25    0.12
  -6   0   6    0.89    0.21
  -6   0   6    1.19    0.18
  -6   0   6    0.99    0.31
  -5   0   6   14.57    1.61
   4   0  -6   73.23    6.26
   4   0  -6   76.79    5.00
   4   0  -6   67.28    6.20
  -4   0   6   67.64    5.52
  -4   0   6   66.42    7.08
  -4   0   6   64.42    5.93
  -4   0   6   69.78    4.88
   3   0  -6   75.84    6.42
   3   0  -6   74.82    5.15
   3   0  -6   72.35    6.32
  -3   0   6   64.84    5.69
  -3   0   6   71.70    7.31
  -3   0   6   70.96    5.04
   2   0  -6  162.84   13.36
   2   0  -6  173.89   14.04
  -2   0   6  137.20   12.45
  -2   0   6  153.61   16.01
  -2   0   6  165.23   11.12
   1   0  -6  186.77   11.74
  -1   0   6  184.68   18.61
  -1   0   6  175.16   14.45
  -1   0   6  190.34   18.06
   0   0   6   14.76    1.36
   0   0   6   16.06    1.98
   0   0   6   14.67    2.45
  -1   0  -6   26.69    1.60
   1   0   6   29.83    3.39
   1   0   6   22.19    2.06
   1   0   6   22.65    2.01
   1   0   6   26.71    2.96
  -2   0  -6    5.14    0.65
  -2   0  -6    4.83    0.72
  -2   0  -6    4.66    0.57
   2   0   6    6.23    1.19
   2   0   6    5.22    0.55
  -3   0  -6  102.94    8.38
  -3   0  -6  108.04    9.17
   3   0   6  100.69   10.59
  -4   0  -6  202.83   18.61
  -4   0  -6  196.88   17.03
  -4   0  -6  207.74   17.64
   4   0   6  204.95   21.42
   4   0   6  231.14   20.79
   4   0   6  229.89   16.62
  -5   0  -6   53.53    4.84
  -5   0  -6   54.37    5.08
   5   0   6   69.25    5.98
   5   0   6   61.15    6.19
  -7   0  -6    3.26    0.60
   7   0   6    3.23    0.33
  -8   0  -6    2.72    0.62
   8   0   6    3.29    0.37
   8   0   6    5.11    1.20
  -9   0  -6   13.57    0.91
  -9   0  -6   12.83    0.85
  -9   0  -6   11.68    0.81
   9   0   6   12.07    1.00
 -10   0  -6   10.24    0.72
 -10   0  -6   10.47    0.69
 -10   0  -6   12.07    0.78
  10   0   6    9.70    0.85
 -11   0  -6    5.76    0.44
 -11   0  -6    6.04    0.40
  11   0   6    5.12    0.49
 -12   0  -6    0.84    0.12
 -12   0  -6    0.91    0.10
 -10   1   6    0.03    0.02
 -10   1   6    0.00    0.04
 -10   1   6    0.04    0.06
   9  -1  -6    4.15    0.72
  -9   1   6    4.95    0.35
  -9   1   6    4.96    0.39
  -9   1   6    5.11    0.29
   8  -1  -6    1.06    0.28
  -8   1   6    0.96    0.08
  -8   1   6    0.91    0.12
  -8   1   6    1.09    0.18
   7  -1  -6   44.13    2.99
  -7   1   6   37.27    3.29
  -7   1   6   42.36    2.30
  -7   1   6   40.39    2.88
  -7   1   6   40.53    3.50
  -7   1   6   40.00    2.82
  -7   1   6   40.55    2.68
   6  -1  -6   21.95    1.48
  -6   1   6   18.97    1.41
  -6   1   6   18.81    1.69
  -6   1   6   19.44    1.72
   5  -1  -6   31.03    1.96
   5  -1  -6   23.51    2.85
   5  -1  -6   31.45    2.56
  -5   1   6   25.20    2.32
  -5   1   6   23.70    1.90
  -5   1   6   25.30    2.23
  -5   1   6   26.95    2.85
   4  -1  -6   21.69    1.49
   4  -1  -6   17.24    2.22
   4  -1  -6   21.08    1.94
  -4   1   6   19.91    1.73
  -4   1   6   20.06    1.46
  -4   1   6   22.10    2.23
  -4   1   6   20.22    1.78
   3  -1  -6    0.94    0.10
   3  -1  -6    0.86    0.21
   3  -1  -6    1.01    0.68
  -3   1   6    1.18    0.10
  -3   1   6    0.42    0.28
  -3   1   6    0.38    0.35
   2  -1  -6    2.15    0.68
   2  -1  -6    2.57    0.19
  -2   1   6    2.73    0.43
  -2   1   6    3.02    0.54
  -2   1   6    2.72    0.55
   1  -1  -6    3.35    0.25
   1  -1  -6    2.90    0.63
  -1   1   6    5.16    0.86
  -1   1   6    4.74    0.90
  -1   1   6    3.68    0.49
   0  -1  -6    2.60    0.47
   0  -1  -6    2.92    0.20
   0   1   6    3.47    1.11
   0   1   6    2.16    0.47
   0   1   6    2.59    1.23
   1   1   6   21.89    2.69
   1   1   6   19.79    3.04
  -2  -1  -6    4.25    0.64
  -3  -1  -6   44.00    3.94
  -3  -1  -6   40.64    2.79
  -3  -1  -6   46.64    3.56
  -3  -1  -6   39.25    3.75
   3   1   6   48.86    4.69
   3   1   6   43.12    3.45
  -4  -1  -6   37.99    2.60
  -4  -1  -6   44.57    3.33
  -4  -1  -6   36.00    3.49
   4   1   6   41.24    3.23
   4   1   6   42.98    4.15
  -5  -1  -6   19.12    1.81
   5   1   6   19.28    1.62
  -6  -1  -6   15.37    1.33
  -6  -1  -6   13.91    1.47
   6   1   6   12.84    1.78
   6   1   6   15.73    1.14
   6   1   6   17.96    2.01
  -8  -1  -6   92.60    6.84
  -8  -1  -6   73.68    7.12
   8   1   6   83.64    8.69
  -9  -1  -6   70.66    4.43
  -9  -1  -6   65.48    4.94
  -9  -1  -6   68.44    4.63
  -9  -1  -6   65.82    4.19
   9   1   6   66.12    4.94
   9   1   6   71.88    5.46
 -10  -1  -6   42.59    2.68
 -10  -1  -6   40.57    2.81
 -10  -1  -6   41.46    2.54
 -10  -1  -6   39.55    3.02
  10   1   6   40.46    3.00
 -11  -1  -6    1.23    0.26
 -11  -1  -6    1.03    0.12
 -11  -1  -6    1.20    0.16
  11   1   6    0.65    0.19
 -12  -1  -6   15.02    1.08
 -12  -1  -6   15.56    1.03
 -12  -1  -6   16.35    1.19
 -10   2   6    3.82    0.28
 -10   2   6    3.56    0.25
  -9   2   6    0.42    0.05
  -9   2   6    0.31    0.10
  -9   2   6    0.42    0.08
   8  -2  -6    2.95    0.36
  -8   2   6    3.31    0.20
  -8   2   6    2.94    0.32
  -8   2   6    3.18    0.26
  -8   2   6    3.71    0.31
   7  -2  -6   41.65    2.94
  -7   2   6   41.41    2.28
  -7   2   6   39.64    2.79
  -7   2   6   37.97    3.26
  -7   2   6   40.77    3.47
  -7   2   6   40.00    2.65
  -7   2   6   40.69    2.86
   6  -2  -6    0.81    0.15
  -6   2   6    0.91    0.16
  -6   2   6    0.64    0.30
   5  -2  -6   12.30    1.22
   5  -2  -6   11.36    1.71
   5  -2  -6   12.22    0.87
  -5   2   6   11.64    1.38
  -5   2   6   11.89    1.08
  -5   2   6   11.54    0.85
  -5   2   6   11.26    1.04
   4  -2  -6    3.23    0.99
   4  -2  -6    4.59    0.48
   4  -2  -6    3.73    0.28
  -4   2   6    3.30    0.28
  -4   2   6    3.47    0.35
  -4   2   6    4.24    0.64
  -4   2   6    3.36    0.47
   3  -2  -6    0.53    0.59
  -3   2   6    0.01    0.24
  -3   2   6    0.10    0.04
  -3   2   6   -0.03    0.29
   2  -2  -6    0.06    0.04
   2  -2  -6    0.17    0.49
  -2   2   6    0.05    0.27
  -2   2   6   -0.15    0.40
  -2   2   6    0.14    0.39
  -2   2   6    0.17    0.04
   1  -2  -6   10.63    0.69
   1  -2  -6   10.38    1.14
  -1   2   6   10.45    1.42
  -1   2   6    8.48    1.80
  -1   2   6   11.20    0.97
   0  -2  -6   32.06    1.91
   0  -2  -6   27.60    2.58
   0   2   6   30.72    2.45
   0   2   6   30.09    3.34
   0   2   6   25.99    3.70
  -1  -2  -6    9.50    1.01
   1   2   6   10.18    1.94
   1   2   6   10.59    0.95
  -2  -2  -6    3.16    0.21
  -2  -2  -6    2.04    0.45
   2   2   6    2.61    1.14
   2   2   6    2.79    0.41
  -3  -2  -6    4.84    0.74
  -3  -2  -6    6.55    0.44
  -3  -2  -6    7.21    0.62
   3   2   6    7.22    0.63
  -5  -2  -6   99.46    8.66
  -5  -2  -6   94.67    9.00
   5   2   6  123.23   10.65
   5   2   6  112.46    8.46
  -6  -2  -6   10.21    0.87
  -6  -2  -6    7.96    0.99
   6   2   6    9.08    0.87
   6   2   6    6.67    1.30
   6   2   6   10.40    0.73
  -7  -2  -6    0.08    0.20
  -7  -2  -6    0.11    0.30
   7   2   6    1.19    0.94
   7   2   6    0.05    0.18
  -8  -2  -6   33.48    3.54
   8   2   6   46.06    2.95
   8   2   6   39.16    4.50
  -9  -2  -6    1.58    0.15
  -9  -2  -6    1.47    0.21
  -9  -2  -6    1.40    0.27
  -9  -2  -6    1.62    0.17
   9   2   6    2.28    0.57
   9   2   6    2.08    0.33
 -10  -2  -6   22.89    1.48
 -10  -2  -6   21.70    1.69
 -10  -2  -6   20.71    1.56
 -10  -2  -6   22.34    1.40
  10   2   6   24.28    1.69
 -11  -2  -6    0.13    0.20
 -11  -2  -6    0.41    0.12
 -11  -2  -6    0.28    0.08
 -12  -2  -6    3.09    0.22
 -12  -2  -6    2.77    0.24
 -12  -2  -6    3.58    0.33
  -9   3   6   10.82    0.72
  -9   3   6   11.00    0.77
  -9   3   6   10.60    0.62
   8  -3  -6    1.86    0.25
  -8   3   6    1.78    0.12
  -8   3   6    1.89    0.17
  -8   3   6    1.53    0.20
  -8   3   6    1.79    0.21
   7  -3  -6   10.10    0.75
  -7   3   6    9.87    0.67
  -7   3   6    9.94    0.56
  -7   3   6    9.14    0.71
  -7   3   6    8.96    0.73
  -7   3   6    9.83    0.86
   6  -3  -6   29.75    2.06
  -6   3   6   30.30    2.46
  -6   3   6   28.49    2.02
  -6   3   6   26.90    2.35
  -6   3   6   25.29    2.99
  -6   3   6   29.13    1.61
   5  -3  -6    4.04    0.32
   4  -3  -6   13.87    1.31
   4  -3  -6   13.30    1.00
  -4   3   6   13.71    0.99
  -4   3   6   13.80    1.55
  -4   3   6   13.61    1.21
  -4   3   6   14.13    1.20
   3  -3  -6   56.39    4.41
   3  -3  -6   62.44    5.44
  -3   3   6   65.66    5.26
  -3   3   6   62.70    4.33
  -3   3   6   60.52    4.89
  -3   3   6   61.58    6.30
   2  -3  -6  210.09   16.53
   2  -3  -6  190.13   12.59
  -2   3   6  196.17   19.93
  -2   3   6  183.15   19.34
  -2   3   6  196.40   15.49
  -2   3   6  209.65   13.86
   1  -3  -6   37.74    3.42
   1  -3  -6   39.24    2.51
  -1   3   6   38.19    3.15
  -1   3   6   43.53    2.77
  -1   3   6   38.10    4.04
  -1   3   6   37.39    4.30
   0  -3  -6   41.45    2.48
   0  -3  -6   35.32    3.29
   0   3   6   39.04    4.16
   0   3   6   39.53    3.12
   0   3   6   37.30    4.51
  -1  -3  -6   10.09    0.61
  -1  -3  -6    7.32    0.95
   1   3   6    9.18    1.91
   1   3   6   11.35    1.90
  -2  -3  -6    5.44    0.34
  -2  -3  -6    4.46    0.62
   2   3   6    4.87    1.42
   2   3   6    6.87    1.36
   2   3   6    3.87    0.54
  -3  -3  -6    2.15    0.40
  -3  -3  -6    2.29    0.17
   3   3   6    3.68    1.11
   3   3   6    2.05    0.32
   3   3   6    2.31    0.44
   3   3   6    2.47    0.94
  -4  -3  -6   48.79    3.24
  -4  -3  -6   41.91    3.88
  -4  -3  -6   42.82    2.91
   4   3   6   46.76    4.66
   4   3   6   46.62    3.60
  -5  -3  -6   10.87    1.23
  -5  -3  -6   13.91    1.12
   5   3   6   12.76    1.12
   5   3   6   16.49    2.06
   5   3   6   10.95    1.66
   8   3   6    0.25    1.24
   8   3   6    1.19    0.61
   8   3   6    0.38    0.23
   8   3   6    0.45    0.42
  -9  -3  -6   19.51    1.31
  -9  -3  -6   18.37    1.38
  -9  -3  -6   20.14    1.24
  -9  -3  -6   18.21    1.49
   9   3   6   20.77    1.75
   9   3   6   21.74    1.51
 -11  -3  -6    7.10    0.59
 -11  -3  -6    8.64    0.69
 -11  -3  -6    8.15    0.56
  11   3   6   10.18    1.48
 -12  -3  -6    1.82    0.24
 -12  -3  -6    1.53    0.15
  -9   4   6   14.09    0.82
  -9   4   6   14.03    0.95
  -9   4   6   15.10    1.01
   8  -4  -6    7.90    0.70
  -8   4   6    9.74    0.67
  -8   4   6    8.92    0.61
  -8   4   6    9.51    0.51
  -8   4   6    8.34    0.79
   7  -4  -6    9.99    0.73
  -7   4   6    9.23    0.70
  -7   4   6    9.09    0.85
  -7   4   6    9.14    0.72
  -7   4   6    9.56    0.66
  -7   4   6    9.99    0.55
   6  -4  -6   22.95    1.65
  -6   4   6   22.81    1.63
  -6   4   6   22.99    1.29
  -6   4   6   21.89    1.61
  -6   4   6   23.59    1.98
  -6   4   6   22.30    1.52
   5  -4  -6    9.19    0.66
  -5   4   6    9.07    0.66
  -5   4   6    8.62    1.11
  -5   4   6    8.80    0.81
   4  -4  -6    3.59    0.29
  -4   4   6    3.78    0.67
  -4   4   6    4.26    0.39
  -4   4   6    4.06    0.31
   3  -4  -6   21.55    1.77
  -3   4   6   25.60    2.63
  -3   4   6   26.89    2.13
  -3   4   6   24.99    1.75
   2  -4  -6    9.28    0.62
  -2   4   6    9.40    1.28
  -2   4   6   10.26    0.69
  -2   4   6    8.49    1.13
   1  -4  -6    1.22    0.11
  -1   4   6    2.25    0.74
  -1   4   6    1.37    0.82
  -1   4   6    1.49    0.13
   0  -4  -6   82.17    5.28
   0   4   6   89.11    5.82
   0   4   6   76.92    8.69
   0   4   6   81.23    8.32
  -1  -4  -6    0.29    0.04
   1   4   6    1.14    1.48
   1   4   6   -0.12    1.25
  -2  -4  -6   18.47    1.17
   2   4   6   16.55    3.04
  -3  -4  -6  203.28   12.24
  -3  -4  -6  185.05   13.53
   3   4   6  199.40   18.91
   3   4   6  189.73   17.04
   3   4   6  181.96   19.48
  -4  -4  -6  115.70    8.37
   4   4   6  110.27   10.59
   4   4   6  128.58   12.14
   4   4   6  119.84   11.75
  -5  -4  -6   90.65    7.70
  -5  -4  -6  100.15    6.74
  -7  -4  -6   21.72    1.85
  -7  -4  -6   21.65    1.56
   7   4   6   18.39    2.16
   7   4   6   23.25    1.61
  -8  -4  -6   62.12    3.80
  -8  -4  -6   56.95    4.47
   8   4   6   64.23    4.49
   8   4   6   64.19    6.76
   8   4   6   62.29    5.48
  -9  -4  -6   26.84    1.89
  -9  -4  -6   28.94    1.69
  -9  -4  -6   26.81    1.80
  -9  -4  -6   24.62    2.02
   9   4   6   32.01    2.69
   9   4   6   25.99    2.02
 -10  -4  -6    3.31    0.31
 -10  -4  -6    3.39    0.25
 -10  -4  -6    4.33    0.28
 -10  -4  -6    3.40    0.39
  10   4   6    5.38    1.27
  10   4   6    3.30    0.37
 -11  -4  -6    0.58    0.20
 -11  -4  -6    0.73    0.10
  11   4   6    1.11    0.96
 -12  -4  -6   11.30    0.87
  -9   5   6    4.10    0.31
  -9   5   6    3.95    0.28
  -9   5   6    3.86    0.23
   8  -5  -6    3.94    0.38
  -8   5   6    4.77    0.34
  -8   5   6    4.90    0.27
  -8   5   6    4.73    0.38
   7  -5  -6    1.98    0.19
  -7   5   6    2.04    0.13
  -7   5   6    1.82    0.18
  -7   5   6    1.88    0.22
  -7   5   6    1.88    0.17
  -7   5   6    1.88    0.23
   6  -5  -6   35.75    2.48
  -6   5   6   32.43    2.38
  -6   5   6   34.24    2.44
  -6   5   6   35.80    1.94
  -6   5   6   33.77    2.26
  -6   5   6   33.77    2.95
   5  -5  -6   32.89    2.38
  -5   5   6   30.24    3.46
  -5   5   6   34.25    2.35
  -5   5   6   34.68    2.85
   4  -5  -6    8.74    0.68
  -4   5   6    8.67    1.14
  -4   5   6    9.73    0.69
  -4   5   6   10.17    0.84
   3  -5  -6   27.27    2.11
  -3   5   6   31.16    2.53
  -3   5   6   28.60    3.10
  -3   5   6   30.39    2.09
   2  -5  -6    4.67    0.31
   2  -5  -6    4.19    0.33
  -2   5   6    4.60    0.70
  -2   5   6    4.89    0.88
  -2   5   6    4.36    0.46
  -2   5   6    4.58    0.34
   1  -5  -6   25.87    1.66
  -1   5   6   23.62    2.74
  -1   5   6   27.24    1.83
  -1   5   6   25.42    3.07
   0  -5  -6   56.48    3.59
   0   5   6   56.49    4.01
   0   5   6   53.81    6.18
   0   5   6   52.11    5.73
   0   5   6   59.69    3.95
  -1  -5  -6   10.01    0.67
   1   5   6   11.96    1.91
   2   5   6   82.85    9.00
   2   5   6   85.93    8.60
  -3  -5  -6   15.17    0.97
  -3  -5  -6   14.35    1.15
   3   5   6   15.06    1.55
  -4  -5  -6   84.75    6.30
   4   5   6   88.37    8.94
   4   5   6   81.84    8.01
   4   5   6  101.41    9.24
  -5  -5  -6   32.52    2.60
   5   5   6   42.35    3.48
   5   5   6   35.05    3.90
   5   5   6   34.71    3.26
   5   5   6   38.55    4.14
   6   5   6    7.47    1.16
  -8  -5  -6    6.47    0.59
  -8  -5  -6    7.55    0.47
  -8  -5  -6    7.08    0.55
   8   5   6   12.38    2.43
   9   5   6    2.09    0.75
 -10  -5  -6    2.01    0.29
 -11  -5  -6    9.13    0.57
 -11  -5  -6    8.75    0.72
  -9   6   6    4.67    0.31
  -9   6   6    4.24    0.26
  -8   6   6   15.43    1.02
  -8   6   6   15.22    0.87
   7  -6  -6   25.29    1.94
  -7   6   6   27.46    1.77
  -7   6   6   25.23    2.31
  -7   6   6   29.32    1.52
   6  -6  -6   46.89    3.47
  -6   6   6   52.22    2.72
  -6   6   6   46.88    3.41
  -6   6   6   46.80    3.16
  -6   6   6   48.46    4.14
   5  -6  -6    6.65    0.51
  -5   6   6    7.06    0.64
  -5   6   6    6.56    0.90
  -5   6   6    7.20    0.52
   4  -6  -6    7.75    0.59
  -4   6   6    8.45    0.60
  -4   6   6    7.59    1.03
  -4   6   6    8.25    0.74
   3  -6  -6    6.52    0.51
   3  -6  -6    6.81    0.47
  -3   6   6    6.83    0.97
  -3   6   6    7.16    0.65
  -3   6   6    7.42    0.52
   2  -6  -6    5.48    0.39
   2  -6  -6    5.50    0.42
  -2   6   6    6.04    0.44
  -2   6   6    6.23    0.96
  -2   6   6    5.89    0.56
   1  -6  -6   35.22    2.68
   1  -6  -6   37.95    2.40
  -1   6   6   37.59    4.03
  -1   6   6   38.36    2.69
  -1   6   6   39.41    2.65
  -1   6   6   35.28    3.82
   0  -6  -6    5.68    0.40
   0   6   6    7.00    1.20
   0   6   6    6.15    0.45
   0   6   6    5.74    0.46
  -1  -6  -6   71.62    4.20
   1   6   6   61.06    6.76
   1   6   6   61.78    7.23
  -2  -6  -6    0.33    0.25
  -2  -6  -6    0.60    0.07
   2   6   6    0.94    1.34
   2   6   6    1.58    1.63
  -3  -6  -6    7.25    0.47
  -3  -6  -6    6.61    0.63
   3   6   6    6.78    0.92
  -4  -6  -6   67.01    4.38
   4   6   6   58.79    6.34
   4   6   6   61.30    5.60
   4   6   6   55.83    6.54
   5   6   6   94.65    8.57
   5   6   6  104.23    9.01
   6   6   6   24.49    2.41
  -8  -6  -6   32.28    1.89
  -8  -6  -6   30.24    2.19
  -8  -6  -6   30.10    2.01
   8   6   6   28.96    3.01
  -9  -6  -6    1.65    0.17
  -9  -6  -6    1.60    0.17
  -9  -6  -6    1.41    0.23
  -9  -6  -6    2.05    0.15
   9   6   6    2.97    0.78
  -9   7   6    2.17    0.14
  -9   7   6    2.48    0.17
  -8   7   6    8.01    0.47
  -8   7   6    8.62    0.57
   7  -7  -6    0.17    0.07
  -7   7   6    0.07    0.04
  -7   7   6    0.17    0.06
  -7   7   6    0.15    0.07
   6  -7  -6    2.01    0.16
  -6   7   6    2.06    0.22
  -6   7   6    1.58    0.13
   5  -7  -6    1.80    0.15
  -5   7   6    2.01    0.19
  -5   7   6    1.84    0.18
  -5   7   6    1.80    0.23
  -5   7   6    1.61    0.13
   4  -7  -6   34.04    2.52
  -4   7   6   35.12    2.49
  -4   7   6   37.70    3.02
  -4   7   6   33.08    3.66
   3  -7  -6   39.27    2.92
   3  -7  -6   36.71    2.62
  -3   7   6   42.35    3.50
  -3   7   6   40.72    4.24
  -3   7   6   44.59    2.89
   2  -7  -6  123.55    9.09
   2  -7  -6  122.68    8.11
  -2   7   6  127.72   12.89
  -2   7   6  124.08   10.83
  -2   7   6  137.12    8.94
   1  -7  -6   45.68    3.38
   1  -7  -6   48.18    3.02
  -1   7   6   42.46    4.04
  -1   7   6   47.29    3.38
  -1   7   6   48.48    4.94
  -1   7   6   51.65    3.33
  -1   7   6   46.02    4.75
   0  -7  -6   23.39    1.81
   0  -7  -6   24.64    1.62
   0   7   6   25.60    3.17
   0   7   6   23.81    2.73
   0   7   6   25.87    1.82
   0   7   6   27.46    1.80
  -1  -7  -6   24.91    1.86
  -1  -7  -6   25.71    1.67
   1   7   6   27.21    1.87
   1   7   6   26.66    2.99
   1   7   6   24.67    3.56
  -2  -7  -6    3.02    0.20
  -2  -7  -6    2.59    0.21
  -2  -7  -6    2.71    0.42
   2   7   6    4.42    1.68
  -3  -7  -6   15.24    0.97
  -3  -7  -6   15.00    1.19
   3   7   6   13.11    2.36
   5   7   6   31.70    3.40
   5   7   6   38.86    3.29
  -7  -7  -6   32.70    1.95
  -7  -7  -6   31.83    2.27
   7   7   6   29.08    3.10
  -8  -7  -6   13.51    1.04
  -8  -7  -6   14.99    0.90
   8   7   6   14.56    1.83
   8   7   6   13.66    2.39
  -9  -7  -6   12.48    0.78
   9   7   6   12.01    1.64
  -8   8   6    4.10    0.24
   7  -8  -6    0.00    0.05
  -7   8   6    0.02    0.03
  -7   8   6   -0.01    0.06
   6  -8  -6    1.73    0.15
  -6   8   6    1.70    0.20
  -6   8   6    1.57    0.16
  -6   8   6    1.85    0.12
   5  -8  -6   15.42    1.15
  -5   8   6   16.77    0.91
  -5   8   6   15.65    1.15
  -5   8   6   15.69    1.39
   4  -8  -6    7.37    0.57
  -4   8   6    7.40    0.71
  -4   8   6    8.47    0.58
   3  -8  -6    2.38    0.21
   3  -8  -6    3.01    0.21
  -3   8   6    2.78    0.32
   2  -8  -6   19.50    1.33
   2  -8  -6   19.35    1.48
  -2   8   6   20.65    1.79
  -2   8   6   22.67    1.48
   1  -8  -6   42.07    2.69
   1  -8  -6   39.98    3.00
  -1   8   6   41.96    3.01
  -1   8   6   44.58    2.97
  -1   8   6   40.69    3.60
   0  -8  -6    4.86    0.42
   0  -8  -6    6.37    0.40
   0   8   6    7.20    0.69
   0   8   6    5.54    0.45
   0   8   6    5.95    0.44
  -2  -8  -6   18.63    1.23
  -2  -8  -6   20.03    1.52
  -2  -8  -6   18.51    1.36
  -3  -8  -6   10.16    0.72
  -3  -8  -6   12.65    0.96
  -4  -8  -6    8.59    0.72
   4   8   6    7.55    1.09
   5   8   6   91.68    8.04
   5   8   6   93.54    8.47
  -7  -8  -6   19.50    1.17
  -7  -8  -6   18.61    1.38
   7   8   6   17.14    2.18
   8   8   6    8.06    2.03
   9   8   6   47.46    3.98
   9   8   6   39.76    5.65
 -10  -8  -6   14.26    0.83
  10   8   6   10.51    2.18
  11   8   6    6.04    1.36
  -8   9   6    4.63    0.27
  -7   9   6   17.03    0.96
   6  -9  -6    0.59    0.07
  -6   9   6    0.72    0.06
  -6   9   6    0.58    0.11
   5  -9  -6   13.42    1.00
  -5   9   6   14.19    1.00
  -5   9   6   13.42    0.82
  -5   9   6   13.02    1.20
  -5   9   6   14.76    0.79
   4  -9  -6    0.47    0.07
  -4   9   6    0.51    0.13
  -4   9   6    0.62    0.07
  -4   9   6    0.55    0.08
  -4   9   6    0.52    0.10
   3  -9  -6   21.42    1.65
  -3   9   6   22.80    1.98
  -3   9   6   24.43    1.64
   2  -9  -6   17.71    1.25
   2  -9  -6   18.52    1.38
  -2   9   6   19.46    1.68
  -2   9   6   21.18    1.39
   1  -9  -6    5.79    0.43
   1  -9  -6    5.44    0.40
  -1   9   6    5.68    0.46
  -1   9   6    6.63    0.46
  -1   9   6    5.56    0.61
   0  -9  -6    6.45    0.47
   0  -9  -6    6.16    0.44
   0   9   6    6.00    0.50
   0   9   6    7.23    0.50
  -1  -9  -6   33.42    1.99
  -1  -9  -6   26.20    2.34
  -1  -9  -6   32.25    2.21
   1   9   6   31.19    2.22
   1   9   6   29.02    2.76
  -3  -9  -6   26.87    2.02
   3   9   6   25.95    2.53
   4   9   6    7.79    1.17
  -5  -9  -6   53.76    3.61
  -5  -9  -6   42.83    3.07
   5   9   6   54.68    4.52
  -7  -9  -6   18.85    1.10
  -7  -9  -6   17.13    1.30
   7   9   6   14.01    2.98
   7   9   6   18.64    1.98
   8   9   6   20.71    2.10
   8   9   6   19.21    3.13
  10   9   6    2.50    0.91
  -7  10   6   15.98    0.90
   6 -10  -6    8.11    0.61
  -6  10   6    8.57    0.48
   5 -10  -6    1.31    0.12
  -5  10   6    1.50    0.17
   4 -10  -6   32.95    2.46
  -4  10   6   35.02    1.94
  -4  10   6   33.83    2.01
  -4  10   6   35.91    2.44
  -4  10   6   33.52    2.95
   3 -10  -6   75.86    5.51
  -3  10   6   74.56    4.33
  -3  10   6   75.12    4.49
  -3  10   6   84.03    5.43
  -3  10   6   75.12    6.57
   2 -10  -6   44.17    3.21
  -2  10   6   41.74    3.84
  -2  10   6   48.51    3.18
   1 -10  -6   12.44    0.89
   1 -10  -6   11.83    0.82
  -1  10   6   11.97    1.12
  -1  10   6   12.12    0.92
  -1  10   6   13.09    0.91
   0 -10  -6   12.26    0.85
   0 -10  -6   12.53    0.78
   0  10   6   11.06    1.10
   0  10   6   10.54    0.87
  -1 -10  -6    4.86    0.63
  -1 -10  -6    4.63    0.35
  -1 -10  -6    5.04    0.34
   1  10   6    4.34    0.38
   1  10   6    5.69    0.79
  -2 -10  -6   47.15    2.93
  -2 -10  -6   45.98    3.39
   2  10   6   43.06    4.04
  -4 -10  -6   52.69    3.18
  -4 -10  -6   48.52    3.14
  -4 -10  -6   50.50    3.71
   4  10   6   52.66    4.58
  -5 -10  -6   31.63    2.20
  -5 -10  -6   30.01    1.87
  -5 -10  -6   28.89    1.85
   5  10   6   28.83    2.89
  -8 -10  -6    7.51    0.48
   8  10   6    6.74    1.20
  10  10   6   58.89    7.38
  -7  11   6    0.27    0.03
  -6  11   6   14.71    0.83
   5 -11  -6    8.16    0.58
  -5  11   6    7.28    0.70
  -5  11   6    8.13    0.46
  -5  11   6    7.94    0.47
   4 -11  -6    7.52    0.56
  -4  11   6    7.58    0.57
  -4  11   6    7.87    0.44
  -4  11   6    7.18    0.68
  -4  11   6    7.73    0.47
   3 -11  -6   10.85    0.77
  -3  11   6   10.65    0.94
  -3  11   6    9.85    0.64
  -3  11   6   10.15    0.61
  -3  11   6   11.07    0.78
   2 -11  -6    7.95    0.57
  -2  11   6    8.82    0.59
  -2  11   6    7.16    0.46
  -2  11   6    7.53    0.71
  -2  11   6    7.01    0.49
   1 -11  -6   14.58    0.96
  -1  11   6   13.19    0.75
  -1  11   6   12.50    0.81
  -1  11   6   12.52    0.99
  -1  11   6   13.88    1.19
  -1  11   6   13.32    0.78
  -1  11   6   12.50    0.89
   0 -11  -6    1.41    0.12
   0  11   6    1.13    0.16
   0  11   6    1.69    0.29
  -1 -11  -6   10.26    0.72
  -1 -11  -6    9.18    0.95
   1  11   6   10.24    1.03
   1  11   6    9.20    1.12
  -2 -11  -6   67.97    4.98
  -2 -11  -6   71.11    4.25
   2  11   6   65.66    5.93
   2  11   6   67.85    6.88
  -3 -11  -6   12.21    0.73
  -3 -11  -6   11.22    0.99
   3  11   6   10.92    1.31
   3  11   6   10.14    1.46
   4  11   6   14.05    1.71
  -5 -11  -6    0.71    0.19
   5  11   6    2.05    0.82
   5  11   6    2.05    1.61
   6  11   6   15.41    1.75
   7  11   6    7.50    1.21
   9  11   6    2.48    1.09
  -6  12   6    3.98    0.23
  -5  12   6   12.51    0.69
  -5  12   6   11.79    0.72
   4 -12  -6    2.20    0.17
  -4  12   6    2.03    0.14
  -4  12   6    2.23    0.15
  -4  12   6    2.12    0.23
   3 -12  -6   11.00    0.77
  -3  12   6   10.61    0.61
  -3  12   6   10.17    0.94
  -3  12   6   10.70    0.65
   2 -12  -6   10.83    0.74
  -2  12   6    9.64    0.63
  -2  12   6    9.95    0.90
  -2  12   6   10.13    0.59
   1 -12  -6    0.91    0.09
   1 -12  -6    0.73    0.41
  -1  12   6    0.68    0.13
  -1  12   6    0.94    0.18
  -1  12   6    1.95    0.80
  -1  12   6    0.73    0.09
  -1  12   6    0.76    0.11
  -1  12   6    0.82    0.11
   0 -12  -6    6.28    0.43
   0  12   6    5.80    0.35
   0  12   6    5.41    0.46
   0  12   6    5.47    0.38
   0  12   6    5.41    0.38
   0  12   6    6.07    0.63
  -1 -12  -6    6.95    0.84
  -1 -12  -6    9.06    0.63
  -1 -12  -6    8.16    0.55
   1  12   6    8.75    0.89
   1  12   6    8.58    1.01
   1  12   6    8.30    0.50
   1  12   6   11.64    2.01
  -2 -12  -6    2.47    0.19
  -2 -12  -6    1.91    0.42
   2  12   6    4.48    1.57
   2  12   6    2.81    0.43
   2  12   6    3.64    0.53
  -3 -12  -6    0.40    0.25
  -3 -12  -6    0.22    0.05
   3  12   6    0.68    0.58
   3  12   6    0.31    0.32
   3  12   6   -0.17    1.61
  -4 -12  -6   26.83    1.64
  -4 -12  -6   24.82    1.97
  -4 -12  -6   29.03    1.66
   4  12   6   29.50    3.95
   4  12   6   26.92    2.75
   4  12   6   21.52    2.49
  -5 -12  -6   36.55    2.22
  -5 -12  -6   36.79    2.24
  -5 -12  -6   34.21    2.60
  -6 -12  -6    0.01    0.04
   6  12   6    1.77    1.44
   6  12   6    0.18    0.67
  -7 -12  -6    7.78    0.50
  -5  13   6    0.14    0.03
  -5  13   6    0.11    0.03
  -4  13   6    8.20    0.48
  -4  13   6    7.92    0.46
   3 -13  -6    7.60    0.55
  -3  13   6    7.03    0.43
  -3  13   6    7.81    0.46
   2 -13  -6   33.74    2.25
  -2  13   6   31.23    1.77
  -2  13   6   31.02    1.84
  -2  13   6   29.09    2.69
   1 -13  -6    1.37    0.42
   1 -13  -6    1.95    0.15
   1 -13  -6    2.09    0.16
  -1  13   6    1.86    0.17
  -1  13   6    2.08    0.13
  -1  13   6    2.05    0.24
  -1  13   6    1.91    0.16
   0 -13  -6    4.43    0.32
   0 -13  -6    4.17    0.28
   0  13   6    4.04    0.26
   0  13   6    4.08    0.43
   0  13   6    4.28    0.29
   0  13   6    3.66    0.28
  -1 -13  -6    7.08    0.80
  -1 -13  -6    9.31    0.56
   1  13   6    8.69    0.51
   1  13   6    8.53    0.81
  -2 -13  -6    1.56    0.36
  -2 -13  -6    2.39    0.17
   2  13   6    2.12    1.26
   2  13   6    2.15    0.17
   2  13   6    2.64    0.41
   2  13   6    2.93    0.39
  -3 -13  -6    8.63    0.82
  -3 -13  -6   10.95    0.63
   3  13   6    8.94    1.02
   3  13   6    9.94    1.12
  -4 -13  -6    9.84    0.62
  -4 -13  -6   10.59    0.63
   4  13   6    9.62    1.11
   4  13   6    7.99    1.15
  -5 -13  -6    3.97    0.29
  -5 -13  -6    4.56    0.29
   5  13   6    2.35    1.49
   5  13   6    6.37    0.78
   6  13   6    1.44    1.30
  -7 -13  -6    0.26    0.05
   7  13   6    0.48    1.13
  -8 -13  -6    1.75    0.12
  -5  14   6    1.41    0.09
  -4  14   6    0.35    0.04
  -4  14   6    0.34    0.04
  -3  14   6    0.02    0.04
  -3  14   6    0.23    0.04
  -2  14   6    7.45    0.46
  -2  14   6    7.39    0.43
   1 -14  -6   23.20    1.60
   1 -14  -6   21.30    1.39
  -1  14   6   22.09    1.26
  -1  14   6   21.93    1.31
   0 -14  -6    0.08    0.04
   0 -14  -6    0.06    0.04
   0  14   6    0.23    0.07
   0  14   6    0.01    0.07
   0  14   6    0.08    0.05
  -1 -14  -6    1.96    0.14
   1  14   6    1.76    0.14
   1  14   6    1.81    0.18
  -2 -14  -6    0.10    0.04
   2  14   6    0.27    0.18
   2  14   6    0.00    0.06
   3  14   6    0.77    0.24
  -4 -14  -6    9.55    0.62
  -4 -14  -6    9.97    0.63
   4  14   6   10.20    1.09
  -5 -14  -6    3.13    0.21
  -5 -14  -6    2.96    0.21
   5  14   6    3.80    0.49
   5  14   6    1.48    1.15
  -6 -14  -6   17.90    1.05
   6  14   6   14.84    2.52
  -7 -14  -6    2.46    0.16
  -4  15   6    0.13    0.02
  -3  15   6    0.07    0.03
  -3  15   6    0.07    0.03
  -2  15   6   11.92    0.70
  -2  15   6   12.50    0.72
   1 -15  -6    8.91    0.59
  -1  15   6    9.47    0.54
  -1  15   6    9.42    0.56
   0 -15  -6    0.23    0.04
   0  15   6    0.12    0.06
   0  15   6    0.11    0.05
  -1 -15  -6   11.06    0.72
   1  15   6   11.32    0.66
   1  15   6   11.60    0.64
  -2 -15  -6    6.54    0.42
   2  15   6    6.37    0.40
   2  15   6    6.56    0.38
  -3 -15  -6   21.15    1.25
   3  15   6   18.57    1.11
  -4 -15  -6    2.25    0.16
  -4 -15  -6    2.34    0.16
   4  15   6    2.35    0.16
  -5 -15  -6    0.93    0.08
  -2  16   6   14.42    0.81
   1 -16  -6    4.83    0.33
  -1  16   6    5.47    0.31
  -1  16   6    5.48    0.31
   0 -16  -6    0.15    0.03
  -1 -16  -6    1.50    0.12
   1  16   6    2.00    0.12
  -2 -16  -6    1.15    0.09
   2  16   6    1.35    0.11
   2  16   6    1.27    0.09
  -3 -16  -6    0.11    0.03
   3  16   6    0.15    0.07
   3  16   6    0.07    0.04
   4  16   6    1.39    0.10
   1  15  -7    2.37    0.15
   0  15  -7    0.84    0.08
  -1  15  -7    0.03    0.07
   1 -15   7    0.05    0.03
  -2  15  -7    1.21    0.14
   2 -15   7    1.37    0.10
  -3  15  -7    0.72    0.10
  -3  15  -7    0.61    0.16
   3 -15   7    0.83    0.09
  -4  15  -7   18.25    1.13
   4 -15   7   19.83    1.47
   2  14  -7    0.74    0.10
  -2 -14   7    0.66    0.09
   1  14  -7    2.60    0.19
  -1 -14   7    2.54    0.22
   0  14  -7    8.41    0.50
   0  14  -7    8.13    0.54
   0 -14   7    8.15    0.64
   0 -14   7    9.52    0.54
  -1  14  -7    0.99    0.34
  -1  14  -7    0.76    0.12
  -1  14  -7    0.79    0.09
   1 -14   7    0.91    0.10
   1 -14   7    0.81    0.11
  -2  14  -7    6.64    0.40
  -2  14  -7    5.92    0.54
  -2  14  -7    7.52    0.46
   2 -14   7    7.55    0.56
  -3  14  -7    2.86    0.34
  -3  14  -7    3.46    0.24
   3 -14   7    3.17    0.27
  -4  14  -7   13.96    0.82
  -4  14  -7   12.88    0.92
  -5  14  -7    0.28    0.08
  -5  14  -7    0.23    0.16
  -6  14  -7    2.51    0.24
  -4 -13   7   11.23    0.83
  -3 -13   7    0.21    0.08
  -2 -13   7    3.73    0.32
  -2 -13   7    3.89    0.31
   1  13  -7    0.06    0.08
  -1 -13   7   -0.02    0.07
   0  13  -7    2.08    0.20
   0  13  -7    2.31    0.46
   0  13  -7    1.96    0.17
   0 -13   7    2.16    0.21
   0 -13   7    2.30    0.19
  -1  13  -7    3.29    0.22
  -1  13  -7    3.01    0.25
  -1  13  -7    2.59    0.51
   1 -13   7    2.80    0.27
   1 -13   7    3.34    0.27
  -2  13  -7    0.85    0.40
  -2  13  -7    0.81    0.12
  -2  13  -7    0.87    0.25
  -2  13  -7    0.78    0.09
   2 -13   7    0.82    0.09
   2 -13   7    0.70    0.12
   2 -13   7    0.63    0.11
  -3  13  -7    1.10    0.25
  -3  13  -7    1.19    0.14
  -3  13  -7    0.68    0.39
   3 -13   7    1.04    0.10
   3 -13   7    1.05    0.10
   3 -13   7    0.83    0.14
  -4  13  -7    5.78    0.54
  -4  13  -7    6.27    0.74
  -4  13  -7    6.40    0.45
   4 -13   7    8.02    0.52
  -5  13  -7    0.56    0.09
  -5  13  -7    0.42    0.38
  -5  13  -7    0.66    0.19
  -6  13  -7    0.78    0.10
  -6  13  -7    0.77    0.18
  -6  13  -7    0.65    0.33
  -7  13  -7    0.07    0.12
  -5 -12   7    7.77    0.58
  -4 -12   7    6.22    0.48
   3  12  -7   18.63    1.63
  -3 -12   7   22.52    1.49
  -3 -12   7   22.63    1.56
   2  12  -7   15.23    1.32
  -2 -12   7   17.51    1.22
  -2 -12   7   18.16    1.26
   1  12  -7    0.23    0.14
   1  12  -7    0.27    0.40
  -1 -12   7    0.03    0.09
   0  12  -7    0.12    0.10
   0  12  -7    0.13    0.08
   0  12  -7    0.07    0.13
   0  12  -7    0.46    0.42
   0 -12   7    0.06    0.06
  -1  12  -7   32.83    2.43
  -1  12  -7   32.28    1.79
  -1  12  -7   30.18    2.51
  -1  12  -7   33.96    1.91
   1 -12   7   30.74    2.33
   1 -12   7   31.72    2.48
  -2  12  -7    0.11    0.21
  -2  12  -7    0.21    0.45
  -2  12  -7    0.21    0.07
  -2  12  -7    0.33    0.10
  -2  12  -7    0.12    0.46
   2 -12   7    0.36    0.07
   2 -12   7    0.21    0.11
   2 -12   7    0.33    0.07
   2 -12   7    0.30    0.10
  -3  12  -7    3.62    0.63
  -3  12  -7    4.06    0.28
  -3  12  -7    3.22    0.39
  -3  12  -7    3.95    0.23
  -3  12  -7    3.36    0.67
   3 -12   7    3.31    0.31
  -4  12  -7    2.31    0.32
  -4  12  -7    2.23    0.59
  -4  12  -7    2.55    0.21
  -4  12  -7    2.21    0.54
   4 -12   7    2.68    0.21
  -5  12  -7    1.06    0.45
  -5  12  -7    1.00    0.13
  -5  12  -7    0.77    0.20
   5 -12   7    1.09    0.10
  -6  12  -7    0.41    0.09
  -6  12  -7    0.40    0.16
  -6  12  -7    0.29    0.36
  -7  12  -7    0.37    0.15
  -7  12  -7    0.23    0.30
  -6 -11   7    0.05    0.06
  -5 -11   7   10.67    0.80
   4  11  -7    0.09    0.12
  -4 -11   7    0.01    0.08
   3  11  -7   28.84    2.42
  -3 -11   7   31.95    2.23
  -3 -11   7   34.85    2.32
   2  11  -7    1.32    0.21
  -2 -11   7    1.18    0.16
   1  11  -7    1.45    0.23
   1  11  -7    1.69    0.51
  -1 -11   7    1.70    0.16
  -1 -11   7    1.26    0.18
   0  11  -7   95.17    5.46
   0  11  -7   97.31    5.17
   0  11  -7   89.97    6.71
   0  11  -7  101.50    6.95
   0 -11   7   90.34    7.16
   0 -11   7   85.55    6.69
  -1  11  -7    0.62    0.20
  -1  11  -7    1.16    0.14
  -1  11  -7    0.87    0.56
  -1  11  -7    1.15    0.13
  -1  11  -7    1.14    0.48
  -1  11  -7    1.19    0.20
   1 -11   7    1.01    0.11
   1 -11   7    0.95    0.16
   1 -11   7    0.86    0.14
   1 -11   7    1.09    0.11
  -2  11  -7    0.17    0.12
  -2  11  -7    0.10    0.09
  -2  11  -7    0.21    0.56
  -2  11  -7    0.00    0.46
  -2  11  -7    0.36    0.08
  -2  11  -7   -0.01    0.20
   2 -11   7    0.18    0.10
   2 -11   7    0.08    0.06
  -3  11  -7   20.15    1.51
  -3  11  -7   23.29    1.27
  -3  11  -7   19.64    1.94
  -3  11  -7   23.63    1.36
   3 -11   7   24.51    1.65
  -4  11  -7    1.12    0.09
  -4  11  -7    1.17    0.14
  -4  11  -7    0.78    0.22
  -4  11  -7    1.07    0.50
  -4  11  -7    0.59    0.57
   4 -11   7    1.01    0.12
  -5  11  -7    0.35    0.43
  -5  11  -7    1.03    0.53
  -5  11  -7    0.56    0.18
  -5  11  -7    0.53    0.10
   5 -11   7    0.49    0.08
  -6  11  -7    5.05    0.41
  -6  11  -7    4.32    0.70
  -6  11  -7    4.33    0.60
   6 -11   7    4.97    0.37
  -7  11  -7    0.38    0.15
  -7  11  -7    0.07    0.32
  -8  11  -7    0.16    0.27
  -8  11  -7    0.18    0.12
  -6 -10   7    9.95    0.74
   5  10  -7    4.15    0.88
  -5 -10   7    4.76    0.43
  -5 -10   7    5.42    0.41
   4  10  -7    0.04    0.13
  -4 -10   7    0.06    0.09
  -4 -10   7    0.23    0.08
  -4 -10   7    0.06    0.13
   3  10  -7    9.06    0.82
  -3 -10   7    9.95    0.79
  -3 -10   7    9.98    0.76
  -3 -10   7   11.18    0.77
   2  10  -7    0.88    0.23
   2  10  -7    0.79    0.47
   2  10  -7    1.03    0.21
  -2 -10   7    1.43    0.17
   1  10  -7    1.74    0.56
   1  10  -7    2.38    0.30
   0  10  -7    4.06    0.71
   0  10  -7    3.69    0.26
   0  10  -7    4.11    0.36
   0  10  -7    3.40    0.36
   0  10  -7    3.94    0.99
   0 -10   7    2.91    0.30
   0 -10   7    2.88    0.32
  -1  10  -7    5.53    0.46
  -1  10  -7    3.99    0.66
  -1  10  -7    5.24    0.85
  -1  10  -7    5.11    0.35
  -1  10  -7    5.24    0.33
  -1  10  -7    4.08    0.45
   1 -10   7    4.48    0.41
   1 -10   7    5.61    0.39
  -2  10  -7    4.36    0.48
  -2  10  -7    5.88    1.20
  -2  10  -7    6.44    0.39
  -2  10  -7    5.67    0.36
  -2  10  -7    4.39    0.69
  -2  10  -7    5.19    0.90
  -2  10  -7    5.93    0.51
   2 -10   7    6.19    0.44
  -3  10  -7   61.89    3.25
  -3  10  -7   57.98    4.38
  -3  10  -7   61.59    3.45
  -3  10  -7   53.26    3.72
  -3  10  -7   56.96    5.49
  -3  10  -7   53.33    4.47
   3 -10   7   63.81    4.23
  -4  10  -7    0.32    0.60
  -4  10  -7    0.12    0.08
  -4  10  -7    0.14    0.05
  -4  10  -7    0.24    0.46
  -4  10  -7    0.07    0.15
  -4  10  -7    0.10    0.72
   4 -10   7    0.38    0.08
  -5  10  -7    5.68    0.36
  -5  10  -7    5.20    0.44
  -5  10  -7    5.93    0.75
   5 -10   7    5.22    0.42
  -6  10  -7    7.20    0.51
  -6  10  -7    5.98    0.85
  -6  10  -7    6.29    0.70
   6 -10   7    6.52    0.50
  -7  10  -7    2.00    0.23
  -7  10  -7    1.71    0.40
  -7  10  -7    1.81    0.52
   7 -10   7    1.73    0.16
  -8  10  -7   12.70    1.03
  -8  10  -7   15.00    0.94
  -7  -9   7    2.81    0.24
   6   9  -7   20.13    2.00
  -6  -9   7   16.22    1.34
  -6  -9   7   18.82    1.35
   5   9  -7    3.80    0.79
  -5  -9   7    4.52    0.36
  -5  -9   7    4.18    0.40
   4   9  -7    0.07    0.13
  -4  -9   7    0.01    0.08
  -4  -9   7    0.01    0.14
  -4  -9   7    0.02    0.08
   3   9  -7    0.81    0.24
   3   9  -7    1.19    0.20
  -3  -9   7    1.09    0.16
  -3  -9   7    0.94    0.21
  -3  -9   7    0.99    0.18
   2   9  -7    4.88    0.74
   2   9  -7    4.08    0.49
   2   9  -7    5.44    0.39
   2   9  -7    8.85    1.55
   2   9  -7    4.98    0.49
  -2  -9   7    5.70    0.43
  -2  -9   7    5.59    0.44
   1   9  -7   19.55    1.57
   1   9  -7   22.03    2.34
   1   9  -7   19.89    1.29
   1   9  -7   20.91    1.73
  -1  -9   7   20.41    1.49
  -1   9  -7    0.45    0.16
  -1   9  -7    2.44    0.88
  -2   9  -7    7.04    1.27
  -2   9  -7    8.02    0.65
   2  -9   7    7.72    0.58
  -3   9  -7    0.17    0.41
  -3   9  -7    0.34    0.74
   3  -9   7    0.13    0.07
  -4   9  -7   13.77    1.66
  -4   9  -7   11.85    0.87
  -4   9  -7   11.29    1.06
  -4   9  -7   11.12    1.27
  -4   9  -7   13.65    0.73
   4  -9   7   13.69    0.95
  -5   9  -7    0.68    0.40
  -6   9  -7    7.73    0.79
  -6   9  -7    8.48    0.96
  -6   9  -7    8.82    0.59
   6  -9   7    7.98    0.63
  -7   9  -7    0.30    0.42
  -7   9  -7    0.39    0.33
  -7   9  -7    0.37    0.13
   7  -9   7    0.48    0.11
  -8   9  -7    0.93    0.32
  -8   9  -7    1.07    0.42
  -8   9  -7    1.27    0.17
  -9   9  -7    0.64    0.27
  -5  -8   7    6.20    0.56
  -5  -8   7    6.64    0.51
   4   8  -7   52.10    4.31
   4   8  -7   53.97    4.19
  -4  -8   7   61.19    4.15
  -4  -8   7   62.29    3.99
  -4  -8   7   58.12    4.08
   3   8  -7   52.26    3.91
   3   8  -7   54.61    4.03
   3   8  -7   49.16    4.02
  -3  -8   7   56.46    3.87
  -3  -8   7   55.93    3.75
   2   8  -7    8.38    0.89
   2   8  -7    7.70    0.51
   2   8  -7    6.87    0.63
   2   8  -7    7.04    0.64
  -2  -8   7    7.89    0.59
   1   8  -7   23.12    2.43
   1   8  -7   20.12    1.58
   0   8  -7    3.03    0.90
   3  -8   7   59.09    4.55
   3  -8   7   67.70    5.16
  -4   8  -7   54.65    5.53
   4  -8   7   61.39    4.35
   4  -8   7   63.97    4.93
  -6   8  -7    8.90    0.89
  -6   8  -7    8.68    1.37
  -6   8  -7    8.33    0.74
  -6   8  -7    8.94    0.58
   6  -8   7    7.42    0.65
  -7   8  -7    3.92    0.50
  -7   8  -7    4.63    0.63
  -7   8  -7    4.96    0.33
   7  -8   7    3.37    0.36
  -8   8  -7    0.52    0.12
  -8   8  -7    0.20    0.34
  -8   8  -7    0.12    0.27
  -9   8  -7    5.61    0.53
  -9   8  -7    5.60    0.64
  -7  -7   7    7.77    0.59
   4   7  -7    6.73    0.61
   4   7  -7    6.27    0.58
   4   7  -7    3.35    1.24
  -4  -7   7    6.80    0.58
  -4  -7   7    6.78    0.52
  -4  -7   7    7.16    0.52
   3   7  -7   11.60    1.79
   3   7  -7   10.88    0.89
   3   7  -7    8.40    0.99
   3   7  -7   11.29    0.90
  -3  -7   7   11.87    0.85
  -3  -7   7   11.36    0.83
   2   7  -7    0.85    0.95
   2   7  -7    0.22    0.17
  -2  -7   7    0.22    0.16
   0   7  -7   11.57    1.64
   0   7  -7   15.46    1.04
   0  -7   7   12.30    1.17
  -1   7  -7   15.87    1.29
   1  -7   7   18.70    1.27
   3  -7   7    3.78    0.32
   3  -7   7    4.04    0.44
   4  -7   7    5.03    0.52
   4  -7   7    4.95    0.42
  -7   7  -7    9.63    0.60
  -7   7  -7   10.21    0.88
  -7   7  -7    8.89    0.72
   7  -7   7    7.47    0.69
  -8   7  -7    3.95    0.55
  -8   7  -7    3.60    0.44
  -8   7  -7    4.02    0.30
  -9   7  -7    7.37    0.72
  -9   7  -7    6.90    0.59
 -10   7  -7    5.49    0.60
   8   6  -7    0.04    0.29
   7   6  -7    1.27    0.47
  -7  -6   7    0.80    0.07
  -7  -6   7    1.12    0.14
  -5  -6   7    6.75    0.58
  -5  -6   7    6.51    0.52
   4   6  -7   47.31    4.89
   4   6  -7   54.98    3.74
   4   6  -7   54.87    5.28
   4   6  -7   54.52    3.84
  -4  -6   7   50.30    3.64
  -4  -6   7   46.58    3.68
  -4  -6   7   49.01    3.54
   3   6  -7   34.59    3.55
   3   6  -7   34.18    3.21
   3   6  -7   33.22    2.59
  -3  -6   7   38.13    2.90
   2   6  -7    4.28    0.44
   2   6  -7    4.81    1.15
   2   6  -7    4.26    0.76
  -2  -6   7    5.51    0.49
   1   6  -7    7.89    0.65
   1   6  -7    7.24    0.96
   1   6  -7    9.92    1.37
   0   6  -7    8.37    1.03
   0   6  -7    6.25    0.50
   0   6  -7    5.51    1.04
   0  -6   7    5.14    0.56
  -1   6  -7    2.38    0.63
  -1   6  -7    2.27    0.67
  -1   6  -7    1.77    0.22
   1  -6   7    2.46    0.29
   1  -6   7    2.10    0.18
  -2   6  -7    9.84    1.24
  -2   6  -7    9.47    1.34
   2  -6   7   11.21    0.82
   2  -6   7   12.07    0.98
  -3   6  -7   34.79    3.52
  -3   6  -7   36.73    3.36
   3  -6   7   38.07    2.72
   3  -6   7   39.75    3.08
  -4   6  -7   22.98    2.45
  -4   6  -7   25.66    2.27
  -4   6  -7   23.57    2.32
   4  -6   7   25.03    2.06
   4  -6   7   25.26    1.81
  -5   6  -7   24.89    2.12
  -5   6  -7   22.37    2.15
   5  -6   7   22.16    1.67
   5  -6   7   21.70    1.91
  -6   6  -7    5.71    0.76
  -6   6  -7    8.17    1.21
  -6   6  -7    5.68    0.88
   6  -6   7    5.38    0.46
   6  -6   7    5.03    0.56
  -7   6  -7   39.40    2.55
  -7   6  -7   38.73    2.57
  -7   6  -7   41.07    3.04
   7  -6   7   43.02    2.95
  -8   6  -7    2.21    0.39
  -8   6  -7    1.59    0.28
  -9   6  -7    0.35    0.29
  -9   6  -7    0.11    0.20
 -10   6  -7    0.36    0.28
 -10   6  -7    0.67    0.22
 -11   6  -7    0.52    0.27
   8   5  -7    2.83    0.47
  -8  -5   7    1.95    0.13
   7   5  -7   10.42    1.26
  -7  -5   7   11.51    0.82
  -7  -5   7    9.64    0.59
   6   5  -7   24.43    2.50
  -6  -5   7   21.17    1.29
  -6  -5   7   23.15    1.67
   5   5  -7    9.45    1.60
   5   5  -7    9.85    0.72
  -5  -5   7    7.46    0.65
  -5  -5   7    9.11    0.87
  -5  -5   7    8.31    0.71
   4   5  -7    5.29    0.50
   4   5  -7    4.19    1.12
  -4  -5   7    6.02    0.62
  -4  -5   7    4.88    0.42
  -4  -5   7    5.33    0.48
   3   5  -7    1.87    0.27
   3   5  -7    1.39    0.91
   3   5  -7    1.39    0.60
  -3  -5   7    1.73    0.36
   2   5  -7    3.55    0.38
   2   5  -7    4.20    0.99
   2   5  -7    4.71    0.79
  -2  -5   7    4.43    0.42
  -2  -5   7    4.52    0.54
   1   5  -7    3.92    0.40
   1   5  -7    4.84    0.77
   1   5  -7    5.91    1.02
  -1  -5   7    4.71    0.61
  -1  -5   7    4.98    0.45
   0   5  -7   14.35    1.64
   0  -5   7   13.42    1.30
   0  -5   7   14.12    1.19
  -1   5  -7    4.53    0.40
  -1   5  -7    4.44    0.85
  -1   5  -7    4.36    0.84
   1  -5   7    4.72    0.77
   1  -5   7    5.23    0.37
  -2   5  -7    8.02    1.13
  -2   5  -7    7.73    1.07
   2  -5   7    6.72    0.96
   2  -5   7    9.35    0.77
   2  -5   7    8.99    0.65
  -3   5  -7    4.07    0.75
  -3   5  -7    5.11    0.85
  -3   5  -7    4.10    0.70
   3  -5   7    4.56    0.38
   3  -5   7    4.34    0.44
   3  -5   7    4.03    0.60
  -4   5  -7    0.41    0.49
  -4   5  -7    0.12    0.32
  -4   5  -7   -0.22    0.39
   4  -5   7   -0.04    0.14
   4  -5   7    0.06    0.11
   4  -5   7    0.39    0.35
  -5   5  -7    1.84    0.51
  -5   5  -7    2.52    0.65
   5  -5   7    1.57    0.34
   5  -5   7    0.87    0.23
   5  -5   7    1.12    0.17
  -6   5  -7   14.19    1.44
  -6   5  -7   13.25    1.67
  -6   5  -7   14.12    1.44
   6  -5   7   13.04    1.23
   6  -5   7   13.37    1.25
   6  -5   7   16.00    1.06
  -7   5  -7    4.12    0.41
   7  -5   7    4.78    0.62
   7  -5   7    5.30    0.42
  -8   5  -7    4.81    0.55
  -8   5  -7    4.25    0.41
   8  -5   7    4.24    0.62
   8  -5   7    4.93    0.40
  -9   5  -7    1.57    0.34
  -9   5  -7    1.56    0.24
   9  -5   7    1.65    0.21
 -10   5  -7    0.55    0.28
 -10   5  -7    0.41    0.19
  10  -5   7    0.17    0.11
 -11   5  -7    1.30    0.30
   8   4  -7    1.43    0.42
  -8  -4   7    0.71    0.06
   7   4  -7    0.03    0.45
  -7  -4   7    0.10    0.03
  -7  -4   7    0.03    0.15
   6   4  -7    4.67    0.45
  -6  -4   7    4.38    0.27
  -6  -4   7    4.83    0.45
   5   4  -7   46.38    3.39
   4   4  -7   14.14    1.82
   4   4  -7   18.12    1.29
   4   4  -7   18.44    1.98
  -4  -4   7   16.04    1.47
   3   4  -7   82.22    7.42
   3   4  -7   82.16    7.77
   3   4  -7   91.19    6.20
  -3  -4   7   88.12    6.84
   2   4  -7    0.16    0.74
   2   4  -7    0.60    0.15
   2   4  -7    0.52    0.50
  -2  -4   7    0.64    0.31
   1   4  -7   65.85    5.89
   1   4  -7   66.65    5.58
   1   4  -7   56.86    4.65
  -1  -4   7   68.71    5.23
  -1  -4   7   66.27    5.17
   0   4  -7   78.63    5.93
   0   4  -7   63.20    6.27
   0  -4   7   66.41    5.59
  -1   4  -7    1.26    0.54
  -1   4  -7    1.36    0.18
   1  -4   7    1.54    0.23
   1  -4   7    1.35    0.46
  -2   4  -7   34.38    3.33
  -2   4  -7   35.37    3.24
   2  -4   7   39.94    2.92
   2  -4   7   32.27    2.93
  -3   4  -7   82.34    7.10
  -3   4  -7   83.75    7.46
  -3   4  -7   80.53    6.87
   3  -4   7   88.50    6.73
   3  -4   7   91.06    6.00
   3  -4   7   73.24    6.58
  -4   4  -7   14.91    1.40
  -4   4  -7   13.19    1.52
  -4   4  -7   13.32    1.41
   4  -4   7   14.79    1.22
   4  -4   7   15.27    1.06
   4  -4   7   12.76    1.21
  -5   4  -7   14.78    1.48
  -5   4  -7   13.88    1.32
   5  -4   7   13.48    1.15
   5  -4   7   12.35    0.98
   5  -4   7   12.43    1.16
  -6   4  -7    9.90    1.36
  -6   4  -7   10.22    1.09
  -6   4  -7    9.43    1.03
   6  -4   7   10.07    0.74
   6  -4   7    9.01    0.92
  -7   4  -7   70.86    6.19
  -7   4  -7   68.77    5.99
   7  -4   7   71.30    5.73
   7  -4   7   76.39    5.19
  -8   4  -7   12.46    1.02
  -8   4  -7   12.11    0.82
  -8   4  -7   11.53    0.87
   8  -4   7   12.73    0.93
   8  -4   7   11.93    1.15
  -9   4  -7    9.17    0.67
  -9   4  -7    9.26    0.70
  -9   4  -7    9.90    0.84
   9  -4   7   10.08    0.75
 -10   4  -7   17.45    1.33
 -10   4  -7   16.49    1.09
 -10   4  -7   16.09    1.16
 -11   4  -7    1.99    0.19
 -11   4  -7    2.12    0.34
  -9  -3   7    0.37    0.04
   8   3  -7    2.03    0.50
  -8  -3   7    1.74    0.18
  -8  -3   7    1.67    0.11
  -7  -3   7    0.69    0.18
  -7  -3   7    0.66    0.14
  -7  -3   7    0.60    0.06
   6   3  -7   51.36    3.82
   6   3  -7   58.22    5.41
  -6  -3   7   51.20    3.74
  -6  -3   7   53.29    4.23
  -6  -3   7   48.22    2.96
  -6  -3   7   54.03    3.61
   5   3  -7  277.76   18.12
   5   3  -7  273.43   13.30
  -5  -3   7  209.12   19.90
   4   3  -7    3.89    0.96
   4   3  -7    5.51    0.47
  -4  -3   7    5.17    0.64
   3   3  -7   15.50    1.78
   3   3  -7   15.51    1.79
   3   3  -7   18.04    1.26
  -3  -3   7   16.55    1.45
   2   3  -7   33.13    3.37
   2   3  -7   37.28    2.58
   2   3  -7   35.74    3.24
  -2  -3   7   35.48    2.90
   1   3  -7   15.46    1.07
   1   3  -7   15.96    1.20
   1   3  -7   16.88    1.81
   1   3  -7   16.81    1.66
  -1  -3   7   16.24    1.45
  -1  -3   7   16.92    1.35
   0   3  -7  149.37   10.79
   0   3  -7  122.70   11.37
   0   3  -7  127.53    8.21
   0  -3   7  115.58   10.14
   0  -3   7  128.14   10.32
  -1   3  -7   89.30    5.54
  -1   3  -7   78.97    7.36
  -1   3  -7   85.97    7.68
   1  -3   7   91.74    6.90
  -2   3  -7    2.00    0.55
  -2   3  -7    1.90    0.17
  -2   3  -7    2.46    0.60
  -2   3  -7    2.38    0.51
   2  -3   7    2.75    0.47
   2  -3   7    2.32    0.27
  -3   3  -7   80.42    6.41
  -3   3  -7   75.23    6.64
  -3   3  -7   78.18    6.96
   3  -3   7   82.39    6.28
   3  -3   7   72.88    6.16
  -4   3  -7    1.14    0.39
  -4   3  -7    1.00    0.39
   4  -3   7    0.95    0.21
   4  -3   7    0.82    0.29
   4  -3   7    0.74    0.14
  -5   3  -7    7.78    0.87
  -5   3  -7    8.60    1.07
   5  -3   7    7.02    0.61
   5  -3   7    9.85    0.80
  -6   3  -7   74.34    7.04
  -6   3  -7   82.16    6.81
   6  -3   7   88.94    5.97
   6  -3   7   85.06    6.56
  -7   3  -7    0.19    0.34
  -7   3  -7    0.01    0.33
   7  -3   7    0.09    0.16
   7  -3   7    0.13    0.44
  -8   3  -7    8.52    0.64
  -8   3  -7    9.19    0.83
   8  -3   7   10.12    0.75
   8  -3   7   10.39    1.03
  -9   3  -7   18.43    1.21
  -9   3  -7   18.69    1.46
  -9   3  -7   18.72    1.31
   9  -3   7   18.10    1.66
   9  -3   7   19.38    1.40
 -10   3  -7    3.78    0.34
 -10   3  -7    3.96    0.33
 -10   3  -7    4.32    0.49
  10  -3   7    4.04    0.37
 -11   3  -7   29.75    2.27
 -11   3  -7   31.10    2.09
 -12   3  -7   19.31    1.26
 -12   3  -7   17.31    1.39
   9   2  -7    1.59    0.38
  -9  -2   7    1.67    0.10
  -9  -2   7    1.58    0.16
   8   2  -7   -0.02    0.33
  -8  -2   7    0.06    0.03
  -8  -2   7    0.13    0.09
   7   2  -7    9.90    1.21
  -7  -2   7    8.56    0.52
  -7  -2   7    9.31    0.68
   6   2  -7   10.89    0.88
   6   2  -7   11.63    0.62
  -6  -2   7   10.16    0.64
  -6  -2   7   11.59    0.88
  -6  -2   7   11.17    0.83
  -6  -2   7   11.49    1.04
   5   2  -7   14.16    0.93
  -5  -2   7    9.63    0.90
  -5  -2   7   11.17    1.09
   4   2  -7   44.35    3.09
  -4  -2   7   40.59    3.44
   3   2  -7    0.59    0.14
   3   2  -7    0.39    0.58
  -3  -2   7    0.54    0.29
   2   2  -7    0.03    0.50
   2   2  -7    0.16    0.63
  -2  -2   7    0.51    0.32
   1   2  -7   19.24    1.92
   1   2  -7   17.46    1.80
   1   2  -7   17.89    1.18
   1   2  -7   19.23    1.33
  -1  -2   7   16.46    1.58
   0   2  -7   15.73    1.02
   0   2  -7   16.59    1.64
   0   2  -7   17.79    1.54
   0  -2   7   14.21    1.45
   0  -2   7   14.58    1.29
  -1   2  -7   10.99    1.27
  -1   2  -7   10.60    1.33
  -1   2  -7   12.82    0.83
   1  -2   7   12.59    1.24
   1  -2   7   14.43    1.06
  -2   2  -7   97.43    8.67
  -2   2  -7   94.64    6.27
  -2   2  -7   94.65    7.99
  -2   2  -7   89.50    8.30
   2  -2   7   98.44    7.75
   2  -2   7  112.73    7.89
  -3   2  -7   14.31    1.34
  -3   2  -7   14.91    1.48
  -3   2  -7   14.06    0.93
  -3   2  -7   11.86    1.43
   3  -2   7   15.86    1.22
   3  -2   7   13.65    1.25
  -4   2  -7    2.04    0.42
  -4   2  -7    1.95    0.16
  -4   2  -7    2.20    0.54
  -4   2  -7    2.22    0.52
   4  -2   7    2.64    0.37
  -5   2  -7   13.20    1.52
  -5   2  -7   13.68    1.28
  -5   2  -7   11.40    1.35
   5  -2   7   15.51    2.04
   5  -2   7   14.92    1.21
   5  -2   7   14.30    1.03
  -7   2  -7    9.59    0.98
  -7   2  -7    9.05    1.10
   7  -2   7   10.03    0.75
   7  -2   7    6.50    1.55
   7  -2   7   10.91    1.03
  -8   2  -7   16.51    1.33
  -8   2  -7   15.94    1.08
   8  -2   7   18.47    1.57
   8  -2   7   17.62    1.28
  -9   2  -7    0.41    0.13
  -9   2  -7    0.39    0.13
  -9   2  -7    0.76    0.27
  -9   2  -7    0.29    0.08
   9  -2   7    0.68    0.50
   9  -2   7    0.04    0.19
 -10   2  -7    3.96    0.48
 -10   2  -7    4.00    0.30
 -10   2  -7    4.16    0.34
 -10   2  -7    4.43    0.35
  10  -2   7    3.99    0.38
 -11   2  -7    0.06    0.24
 -11   2  -7    0.13    0.10
 -11   2  -7    0.06    0.06
 -12   2  -7    1.54    0.15
 -12   2  -7    1.26    0.25
   8   1  -7   15.48    1.53
  -8  -1   7   12.75    0.75
  -8  -1   7   12.70    0.95
  -8  -1   7   12.79    0.88
   7   1  -7   32.03    1.77
   7   1  -7   34.99    2.49
  -7  -1   7   31.14    1.88
  -7  -1   7   33.32    2.35
  -7  -1   7   33.70    2.31
  -7  -1   7   34.49    2.18
   6   1  -7   80.37    5.36
   6   1  -7   72.55    5.31
   6   1  -7   73.97    3.88
  -6  -1   7   76.72    4.80
  -6  -1   7   68.16    4.14
  -6  -1   7   72.23    5.19
  -6  -1   7   72.00    5.18
  -6  -1   7   71.99    5.03
  -6  -1   7   75.42    5.88
  -5  -1   7    0.58    0.31
  -5  -1   7    0.14    0.15
  -5  -1   7    0.73    0.31
   4   1  -7   -0.03    0.25
   4   1  -7    0.23    0.14
   4   1  -7    0.34    0.70
  -4  -1   7    0.07    0.26
  -4  -1   7    0.22    0.25
   3   1  -7   24.75    2.55
   3   1  -7   26.65    1.89
  -3  -1   7   26.20    2.73
  -3  -1   7   25.29    2.14
   2   1  -7   10.55    1.27
  -2  -1   7   10.15    1.23
  -2  -1   7    9.73    0.96
   1   1  -7   40.69    3.67
   1   1  -7   41.54    2.66
  -1  -1   7   40.93    4.17
  -1  -1   7   38.45    3.34
  -1  -1   7   45.20    4.34
   0   1  -7  192.57   13.98
   0   1  -7  173.61   14.71
   0   1  -7  180.00   10.69
   0  -1   7  154.04   17.00
   0  -1   7  146.40   16.45
   0  -1   7  158.23   13.17
  -1   1  -7   70.58    4.21
  -1   1  -7   73.24    5.84
   1  -1   7   63.86    5.25
   1  -1   7   60.06    6.73
   1  -1   7   57.92    7.08
  -2   1  -7   98.37    8.05
  -2   1  -7  100.79    8.76
  -2   1  -7   93.31    8.38
  -2   1  -7  101.39    6.33
   2  -1   7  103.65    7.96
   2  -1   7   96.48    7.82
  -4   1  -7   27.64    1.83
  -4   1  -7   27.84    2.39
  -4   1  -7   29.32    2.56
   4  -1   7   28.59    2.29
  -6   1  -7   21.03    1.90
  -6   1  -7   21.86    2.06
   6  -1   7   22.46    1.61
  -7   1  -7    9.53    1.13
  -7   1  -7    9.80    1.00
   7  -1   7   10.47    0.79
   7  -1   7   11.94    1.05
   7  -1   7    7.07    1.56
  -8   1  -7    4.00    0.32
   8  -1   7    5.52    0.83
   8  -1   7    5.33    0.43
   8  -1   7    2.22    1.32
  -9   1  -7   26.08    1.72
  -9   1  -7   27.06    1.90
  -9   1  -7   27.92    2.07
  -9   1  -7   25.92    1.81
   9  -1   7   27.71    2.04
   9  -1   7   31.55    2.37
 -10   1  -7    9.12    0.66
 -10   1  -7    9.61    0.66
 -10   1  -7   11.03    0.72
  10  -1   7    9.52    0.78
 -11   1  -7    7.00    0.48
 -11   1  -7    5.76    0.43
 -12   1  -7    0.32    0.09
  -9   0   7    0.44    0.04
  -9   0   7    0.43    0.06
  -9   0   7    0.61    0.11
  -8   0   7    2.63    0.21
  -8   0   7    2.67    0.17
  -8   0   7    2.69    0.26
   7   0  -7   23.88    1.65
   7   0  -7   20.95    1.16
  -7   0   7   20.35    1.22
  -7   0   7   21.56    1.54
  -7   0   7   21.24    1.52
  -7   0   7   21.92    1.44
   6   0  -7   69.06    4.72
  -6   0   7   61.47    5.59
  -6   0   7   62.70    4.47
  -6   0   7   67.76    4.27
  -6   0   7   69.09    4.61
  -6   0   7   65.34    5.22
  -6   0   7   62.27    3.68
   5   0  -7    4.20    0.35
   5   0  -7    3.48    0.61
  -5   0   7    3.65    0.27
  -5   0   7    3.51    0.53
  -5   0   7    3.02    0.34
  -5   0   7    2.88    0.58
   4   0  -7  156.11   10.02
   4   0  -7  139.14   12.43
   4   0  -7  137.51   11.93
  -4   0   7  143.83    9.80
  -4   0   7  125.18   14.11
  -4   0   7  134.56   11.00
   3   0  -7   59.74    4.25
   3   0  -7   63.52    5.31
   3   0  -7   59.99    5.25
  -3   0   7   55.16    4.70
  -3   0   7   55.65    6.04
  -3   0   7   60.12    4.15
   2   0  -7  203.10   15.43
  -2   0   7  178.75   18.53
  -2   0   7  170.27   14.41
   1   0  -7  326.88   20.27
  -1   0   7  322.76   24.88
  -1   0   7  306.51   31.99
  -1   0   7  314.51   31.05
   0   0  -7    7.50    0.50
   0   0   7    7.49    1.41
   0   0   7    6.43    0.89
   0   0   7   10.02    1.50
  -1   0  -7   15.39    0.96
   1   0   7   14.88    2.84
   1   0   7   12.76    1.38
   1   0   7   15.70    2.31
  -2   0  -7    4.10    0.29
   2   0   7    4.14    0.40
   2   0   7    4.55    0.64
  -3   0  -7    0.97    0.34
  -3   0  -7    0.73    0.38
  -3   0  -7    0.85    0.28
   3   0   7    1.06    1.03
   3   0   7    0.59    0.29
   3   0   7    2.13    1.17
  -4   0  -7  899.99   76.99
  -4   0  -7  994.40   74.60
  -4   0  -7  918.37   81.31
   4   0   7  850.37   72.86
   4   0   7 1000.00   93.67
  -5   0  -7  204.11   19.28
   5   0   7  259.30   23.43
  -6   0  -7   60.91    4.86
   6   0   7   51.68    4.03
  -7   0  -7   15.59    1.62
   7   0   7   16.68    1.23
   8   0   7   24.05    1.79
  -9   0  -7   68.41    4.37
  -9   0  -7   76.44    4.57
  -9   0  -7   60.54    4.13
   9   0   7   63.08    4.86
 -10   0  -7    7.34    0.49
 -10   0  -7    5.50    0.43
 -10   0  -7    6.48    0.44
  10   0   7    5.48    0.54
 -11   0  -7    0.54    0.09
 -11   0  -7    0.62    0.12
 -11   0  -7    0.55    0.13
 -12   0  -7   10.20    0.72
   9  -1  -7   13.24    1.50
  -9   1   7   13.34    0.92
  -9   1   7   14.75    0.98
  -9   1   7   14.52    0.79
   8  -1  -7   13.21    1.07
   8  -1  -7   11.83    0.73
  -8   1   7   14.39    0.97
  -8   1   7   14.01    0.77
  -8   1   7   14.04    0.91
   7  -1  -7    0.32    0.22
  -7   1   7    0.15    0.07
  -7   1   7    0.22    0.04
  -7   1   7    0.20    0.06
  -7   1   7    0.28    0.09
  -7   1   7    0.25    0.13
   6  -1  -7   32.00    2.21
  -6   1   7   30.20    2.47
  -6   1   7   28.75    2.58
  -6   1   7   28.94    1.70
  -6   1   7   29.82    1.98
  -6   1   7   29.24    2.09
  -6   1   7   31.08    2.13
  -5   1   7    3.95    0.32
  -5   1   7    4.08    0.56
  -5   1   7    5.48    0.72
   4  -1  -7   38.67    3.50
   4  -1  -7   37.14    3.63
   4  -1  -7   40.37    2.76
  -4   1   7   39.18    3.99
  -4   1   7   35.92    3.28
  -4   1   7   40.37    3.11
  -4   1   7   35.99    2.70
   3  -1  -7    1.42    0.27
   3  -1  -7    1.49    0.68
   3  -1  -7    1.43    0.15
  -3   1   7    1.33    0.32
  -3   1   7    2.13    0.45
  -3   1   7    1.94    0.19
   2  -1  -7   14.45    1.53
   2  -1  -7   13.01    1.00
   2  -1  -7   14.47    1.28
  -2   1   7   13.32    1.62
  -2   1   7   13.37    1.52
  -2   1   7   13.85    0.98
  -2   1   7   14.05    1.22
   1  -1  -7    3.69    0.70
   1  -1  -7    4.04    0.28
  -1   1   7    3.49    0.59
  -1   1   7    4.21    0.82
  -1   1   7    5.73    0.94
   0  -1  -7   13.00    1.17
   0  -1  -7   11.59    0.75
   0   1   7    9.78    1.12
  -1  -1  -7    7.61    0.91
  -3  -1  -7   25.45    1.99
  -3  -1  -7   23.21    1.53
   3   1   7   22.55    1.92
   3   1   7   22.63    3.13
   3   1   7   24.37    2.84
  -4  -1  -7   29.14    2.25
  -4  -1  -7   26.14    2.41
  -4  -1  -7   23.52    1.73
   4   1   7   28.77    2.17
  -5  -1  -7   16.42    1.51
   5   1   7   14.37    1.31
  -6  -1  -7   72.49    5.91
   6   1   7   69.31    5.74
   6   1   7   78.76    7.56
   6   1   7   70.15    5.22
  -8  -1  -7    0.26    0.07
   8   1   7    0.52    0.22
   8   1   7    0.63    0.46
  -9  -1  -7    3.08    0.25
   9   1   7    3.42    0.38
 -10  -1  -7   18.61    1.19
 -10  -1  -7   18.45    1.32
 -10  -1  -7   18.71    1.45
 -10  -1  -7   19.75    1.25
  10   1   7   18.93    1.42
 -11  -1  -7   24.79    1.47
 -11  -1  -7   22.86    1.62
 -11  -1  -7   23.52    1.54
 -11  -1  -7   22.67    1.76
 -12  -1  -7    6.96    0.50
 -12  -1  -7    6.65    0.58
   9  -2  -7    1.21    0.32
  -9   2   7    0.94    0.07
  -9   2   7    0.86    0.09
  -9   2   7    0.87    0.13
   8  -2  -7    2.00    0.30
  -8   2   7    1.93    0.18
  -8   2   7    1.97    0.13
  -8   2   7    2.05    0.22
   7  -2  -7    2.92    0.31
  -7   2   7    2.64    0.17
  -7   2   7    2.39    0.21
  -7   2   7    2.75    0.23
  -7   2   7    2.46    0.27
  -7   2   7    2.63    0.27
   6  -2  -7   80.03    5.07
  -6   2   7   67.17    6.00
  -6   2   7   69.36    3.95
  -6   2   7   63.66    4.95
  -6   2   7   71.01    5.60
  -6   2   7   69.90    4.58
  -6   2   7   70.63    4.80
   5  -2  -7    0.76    0.13
  -5   2   7    0.54    0.34
  -5   2   7    1.05    0.16
  -5   2   7    0.29    0.28
   4  -2  -7   22.68    2.32
   4  -2  -7   21.24    1.54
   4  -2  -7   20.83    1.99
  -4   2   7   20.03    1.51
  -4   2   7   21.35    2.30
  -4   2   7   21.77    1.79
  -4   2   7   21.73    1.84
   3  -2  -7   60.86    5.39
   3  -2  -7   60.13    4.33
   3  -2  -7   58.42    5.32
  -3   2   7   59.29    6.19
  -3   2   7   56.66    4.25
  -3   2   7   63.89    5.16
  -3   2   7   62.62    4.81
   2  -2  -7    0.51    0.07
   2  -2  -7    0.51    0.07
   2  -2  -7    0.70    0.50
  -2   2   7    0.69    0.30
  -2   2   7    1.07    0.42
  -2   2   7    0.46    0.07
  -2   2   7    0.39    0.42
   1  -2  -7   43.80    2.95
   1  -2  -7   44.46    4.01
  -1   2   7   44.47    4.70
  -1   2   7   49.11    3.71
  -1   2   7   47.65    3.25
  -1   2   7   47.18    4.93
   0  -2  -7   58.66    4.84
   0  -2  -7   58.43    3.64
   0   2   7   53.73    6.22
   0   2   7   56.98    4.56
   0   2   7   55.90    5.88
  -1  -2  -7   11.02    0.67
   1   2   7   10.31    1.99
   1   2   7   11.81    1.99
   1   2   7    7.99    0.99
  -3  -2  -7   38.40    3.86
  -3  -2  -7   49.70    2.88
   3   2   7   50.82    5.07
   3   2   7   41.73    3.55
   3   2   7   44.43    4.78
  -4  -2  -7   73.77    4.93
   4   2   7   77.44    6.07
   4   2   7   78.15    8.05
   4   2   7   79.42    7.78
  -5  -2  -7    9.37    1.08
  -5  -2  -7    9.76    0.94
   5   2   7    9.93    0.78
   5   2   7   10.98    0.93
   5   2   7   12.40    1.55
  -6  -2  -7   10.44    1.00
  -6  -2  -7    8.53    1.13
   6   2   7   12.93    1.01
   6   2   7   10.92    0.83
  -7  -2  -7    3.72    0.49
  -7  -2  -7    3.25    0.62
   7   2   7    3.93    0.59
   7   2   7    3.82    0.37
  -8  -2  -7   11.93    0.80
   8   2   7   12.41    1.21
   8   2   7   13.64    0.99
  -9  -2  -7   13.15    0.82
  -9  -2  -7   11.62    1.02
  -9  -2  -7   13.61    0.87
  -9  -2  -7   12.62    0.93
   9   2   7   13.26    1.01
   9   2   7   12.70    1.24
 -10  -2  -7   -0.02    0.19
 -10  -2  -7    0.17    0.08
 -10  -2  -7    0.20    0.08
 -10  -2  -7    0.05    0.11
  10   2   7    0.18    0.18
 -11  -2  -7    0.01    0.10
 -11  -2  -7    0.01    0.07
 -11  -2  -7    0.09    0.19
 -11  -2  -7    0.09    0.07
 -12  -2  -7    8.51    0.65
 -12  -2  -7   10.10    0.73
  -9   3   7    3.43    0.20
  -9   3   7    3.64    0.28
  -9   3   7    3.38    0.25
  -8   3   7    5.14    0.39
  -8   3   7    5.46    0.43
  -8   3   7    5.69    0.32
   7  -3  -7   48.70    3.35
  -7   3   7   46.61    3.02
  -7   3   7   46.82    2.60
  -7   3   7   42.91    3.26
  -7   3   7   43.91    3.95
  -7   3   7   47.93    3.17
   6  -3  -7   38.61    2.64
  -6   3   7   35.83    2.39
  -6   3   7   35.54    2.05
  -6   3   7   35.13    3.12
  -6   3   7   34.93    2.57
  -6   3   7   38.78    2.97
  -6   3   7   35.72    2.52
  -5   3   7    9.52    1.18
   4  -3  -7    6.88    0.70
   4  -3  -7    6.26    0.47
  -4   3   7    5.97    0.47
  -4   3   7    6.23    0.58
  -4   3   7    6.77    0.89
  -4   3   7    6.05    0.67
   3  -3  -7   38.56    2.78
  -3   3   7   38.21    4.03
  -3   3   7   39.80    3.32
  -3   3   7   40.01    3.13
  -3   3   7   37.09    2.74
   2  -3  -7  155.75   11.05
   2  -3  -7  144.27    9.85
  -2   3   7  156.44   15.63
  -2   3   7  165.82   12.14
  -2   3   7  145.09   15.16
  -2   3   7  159.22   10.84
   1  -3  -7   99.17    6.80
  -1   3   7  110.08    8.40
  -1   3   7  110.58    7.49
  -1   3   7  100.93   10.54
  -1   3   7  112.11   10.91
   0  -3  -7  107.32    6.97
   0  -3  -7  117.54    9.13
   0   3   7  107.74    8.61
   0   3   7  103.46   11.31
   0   3   7  102.49   10.88
   0   3   7  115.52    7.67
  -1  -3  -7   52.07    4.75
   1   3   7   55.70    6.24
   1   3   7   56.32    5.87
   1   3   7   58.05    4.43
   2   3   7   16.99    1.40
   2   3   7   14.69    3.05
   2   3   7   13.79    2.49
  -3  -3  -7   71.33    6.21
   3   3   7   76.06    7.54
   3   3   7   73.18    7.85
   3   3   7   73.60    5.79
  -6  -3  -7   59.35    4.71
   6   3   7   59.23    6.17
   6   3   7   59.71    4.16
   6   3   7   52.20    4.57
  -7  -3  -7    3.75    0.48
   7   3   7    5.21    1.40
   7   3   7    3.11    0.54
   7   3   7    3.75    0.37
  -8  -3  -7    9.70    0.84
  -8  -3  -7    9.70    0.66
   8   3   7   14.19    2.50
   8   3   7   11.02    0.83
   8   3   7   11.41    1.06
  -9  -3  -7    3.44    0.42
  -9  -3  -7    4.15    0.30
  -9  -3  -7    3.87    0.27
  -9  -3  -7    3.98    0.33
   9   3   7    3.52    0.40
 -10  -3  -7    0.52    0.09
 -10  -3  -7    0.52    0.20
  10   3   7    0.37    0.18
 -11  -3  -7    2.92    0.20
 -11  -3  -7    2.36    0.20
 -11  -3  -7    2.89    0.33
 -11  -3  -7    2.08    0.22
 -12  -3  -7   12.80    0.89
 -12  -3  -7   10.54    0.80
  -9   4   7    5.51    0.39
  -9   4   7    5.41    0.37
  -9   4   7    5.14    0.31
  -8   4   7    6.54    0.38
  -8   4   7    6.73    0.49
  -8   4   7    6.26    0.45
   7  -4  -7    3.73    0.32
  -7   4   7    3.15    0.33
  -7   4   7    3.40    0.21
  -7   4   7    3.37    0.31
  -7   4   7    3.11    0.26
   6  -4  -7    0.79    0.12
  -6   4   7    0.73    0.12
  -6   4   7    0.68    0.07
  -6   4   7    0.62    0.10
  -6   4   7    0.65    0.16
  -6   4   7    0.74    0.12
  -5   4   7    2.33    0.45
  -5   4   7    1.51    0.22
   4  -4  -7   10.74    0.79
   4  -4  -7   11.74    1.07
  -4   4   7   10.88    0.96
  -4   4   7   10.32    1.29
  -4   4   7   10.43    0.79
   3  -4  -7   43.87    3.27
  -3   4   7   45.80    4.72
  -3   4   7   44.94    3.22
  -3   4   7   47.89    3.91
   2  -4  -7    0.74    0.07
   2  -4  -7    0.62    0.06
  -2   4   7    0.36    0.41
  -2   4   7    0.52    0.39
  -2   4   7    0.39    0.08
   1  -4  -7   16.58    1.08
   1  -4  -7   16.79    1.20
  -1   4   7   16.88    2.10
  -1   4   7   15.82    1.91
  -1   4   7   16.84    1.19
   0  -4  -7   30.70    1.99
   0   4   7   31.84    2.19
   0   4   7   31.33    3.88
   0   4   7   29.31    3.39
  -1  -4  -7    3.34    0.22
   1   4   7    4.40    1.70
   1   4   7    5.00    1.49
   1   4   7    2.91    0.25
  -2  -4  -7    4.32    0.29
   2   4   7    3.59    1.74
   2   4   7    2.36    1.49
  -3  -4  -7   80.34    5.37
   3   4   7   70.59    8.07
   3   4   7   73.39    7.74
  -4  -4  -7   45.11    3.43
  -4  -4  -7   48.52    3.07
   4   4   7   47.22    5.06
   4   4   7   51.87    5.41
   5   4   7   48.95    4.97
   5   4   7   64.46    6.16
   5   4   7   59.43    5.91
   7   4   7    8.26    1.35
   7   4   7   12.56    2.31
  -8  -4  -7    2.87    0.34
  -8  -4  -7    2.87    0.21
   8   4   7    2.63    0.34
   8   4   7    2.01    1.48
  -9  -4  -7   12.18    0.74
  -9  -4  -7   12.13    0.80
  -9  -4  -7   11.55    0.85
  -9  -4  -7   10.83    0.93
   9   4   7   11.43    0.91
 -10  -4  -7    3.01    0.23
 -10  -4  -7    2.63    0.33
 -10  -4  -7    2.50    0.26
 -10  -4  -7    2.94    0.21
  10   4   7    3.26    1.14
  12   4   7    0.07    0.30
  -9   5   7    2.63    0.19
  -9   5   7    2.57    0.15
  -8   5   7    1.80    0.16
  -8   5   7    1.84    0.18
  -8   5   7    1.79    0.12
   7  -5  -7    4.94    0.36
  -7   5   7    4.11    0.36
  -7   5   7    4.31    0.26
  -7   5   7    4.49    0.33
  -7   5   7    3.82    0.40
   6  -5  -7   14.29    0.98
  -6   5   7   13.27    0.91
  -6   5   7   13.63    0.98
  -6   5   7   13.38    0.76
  -6   5   7   12.52    0.97
  -6   5   7   12.98    1.17
  -5   5   7   18.44    1.17
  -5   5   7   20.61    1.47
  -5   5   7   22.52    2.24
  -5   5   7   21.08    1.79
   4  -5  -7    9.27    0.68
  -4   5   7    9.05    1.15
  -4   5   7    8.73    0.68
  -4   5   7    9.78    0.83
   3  -5  -7    0.64    0.07
  -3   5   7    0.58    0.09
  -3   5   7    0.59    0.12
  -3   5   7    0.76    0.38
   2  -5  -7    3.11    0.23
   2  -5  -7    2.99    0.22
  -2   5   7    3.12    0.61
  -2   5   7    2.72    0.25
  -2   5   7    3.79    0.35
   1  -5  -7    2.36    0.19
   1  -5  -7    2.44    0.19
  -1   5   7    2.43    0.20
  -1   5   7    4.11    0.78
  -1   5   7    3.21    0.72
  -1   5   7    2.41    0.34
   0  -5  -7    1.25    0.11
   0  -5  -7    1.37    0.11
   0   5   7    2.29    1.17
   0   5   7    2.28    0.95
  -1  -5  -7    4.46    0.30
   1   5   7    6.71    1.75
   1   5   7    4.99    1.45
   1   5   7    3.92    0.33
  -2  -5  -7    8.07    0.51
   2   5   7    7.28    1.96
   2   5   7    4.65    1.67
  -3  -5  -7    1.02    0.09
   3   5   7    0.13    1.37
   3   5   7    0.63    1.56
  -4  -5  -7    2.36    0.30
   4   5   7    2.32    0.60
   4   5   7    0.97    1.21
   4   5   7    2.29    1.37
  -5  -5  -7    2.67    0.29
   5   5   7    3.06    0.71
   5   5   7    3.72    1.40
  -6  -5  -7    1.21    0.18
   6   5   7    1.16    0.66
   6   5   7    4.09    1.42
   7   5   7    2.94    1.54
   7   5   7    4.17    0.84
  -8  -5  -7    3.74    0.29
  -9  -5  -7    0.95    0.13
  -9  -5  -7    0.96    0.22
  -9  -5  -7    0.97    0.11
   9   5   7    0.49    0.73
   9   5   7    2.71    1.19
 -11  -5  -7   21.56    1.27
 -11  -5  -7   19.20    1.52
  -8   6   7    1.87    0.12
  -8   6   7    1.99    0.16
   7  -6  -7    0.46    0.10
  -7   6   7    0.29    0.07
  -7   6   7    0.30    0.08
   6  -6  -7   27.84    1.93
  -6   6   7   26.46    1.76
  -6   6   7   25.41    2.30
  -6   6   7   26.02    1.90
  -6   6   7   27.45    1.51
   5  -6  -7   12.90    0.89
  -5   6   7   11.92    0.89
  -5   6   7   12.37    0.70
  -5   6   7   11.89    1.08
  -5   6   7   12.00    0.84
   4  -6  -7   21.95    1.54
  -4   6   7   21.84    1.86
  -4   6   7   20.11    2.31
  -4   6   7   21.21    1.53
   3  -6  -7  151.26   10.67
  -3   6   7  145.86   10.47
  -3   6   7  154.61   12.70
  -3   6   7  144.08   15.08
   2  -6  -7   47.84    3.33
   2  -6  -7   42.41    2.98
  -2   6   7   49.26    3.28
  -2   6   7   46.58    3.98
  -2   6   7   45.78    4.83
   1  -6  -7    0.27    0.04
   1  -6  -7    0.09    0.05
  -1   6   7    0.10    0.06
  -1   6   7    0.86    0.49
  -1   6   7    0.42    0.52
  -1   6   7    0.17    0.15
   0  -6  -7    4.07    0.33
   0  -6  -7    4.06    0.31
   0   6   7    4.95    0.54
   0   6   7    4.59    0.34
   0   6   7    6.42    1.24
   0   6   7    6.59    1.11
  -1  -6  -7    4.80    0.36
  -1  -6  -7    5.03    0.34
   1   6   7    4.56    0.37
   1   6   7    8.36    1.70
   1   6   7    7.60    1.41
  -2  -6  -7   11.70    1.01
   2   6   7   12.13    2.22
   2   6   7   16.93    2.30
   2   6   7   10.65    1.34
   3   6   7   -0.99    1.32
   3   6   7    2.09    1.58
  -5  -6  -7   86.18    6.04
   5   6   7   78.10    8.96
   5   6   7   89.77    7.38
   6   6   7    7.29    1.32
   8   6   7   15.18    2.03
   8   6   7   20.79    2.79
  -9  -6  -7    4.72    0.29
   9   6   7    2.78    0.85
   9   6   7    2.49    1.36
 -10  -6  -7    4.53    0.45
 -10  -6  -7    5.39    0.33
  10   6   7    4.22    1.30
  -8   7   7   10.02    0.57
  -8   7   7   10.18    0.67
   7  -7  -7    2.04    0.20
  -7   7   7    2.41    0.19
  -7   7   7    2.41    0.14
   6  -7  -7    7.51    0.49
  -6   7   7    6.19    0.58
  -6   7   7    6.68    0.38
  -6   7   7    5.50    0.48
  -6   7   7    6.32    0.46
   5  -7  -7   12.68    0.83
  -5   7   7   11.28    0.78
  -5   7   7    9.77    1.00
  -5   7   7   11.64    0.83
   4  -7  -7   15.72    1.16
  -4   7   7   16.56    0.91
  -4   7   7   14.97    1.77
  -4   7   7   16.73    1.40
  -4   7   7   15.46    1.15
   3  -7  -7   57.62    4.11
  -3   7   7   59.39    4.91
  -3   7   7   57.91    4.05
  -3   7   7   53.87    5.90
   2  -7  -7    1.26    0.11
   2  -7  -7    1.17    0.11
  -2   7   7    1.53    0.44
  -2   7   7    1.00    0.13
  -2   7   7    1.67    0.24
   1  -7  -7    2.42    0.19
   1  -7  -7    2.39    0.19
  -1   7   7    2.53    0.21
  -1   7   7    4.02    0.68
   0  -7  -7   24.86    1.81
   0  -7  -7   24.68    1.63
   0   7   7   27.62    1.80
   0   7   7   25.89    3.09
   0   7   7   23.86    2.21
   0   7   7   24.11    2.72
  -1  -7  -7   42.56    2.56
  -1  -7  -7   39.13    2.85
   1   7   7   37.78    2.81
   1   7   7   42.57    4.26
   1   7   7   36.57    3.48
   1   7   7   40.85    4.68
  -2  -7  -7    0.98    0.10
  -2  -7  -7    1.01    0.32
   2   7   7    2.36    0.58
   2   7   7    2.06    1.32
   2   7   7    1.60    1.60
  -3  -7  -7    8.66    0.56
  -3  -7  -7    7.82    0.75
   3   7   7   14.44    2.81
   3   7   7    5.51    1.79
  -4  -7  -7    7.83    0.71
   4   7   7   11.12    1.21
   4   7   7    5.48    2.00
   4   7   7    8.11    1.06
   5   7   7   17.33    2.08
   5   7   7   23.12    2.08
  -8  -7  -7   12.48    1.02
  -8  -7  -7   14.12    0.88
   8   7   7   14.58    2.49
   8   7   7   17.95    1.83
   9   7   7   12.77    1.58
 -11  -7  -7    8.88    0.53
  11   7   7    6.80    1.48
  -8   8   7    4.96    0.32
  -8   8   7    4.58    0.27
  -7   8   7    1.61    0.14
  -7   8   7    1.57    0.10
   6  -8  -7    1.15    0.11
  -6   8   7    0.91    0.12
  -6   8   7    1.00    0.14
  -6   8   7    0.99    0.08
   5  -8  -7    1.99    0.16
  -5   8   7    1.68    0.18
  -5   8   7    1.93    0.23
  -5   8   7    2.41    0.19
   4  -8  -7    7.71    0.56
  -4   8   7    7.46    0.46
  -4   8   7    7.86    0.57
  -4   8   7    7.57    0.45
  -4   8   7    7.39    0.69
   3  -8  -7   39.00    2.86
  -3   8   7   41.00    2.82
  -3   8   7   39.35    3.42
   2  -8  -7   12.10    0.87
   2  -8  -7   11.16    0.79
  -2   8   7   12.98    0.88
  -2   8   7   11.55    1.07
   1  -8  -7   12.22    0.94
   1  -8  -7   11.57    0.86
  -1   8   7   14.07    0.95
  -1   8   7   14.50    1.19
  -1  -8  -7    1.66    0.14
  -1  -8  -7    1.58    0.13
  -2  -8  -7   10.11    0.87
  -2  -8  -7    8.52    0.60
   4   8   7  105.32    9.40
   4   8   7  112.41    9.85
  -5  -8  -7   77.56    5.19
   5   8   7   74.78    6.67
   5   8   7   64.85    6.37
   7   8   7   74.26   10.69
   7   8   7   96.02    7.45
  -8  -8  -7   34.26    2.10
  -8  -8  -7   31.09    2.43
   8   8   7   37.89    4.65
  -9  -8  -7   47.12    2.90
 -10  -8  -7    6.15    0.40
  -7   9   7    0.02    0.02
   6  -9  -7    9.72    0.74
  -6   9   7   10.61    0.58
   5  -9  -7    2.20    0.18
  -5   9   7    2.38    0.15
  -5   9   7    2.00    0.24
  -5   9   7    2.30    0.15
  -5   9   7    2.16    0.19
   4  -9  -7   32.42    2.32
  -4   9   7   33.38    1.82
  -4   9   7   31.96    2.29
  -4   9   7   31.60    1.89
  -4   9   7   31.79    2.78
   3  -9  -7    5.78    0.44
  -3   9   7    6.44    0.46
  -3   9   7    6.12    0.36
  -3   9   7    5.66    0.56
  -3   9   7    5.61    0.37
   2  -9  -7    2.10    0.17
  -2   9   7    2.27    0.20
  -2   9   7    1.89    0.28
   1  -9  -7   26.81    1.87
   1  -9  -7   28.77    2.08
  -1   9   7   26.93    2.50
  -1   9   7   32.86    2.07
   0  -9  -7   11.42    0.82
   0  -9  -7   10.83    0.75
   0   9   7   10.07    0.84
   0   9   7   12.53    0.83
   0   9   7   11.39    1.06
  -1  -9  -7   11.23    0.79
  -1  -9  -7   11.47    0.73
  -1  -9  -7    8.77    0.99
   1   9   7   10.68    1.14
   3   9   7    6.78    1.22
  -5  -9  -7   31.56    1.98
  -5  -9  -7   36.18    2.35
  -5  -9  -7   28.13    1.96
  -6  -9  -7   32.64    2.19
  -6  -9  -7   29.81    1.87
  -6  -9  -7   30.12    1.85
   6   9   7   25.75    4.33
   8   9   7   66.50    5.70
   8   9   7   62.69    8.22
  -7  10   7    1.49    0.09
  -6  10   7   39.27    2.21
   5 -10  -7    0.96    0.09
  -5  10   7    1.15    0.14
  -5  10   7    1.02    0.08
  -5  10   7    1.02    0.08
   4 -10  -7    1.00    0.10
  -4  10   7    0.99    0.09
  -4  10   7    1.16    0.09
  -4  10   7    1.12    0.12
   3 -10  -7   26.00    1.83
  -3  10   7   26.73    1.82
  -3  10   7   24.53    2.20
  -3  10   7   25.06    1.44
  -3  10   7   24.91    1.50
   2 -10  -7    3.74    0.29
  -2  10   7    4.10    0.31
  -2  10   7    3.61    0.39
  -2  10   7    3.67    0.24
  -2  10   7    3.58    0.25
   1 -10  -7    5.60    0.41
  -1  10   7    5.86    0.56
  -1  10   7    6.10    0.43
  -1  10   7    5.09    0.32
  -1  10   7    4.93    0.34
   0 -10  -7    0.72    0.40
   0 -10  -7    0.34    0.06
   0  10   7    0.41    0.23
   0  10   7    0.35    0.10
  -1 -10  -7    5.26    0.40
  -1 -10  -7    5.31    0.38
  -1 -10  -7    6.55    0.72
   1  10   7    5.39    0.72
  -4 -10  -7   37.06    2.30
  -4 -10  -7   38.24    2.33
  -4 -10  -7   36.44    2.75
  -6 -10  -7    3.18    0.23
  -6 -10  -7    3.44    0.33
  -6 -10  -7    3.15    0.22
   6  10   7    5.62    1.65
   7  10   7    2.90    1.46
   7  10   7    1.28    0.77
  -8 -10  -7    6.01    0.39
  -6  11   7    0.39    0.04
  -5  11   7   12.02    0.74
  -5  11   7   12.98    0.71
   4 -11  -7    0.63    0.07
  -4  11   7    0.62    0.07
  -4  11   7    0.72    0.11
  -4  11   7    0.53    0.07
   3 -11  -7    3.97    0.30
  -3  11   7    4.17    0.32
  -3  11   7    4.01    0.24
  -3  11   7    3.84    0.38
  -3  11   7    3.74    0.26
   2 -11  -7    3.59    0.27
  -2  11   7    3.73    0.29
  -2  11   7    3.33    0.23
  -2  11   7    3.54    0.24
  -2  11   7    3.56    0.37
   1 -11  -7    2.95    0.60
   1 -11  -7    3.82    0.29
  -1  11   7    3.59    0.95
  -1  11   7    3.69    0.23
  -1  11   7    3.65    0.25
  -1  11   7    3.67    0.26
  -1  11   7    4.01    0.43
   0 -11  -7    3.09    0.23
   0 -11  -7    2.79    0.20
   0  11   7    2.71    0.21
   0  11   7    2.86    0.26
   0  11   7    2.73    0.19
   0  11   7    2.91    0.23
   0  11   7    2.83    0.45
  -1 -11  -7    1.97    0.15
  -1 -11  -7    2.15    0.17
  -1 -11  -7    2.14    0.49
   1  11   7    1.89    0.16
   1  11   7    2.34    1.40
  -2 -11  -7   46.74    3.63
  -2 -11  -7   50.95    3.05
   2  11   7   48.08    4.27
   2  11   7   48.60    4.96
   2  11   7   49.75    6.44
   3  11   7    0.45    0.65
  -4 -11  -7    5.43    0.56
  -4 -11  -7    5.43    0.37
  -4 -11  -7    6.01    0.38
   4  11   7    7.00    1.21
  -5 -11  -7   19.40    1.25
  -5 -11  -7   21.63    1.53
  -5 -11  -7   21.55    1.27
   5  11   7   16.49    2.10
   6  11   7    2.33    1.53
   6  11   7    2.50    0.80
  -7 -11  -7    2.74    0.19
   7  11   7    2.43    1.42
   7  11   7    2.89    0.77
  -8 -11  -7    2.65    0.19
   8  11   7    4.83    1.30
  -9 -11  -7   10.39    0.65
  -6  12   7    1.26    0.08
  -5  12   7   15.03    0.90
  -5  12   7   15.72    0.87
  -4  12   7    2.07    0.13
  -4  12   7    1.86    0.13
   3 -12  -7    1.50    0.13
  -3  12   7    1.43    0.12
  -3  12   7    1.68    0.12
  -3  12   7    1.72    0.19
   2 -12  -7    8.36    0.58
  -2  12   7    7.35    0.71
  -2  12   7    7.64    0.46
  -2  12   7    8.11    0.48
   1 -12  -7   37.53    2.51
   1 -12  -7   42.37    2.89
  -1  12   7   39.99    2.22
  -1  12   7   40.36    3.45
  -1  12   7   41.21    2.28
  -1  12   7   39.73    2.36
   0 -12  -7    6.26    0.41
   0 -12  -7    6.64    0.47
   0  12   7    4.51    1.21
   0  12   7    6.67    0.40
   0  12   7    6.28    0.62
   0  12   7    6.34    0.37
   0  12   7    5.99    0.40
  -1 -12  -7    2.38    0.18
  -1 -12  -7    1.70    0.45
  -1 -12  -7    2.07    0.16
   1  12   7    3.75    1.22
   1  12   7    2.07    0.17
   1  12   7    1.85    0.20
   1  12   7    2.50    0.43
  -2 -12  -7   14.66    1.34
  -2 -12  -7   17.23    1.04
   2  12   7   16.50    2.74
   2  12   7   16.75    0.93
   2  12   7   16.25    1.52
  -3 -12  -7   17.56    1.52
  -3 -12  -7   21.81    1.23
   3  12   7   18.10    1.86
   3  12   7   19.58    2.05
  -5 -12  -7    3.88    0.24
  -5 -12  -7    3.35    0.24
   5  12   7    1.30    1.54
   5  12   7    4.31    0.78
  -6 -12  -7    0.71    0.08
  -6 -12  -7    0.78    0.07
   6  12   7    1.14    0.67
   6  12   7    2.19    1.40
   7  12   7    7.46    1.91
  -8 -12  -7    4.66    0.30
  -5  13   7    0.06    0.02
  -5  13   7    0.06    0.02
  -4  13   7    3.55    0.21
  -4  13   7    3.62    0.22
  -3  13   7   10.70    0.62
  -3  13   7   11.10    0.65
   2 -13  -7    8.16    0.58
  -2  13   7    7.39    0.70
  -2  13   7    7.79    0.46
  -2  13   7    7.94    0.48
   1 -13  -7    2.72    0.20
   1 -13  -7    3.10    0.23
  -1  13   7    2.87    0.30
  -1  13   7    3.03    0.20
  -1  13   7    3.06    0.20
   0 -13  -7   31.21    2.13
   0 -13  -7   28.19    1.85
   0  13   7   30.34    1.74
   0  13   7   27.12    2.55
   0  13   7   30.27    1.68
   0  13   7   30.01    1.64
  -1 -13  -7    0.34    0.05
  -1 -13  -7    0.19    0.28
   1  13   7    0.32    0.17
   1  13   7    0.36    0.86
   1  13   7    0.27    0.07
   1  13   7    0.22    0.10
  -2 -13  -7    1.15    0.11
   2  13   7    1.16    0.12
   2  13   7    1.75    0.28
   2  13   7    1.24    1.09
  -3 -13  -7   14.00    0.84
   3  13   7   13.04    2.33
   3  13   7   12.42    1.24
  -4 -13  -7    8.12    0.50
   4  13   7    6.63    0.88
  -5 -13  -7   13.54    0.89
  -5 -13  -7   15.11    0.90
   6  13   7    0.62    1.21
   7  13   7    6.88    1.67
  -4  14   7    1.15    0.08
  -4  14   7    1.16    0.08
  -3  14   7    0.09    0.03
  -3  14   7    0.06    0.03
  -2  14   7   36.70    2.12
  -2  14   7   38.65    2.20
   1 -14  -7    1.06    0.09
  -1  14   7    1.23    0.10
  -1  14   7    1.16    0.10
   0 -14  -7    7.23    0.45
   0  14   7    6.84    0.40
   0  14   7    6.92    0.42
   0  14   7    6.95    0.42
  -1 -14  -7    0.04    0.04
   1  14   7    0.01    0.61
   1  14   7    0.04    0.05
   1  14   7    0.07    0.07
  -2 -14  -7    2.48    0.17
   2  14   7    1.37    0.84
   2  14   7    2.41    0.17
   2  14   7    2.55    0.20
  -3 -14  -7    1.23    0.10
   3  14   7    1.16    0.11
   3  14   7    1.08    0.90
  -4 -14  -7    2.91    0.19
   4  14   7    1.69    1.04
  -5 -14  -7    6.02    0.39
  -5 -14  -7    6.24    0.39
   5  14   7    5.87    1.46
  -6 -14  -7    1.44    0.10
   6  14   7    0.66    0.89
  -3  15   7    1.68    0.10
  -3  15   7    1.71    0.11
  -2  15   7    2.26    0.14
  -2  15   7    2.25    0.14
   1 -15  -7    0.13    0.03
  -1  15   7    0.14    0.03
  -1  15   7    0.16    0.04
   0 -15  -7    0.33    0.04
   0  15   7    0.25    0.04
   0  15   7    0.26    0.05
  -1 -15  -7    4.85    0.32
   1  15   7    4.87    0.30
   1  15   7    4.91    0.28
  -2 -15  -7    0.06    0.03
   2  15   7    0.03    0.05
   2  15   7    0.17    0.07
  -3 -15  -7    2.21    0.16
   3  15   7    2.19    0.15
   3  15   7    2.61    0.18
  -4 -15  -7    0.86    0.07
   4  15   7    0.80    0.09
   4  15   7    0.79    0.10
  -5 -15  -7    1.42    0.10
   5  15   7    1.25    0.13
  -1  16   7    8.32    0.47
   0 -16  -7    1.92    0.14
   0  16   7    2.29    0.13
  -1 -16  -7    0.29    0.04
  -1 -16  -7    0.29    0.03
   1  16   7    0.51    0.06
  -2 -16  -7    0.06    0.03
   2  16   7    0.13    0.05
  -3 -16  -7    0.52    0.05
   3  16   7    0.82    0.08
   3  16   7    0.67    0.06
  -2  15  -8    3.93    0.26
   1  14  -8    1.33    0.13
  -1 -14   8    1.75    0.15
   0  14  -8    1.28    0.15
   0  14  -8    1.44    0.12
   0 -14   8    1.71    0.15
  -1  14  -8    8.66    0.53
  -1  14  -8    9.13    0.58
   1 -14   8   10.32    0.58
   1 -14   8    9.10    0.69
  -2  14  -8    3.99    0.50
  -2  14  -8    3.90    0.30
   2 -14   8    4.18    0.34
   2 -14   8    5.05    0.36
  -3  14  -8    7.68    0.66
  -3  14  -8    9.20    0.59
   3 -14   8   10.93    0.75
   3 -14   8    9.60    0.70
  -4  14  -8    2.99    0.30
  -4  14  -8    2.72    0.22
   4 -14   8    3.41    0.26
  -5  14  -8    2.28    0.18
  -5  14  -8    2.15    0.25
   5 -14   8    2.60    0.20
  -3 -13   8    0.39    0.07
  -2 -13   8    0.06    0.06
  -2 -13   8    0.12    0.06
   1  13  -8    0.15    0.08
  -1 -13   8    0.03    0.07
   0  13  -8    1.08    0.14
   0  13  -8    1.37    0.37
   0  13  -8    0.88    0.11
   0 -13   8    1.00    0.12
  -1  13  -8   12.82    0.77
  -1  13  -8   13.10    1.16
  -1  13  -8   12.69    0.83
   1 -13   8   15.32    1.05
   1 -13   8   13.08    0.99
  -2  13  -8    0.06    0.06
  -2  13  -8    0.13    0.33
  -2  13  -8    0.06    0.09
   2 -13   8    0.15    0.07
   2 -13   8    0.11    0.06
  -3  13  -8    0.38    0.20
  -3  13  -8    0.70    0.36
  -3  13  -8    0.51    0.11
   3 -13   8    0.77    0.11
   3 -13   8    0.79    0.11
  -4  13  -8    8.56    0.49
  -4  13  -8    7.00    0.76
  -4  13  -8    8.00    0.75
  -4  13  -8    6.85    0.58
   4 -13   8    7.29    0.57
  -5  13  -8    1.09    0.13
  -5  13  -8    1.26    0.22
  -5  13  -8    1.42    0.37
  -6  13  -8    2.57    0.28
  -6  13  -8    2.89    0.40
  -6  13  -8    2.64    0.19
  -4 -12   8    2.47    0.21
   3  12  -8    4.89    0.47
  -3 -12   8    5.95    0.43
   2  12  -8    0.62    0.15
  -2 -12   8    0.53    0.10
  -2 -12   8    0.47    0.11
   1  12  -8    0.04    0.13
   1  12  -8    0.37    0.37
  -1 -12   8    0.25    0.09
   0  12  -8    2.75    0.50
   0  12  -8    1.64    0.17
   0  12  -8    1.80    0.26
   0  12  -8    1.94    0.19
   0 -12   8    2.04    0.18
   0 -12   8    1.81    0.19
  -1  12  -8    0.86    0.17
  -1  12  -8    1.17    0.44
  -1  12  -8    0.95    0.13
  -1  12  -8    0.96    0.12
   1 -12   8    0.84    0.13
  -2  12  -8    1.59    0.17
  -2  12  -8    1.12    0.26
  -2  12  -8    1.37    0.48
  -2  12  -8    1.40    0.13
   2 -12   8    1.46    0.13
   2 -12   8    1.10    0.16
   2 -12   8    1.14    0.17
   2 -12   8    1.47    0.13
  -3  12  -8    2.24    0.33
  -3  12  -8    3.14    0.24
  -3  12  -8    2.75    0.53
  -3  12  -8    3.42    0.60
  -3  12  -8    2.94    0.19
   3 -12   8    2.90    0.29
   3 -12   8    2.87    0.26
   3 -12   8    3.18    0.24
  -4  12  -8   50.60    2.54
  -4  12  -8   42.45    3.27
  -4  12  -8   39.43    2.82
  -4  12  -8   40.09    2.76
   4 -12   8   41.38    3.10
  -5  12  -8    1.87    0.49
  -5  12  -8    1.70    0.27
  -5  12  -8    1.88    0.46
  -5  12  -8    2.36    0.19
   5 -12   8    2.24    0.18
  -6  12  -8    7.63    0.44
  -6  12  -8    6.58    0.52
  -6  12  -8    6.17    0.73
  -6  12  -8    5.65    0.67
  -7  12  -8    8.94    0.79
  -7  12  -8   10.68    0.70
  -5 -11   8    0.27    0.08
   4  11  -8    4.26    0.43
  -4 -11   8    5.49    0.39
   3  11  -8    3.03    0.34
  -3 -11   8    3.65    0.30
  -3 -11   8    3.58    0.29
   2  11  -8   22.96    1.89
  -2 -11   8   26.24    1.80
  -2 -11   8   24.56    1.75
   1  11  -8   11.14    0.99
   1  11  -8   12.88    1.15
   1  11  -8   11.49    0.77
  -1 -11   8   13.18    0.97
  -1 -11   8   13.44    0.94
   0  11  -8    0.51    0.12
   0  11  -8    0.47    0.44
   0  11  -8    0.31    0.10
   0  11  -8    0.15    0.14
   0 -11   8    0.22    0.08
   0 -11   8    0.30    0.10
  -1  11  -8    0.61    0.17
  -1  11  -8    0.58    0.12
  -1  11  -8    0.57    0.47
  -1  11  -8    0.50    0.11
   1 -11   8    0.78    0.13
   1 -11   8    0.83    0.13
  -2  11  -8   18.61    1.62
  -2  11  -8   16.21    1.25
  -2  11  -8   19.38    1.05
  -2  11  -8   15.47    1.37
  -2  11  -8   18.24    1.43
  -2  11  -8   19.71    1.12
   2 -11   8   17.70    1.45
   2 -11   8   20.19    1.34
   2 -11   8   18.27    1.35
  -3  11  -8    6.06    0.34
  -3  11  -8    5.85    0.38
  -3  11  -8    4.32    0.48
  -3  11  -8    5.37    0.83
  -3  11  -8    4.33    0.66
   3 -11   8    5.70    0.42
  -4  11  -8   28.23    1.58
  -4  11  -8   23.17    1.73
  -4  11  -8   21.89    1.84
  -4  11  -8   28.54    1.47
  -4  11  -8   24.38    2.16
   4 -11   8   29.21    1.91
  -5  11  -8    1.16    0.22
  -5  11  -8    1.62    0.16
  -5  11  -8    1.41    0.46
  -5  11  -8    1.47    0.54
   5 -11   8    1.35    0.13
  -6  11  -8    1.37    0.22
  -6  11  -8    1.38    0.42
  -6  11  -8    1.08    0.47
   6 -11   8    1.43    0.13
  -7  11  -8    7.80    0.53
  -7  11  -8    6.33    0.76
  -7  11  -8    6.12    0.67
  -8  11  -8    0.47    0.14
  -8  11  -8    0.57    0.29
  -5 -10   8    0.04    0.11
  -5 -10   8    0.07    0.08
   4  10  -8    2.26    0.28
  -4 -10   8    2.67    0.28
  -4 -10   8    2.72    0.24
   3  10  -8    2.50    0.31
  -3 -10   8    2.55    0.29
  -3 -10   8    2.78    0.25
  -3 -10   8    2.66    0.26
   2  10  -8   32.88    2.51
   2  10  -8   29.36    2.45
  -2 -10   8   34.26    2.35
  -2 -10   8   32.77    2.28
  -2 -10   8   32.11    2.32
   1  10  -8    0.60    0.46
   1  10  -8    0.70    0.12
   1  10  -8    0.36    0.19
   1  10  -8    0.49    0.17
  -1 -10   8    0.51    0.12
  -1 -10   8    0.53    0.08
   0  10  -8   12.16    0.72
   0  10  -8   11.11    0.91
   0  10  -8   13.15    0.94
   0 -10   8   11.01    0.87
   0 -10   8   10.32    0.91
  -1  10  -8    2.05    0.19
  -1  10  -8    2.03    0.52
  -1  10  -8    1.95    0.62
  -1  10  -8    2.45    0.91
  -1  10  -8    2.16    0.28
  -1  10  -8    2.19    0.20
   1 -10   8    2.22    0.25
   1 -10   8    2.16    0.22
  -2  10  -8    9.01    0.53
  -2  10  -8    8.75    0.57
  -2  10  -8    7.82    0.68
  -2  10  -8    8.93    0.74
  -2  10  -8    9.61    1.08
  -2  10  -8    6.66    0.88
  -2  10  -8    7.96    1.53
   2 -10   8    9.89    0.66
  -3  10  -8   16.94    1.33
  -3  10  -8   17.27    1.61
  -3  10  -8   14.19    1.31
  -3  10  -8   17.69    0.97
  -3  10  -8   18.96    1.04
  -3  10  -8   14.69    1.16
   3 -10   8   18.10    1.25
  -4  10  -8    3.96    0.61
  -4  10  -8    3.83    0.39
  -4  10  -8    4.10    0.30
  -4  10  -8    5.92    0.83
  -4  10  -8    4.65    0.27
   4 -10   8    4.02    0.33
  -5  10  -8    2.75    0.64
  -5  10  -8    2.11    0.18
  -5  10  -8    1.81    0.25
  -5  10  -8    1.71    0.48
   5 -10   8    1.94    0.18
  -6  10  -8   13.88    1.33
  -6  10  -8   14.14    1.13
  -6  10  -8   13.91    0.98
   6 -10   8   15.63    1.07
  -7  10  -8    7.97    0.57
  -7  10  -8    6.80    0.71
  -7  10  -8    7.04    0.85
   7 -10   8    8.07    0.58
  -8  10  -8   14.88    0.89
  -8  10  -8   11.78    0.98
  -8  10  -8   12.09    1.14
  -9  10  -8    0.29    0.24
  -6  -9   8    0.92    0.12
  -5  -9   8    2.62    0.23
  -5  -9   8    2.38    0.28
   4   9  -8    0.47    0.16
  -4  -9   8    0.44    0.10
  -4  -9   8    0.35    0.15
  -4  -9   8    0.36    0.08
   3   9  -8    0.28    0.15
   3   9  -8    0.23    0.12
  -3  -9   8    0.08    0.15
  -3  -9   8    0.27    0.12
  -3  -9   8    0.35    0.10
   2   9  -8    4.35    0.35
   2   9  -8    4.32    0.67
   2   9  -8    4.35    0.44
  -2  -9   8    4.78    0.44
  -2  -9   8    4.88    0.39
   0   9  -8    3.27    0.65
   0   9  -8    2.43    0.22
   0   9  -8    2.70    0.24
   0   9  -8    3.24    0.33
   0   9  -8    2.79    0.32
   0  -9   8    2.46    0.25
   0  -9   8    2.38    0.27
  -1   9  -8    4.66    0.32
  -1   9  -8    4.71    0.46
  -1   9  -8    4.62    0.33
  -1   9  -8    5.73    0.85
  -1   9  -8    4.99    0.36
   1  -9   8    4.79    0.37
  -2   9  -8   26.58    2.17
  -2   9  -8   25.94    1.52
  -2   9  -8   22.77    1.44
  -2   9  -8   24.93    1.95
   2  -9   8   27.70    1.85
  -4   9  -8   -0.19    0.53
  -4   9  -8    0.09    0.06
  -4   9  -8    0.11    0.08
  -4   9  -8    0.01    0.39
  -4   9  -8    0.15    0.14
  -4   9  -8    1.23    0.74
   4  -9   8    0.16    0.08
  -5   9  -8    0.27    0.52
  -5   9  -8    0.35    0.38
  -6   9  -8    1.46    0.51
  -6   9  -8    1.60    0.40
  -6   9  -8    1.25    0.19
   6  -9   8    1.25    0.14
  -7   9  -8    7.49    0.72
  -7   9  -8    7.64    0.87
  -7   9  -8    8.06    0.56
   7  -9   8    7.90    0.59
  -8   9  -8    2.82    0.26
  -8   9  -8    2.67    0.49
  -8   9  -8    2.38    0.40
  -9   9  -8    0.68    0.36
  -9   9  -8    0.74    0.28
   6   8  -8    3.71    0.68
  -6  -8   8    4.99    0.42
  -6  -8   8    4.82    0.37
  -5  -8   8    4.37    0.36
  -5  -8   8    4.27    0.41
   4   8  -8   10.17    0.85
  -4  -8   8   10.53    0.75
  -4  -8   8   10.43    0.79
  -4  -8   8   10.51    0.82
   3   8  -8   27.96    1.97
   3   8  -8   25.92    2.01
   3   8  -8   25.61    1.66
  -3  -8   8   25.84    1.86
  -3  -8   8   25.85    1.92
  -3  -8   8   26.70    1.92
   2   8  -8   13.99    0.95
   2   8  -8   17.11    1.15
   2   8  -8   14.98    1.16
  -2  -8   8   14.06    1.10
  -2  -8   8   13.45    1.09
   0   8  -8   41.88    2.84
   0   8  -8   37.97    2.91
   0   8  -8   36.31    2.40
  -4   8  -8    6.78    0.88
  -5   8  -8   19.31    1.04
  -5   8  -8   21.89    1.36
  -5   8  -8   17.27    1.21
   5  -8   8   17.11    1.36
  -6   8  -8   14.62    1.10
  -6   8  -8   14.40    1.83
  -6   8  -8   15.95    1.33
  -6   8  -8   14.44    0.96
   6  -8   8   13.96    1.09
  -7   8  -8    0.68    0.40
  -7   8  -8    0.57    0.13
  -7   8  -8    0.62    0.30
   7  -8   8    0.42    0.13
  -8   8  -8    0.82    0.14
   8  -8   8    0.48    0.12
  -9   8  -8    1.82    0.40
  -9   8  -8    1.66    0.32
 -10   8  -8    3.22    0.46
 -10   8  -8    3.26    0.38
   7   7  -8   26.36    2.71
  -6  -7   8   18.65    1.36
  -6  -7   8   18.26    1.35
  -5  -7   8    2.38    0.29
  -5  -7   8    1.88    0.20
   4   7  -8   19.90    1.52
   4   7  -8   19.11    1.50
  -4  -7   8   20.26    1.38
  -4  -7   8   20.03    1.46
  -4  -7   8   18.68    1.44
   3   7  -8    3.65    0.41
   3   7  -8    3.92    0.30
   3   7  -8    2.58    1.15
   3   7  -8    3.86    0.40
  -3  -7   8    3.90    0.37
  -3  -7   8    3.71    0.33
   2   7  -8    4.12    0.45
   2   7  -8    4.25    0.34
   2   7  -8    4.48    0.43
   2   7  -8    4.71    0.65
  -2  -7   8    4.67    0.38
  -2  -7   8    5.34    0.48
   1   7  -8  119.84    8.76
   1   7  -8  113.90    8.46
   1   7  -8  120.02   10.55
   0   7  -8    5.16    0.43
   0  -7   8    3.81    0.46
  -1   7  -8   12.99    1.07
  -1   7  -8   14.31    1.68
   1  -7   8   14.89    1.03
   3  -7   8   23.58    1.75
   3  -7   8   24.60    2.02
  -4   7  -8   81.27    6.74
   4  -7   8   70.42    5.30
   4  -7   8   70.39    5.97
  -5   7  -8   84.18    4.75
   5  -7   8   67.62    5.44
  -6   7  -8   11.57    0.84
  -6   7  -8   10.64    1.00
  -6   7  -8    9.54    0.70
  -6   7  -8   10.99    0.59
  -7   7  -8    1.78    0.18
  -7   7  -8    2.04    0.32
  -7   7  -8    2.82    0.45
   7  -7   8    1.15    0.21
  -8   7  -8    8.56    0.71
  -8   7  -8    9.57    0.87
  -8   7  -8    9.29    0.62
  -9   7  -8   -0.10    0.23
  -9   7  -8   -0.03    0.29
   9  -7   8    0.06    0.11
 -10   7  -8    0.27    0.23
 -10   7  -8    0.08    0.28
   7   6  -8    3.88    0.59
   5   6  -8    9.62    0.79
   4   6  -8    0.83    0.17
   4   6  -8    0.03    1.03
   4   6  -8    0.62    0.22
  -4  -6   8    0.58    0.11
  -4  -6   8    0.55    0.11
  -4  -6   8    0.79    0.20
   3   6  -8   34.86    2.17
   3   6  -8   36.40    3.54
   3   6  -8   35.86    2.64
   3   6  -8   35.87    2.57
  -3  -6   8   34.19    2.45
  -3  -6   8   32.75    2.52
   2   6  -8    0.06    0.43
   2   6  -8    0.52    0.19
   2   6  -8    0.08    0.93
   1   6  -8   11.53    1.52
   1   6  -8   10.44    0.85
   1   6  -8   10.41    1.28
   0   6  -8    3.70    0.89
   0  -6   8    3.88    0.42
  -1   6  -8    1.21    0.62
  -1   6  -8    1.30    0.61
   1  -6   8    0.39    0.07
   1  -6   8    0.50    0.18
  -2   6  -8    0.93    0.61
  -2   6  -8    0.62    0.50
   2  -6   8    0.29    0.15
   2  -6   8    0.21    0.07
  -3   6  -8   53.82    5.08
  -3   6  -8   51.82    5.31
   3  -6   8   62.78    4.72
   3  -6   8   61.48    4.18
  -4   6  -8    1.88    0.52
  -4   6  -8    1.76    0.62
  -4   6  -8    2.96    0.78
   4  -6   8    1.75    0.28
   4  -6   8    1.68    0.22
  -5   6  -8    2.59    0.70
  -5   6  -8    2.49    0.55
   5  -6   8    2.09    0.32
   5  -6   8    2.16    0.26
  -6   6  -8   46.47    3.31
  -6   6  -8   53.83    3.93
  -6   6  -8   54.94    4.99
  -6   6  -8   57.84    3.34
  -7   6  -8    0.43    0.21
  -7   6  -8    0.41    0.09
  -7   6  -8    0.67    0.34
   7  -6   8    0.35    0.16
  -8   6  -8    9.77    0.64
  -8   6  -8    9.28    0.72
  -8   6  -8    9.86    0.87
  -9   6  -8    0.11    0.29
  -9   6  -8    0.30    0.22
   9  -6   8    0.19    0.13
 -10   6  -8    3.02    0.43
 -10   6  -8    2.63    0.35
 -11   6  -8    2.61    0.38
   7   5  -8    6.42    0.85
  -7  -5   8    6.62    0.38
   6   5  -8    4.11    0.73
   5   5  -8   11.44    0.86
   5   5  -8   10.41    1.31
   5   5  -8   10.29    0.84
  -5  -5   8    9.72    0.82
   4   5  -8   44.90    4.22
   4   5  -8   43.59    3.15
   4   5  -8   42.06    3.23
  -4  -5   8   41.98    2.97
  -4  -5   8   42.90    3.07
  -4  -5   8   43.03    3.49
   3   5  -8    4.18    0.38
   3   5  -8    2.58    1.09
  -3  -5   8    2.83    0.34
  -3  -5   8    3.73    0.53
   2   5  -8    0.46    0.17
   2   5  -8    0.49    0.85
   2   5  -8    0.79    0.46
  -2  -5   8    0.77    0.33
   1   5  -8  136.24   12.68
   1   5  -8  134.55   10.21
  -1  -5   8  157.21   11.27
   0   5  -8    3.16    0.71
   0   5  -8    2.87    0.27
   0   5  -8    1.91    0.73
   0  -5   8    2.01    0.29
   0  -5   8    2.57    0.52
  -1   5  -8    9.93    1.39
  -1   5  -8    9.88    1.35
   1  -5   8   12.21    1.20
   1  -5   8   13.57    1.02
   1  -5   8   11.34    0.86
  -2   5  -8    1.76    0.60
  -2   5  -8    1.95    0.62
   2  -5   8    1.50    0.15
   2  -5   8    1.28    0.51
   2  -5   8    1.78    0.26
  -3   5  -8    0.48    0.40
  -3   5  -8    0.53    0.57
   3  -5   8    0.41    0.53
   3  -5   8    0.23    0.15
   3  -5   8    0.25    0.11
  -4   5  -8    0.29    0.53
  -4   5  -8   -0.01    0.33
  -4   5  -8    0.00    0.44
   4  -5   8    0.08    0.15
   4  -5   8    0.09    0.13
   4  -5   8    0.04    0.44
  -5   5  -8    2.42    0.58
  -5   5  -8    4.16    0.83
   5  -5   8    2.18    0.27
   5  -5   8    2.66    0.48
   5  -5   8    2.08    0.32
  -6   5  -8    0.76    0.77
  -6   5  -8    1.34    0.45
  -6   5  -8    0.92    0.50
   6  -5   8    1.27    0.25
   6  -5   8    0.83    0.18
   6  -5   8    1.32    0.40
  -7   5  -8   66.14    4.88
  -7   5  -8   63.02    4.16
  -7   5  -8   70.59    4.15
   7  -5   8   67.10    5.32
  -8   5  -8   50.70    3.67
  -8   5  -8   50.25    3.12
  -8   5  -8   49.52    3.11
   8  -5   8   48.43    4.00
  -9   5  -8    2.51    0.41
  -9   5  -8    2.33    0.29
 -10   5  -8    0.35    0.27
 -10   5  -8    0.27    0.19
 -11   5  -8    0.77    0.26
   8   4  -8    2.15    0.42
  -8  -4   8    1.72    0.11
   7   4  -8    0.13    0.39
  -7  -4   8    0.22    0.03
   6   4  -8   44.84    4.85
  -6  -4   8   49.68    3.36
   5   4  -8    5.28    0.49
   4   4  -8    6.94    0.56
  -4  -4   8    6.20    0.54
  -4  -4   8    6.72    0.71
  -4  -4   8    5.65    0.46
   3   4  -8   80.54    7.92
   3   4  -8   87.60    7.54
   3   4  -8   91.43    6.31
  -3  -4   8   90.06    6.97
   2   4  -8   59.83    5.52
   2   4  -8   59.33    5.82
   2   4  -8   69.93    4.60
  -2  -4   8   64.70    5.10
   1   4  -8   10.69    1.26
   1   4  -8   12.24    1.54
   1   4  -8   11.73    0.92
  -1  -4   8   13.45    1.14
   0   4  -8   81.18    8.05
   0  -4   8   98.19    7.28
   0  -4   8   91.09    7.19
  -1   4  -8   19.04    2.00
   1  -4   8   21.01    1.80
   1  -4   8   21.49    1.66
   1  -4   8   18.33    1.44
  -2   4  -8   16.57    1.93
  -2   4  -8   15.80    1.94
   2  -4   8   19.08    1.76
   2  -4   8   21.43    1.42
   2  -4   8   21.59    1.63
  -3   4  -8   21.20    2.20
  -3   4  -8   22.33    2.28
  -3   4  -8   21.09    2.12
   3  -4   8   24.10    1.92
   3  -4   8   21.20    1.97
   3  -4   8   26.61    1.70
  -4   4  -8   30.10    3.05
  -4   4  -8   34.87    2.98
  -4   4  -8   35.04    3.24
   4  -4   8   33.66    2.78
   4  -4   8   35.86    2.80
  -5   4  -8    8.71    0.89
   5  -4   8    5.37    0.61
   5  -4   8    6.30    0.53
   5  -4   8    7.69    0.72
  -6   4  -8    3.82    0.95
  -6   4  -8    3.45    0.64
  -6   4  -8    3.66    0.64
   6  -4   8    2.89    0.31
   6  -4   8    3.54    0.50
   6  -4   8    2.71    0.40
  -7   4  -8   46.93    3.02
   7  -4   8   52.92    3.51
   7  -4   8   45.07    3.89
  -8   4  -8    4.76    0.36
  -8   4  -8    3.69    0.27
  -8   4  -8    4.14    0.34
  -8   4  -8    4.13    0.50
   8  -4   8    3.41    0.37
   8  -4   8    3.88    0.63
  -9   4  -8   18.44    1.23
  -9   4  -8   19.37    1.48
  -9   4  -8   18.70    1.31
 -10   4  -8    0.04    0.09
 -10   4  -8    0.13    0.16
 -10   4  -8    0.12    0.26
  10  -4   8    0.08    0.12
 -11   4  -8   15.52    1.24
 -11   4  -8   16.65    1.04
 -11   4  -8   15.20    1.09
   8   3  -8    5.36    0.71
  -8  -3   8    5.68    0.41
  -8  -3   8    5.42    0.32
   7   3  -8    4.37    0.74
  -7  -3   8    3.74    0.30
  -7  -3   8    3.24    0.21
   6   3  -8    1.64    0.50
  -6  -3   8    0.88    0.19
  -6  -3   8    0.77    0.16
  -6  -3   8    0.91    0.07
   4   3  -8    5.95    0.50
   4   3  -8    5.63    0.34
  -4  -3   8    5.74    0.67
  -4  -3   8    5.35    0.50
   3   3  -8    0.38    0.15
   3   3  -8    0.55    0.56
  -3  -3   8    0.53    0.33
   2   3  -8    9.37    0.70
   2   3  -8    7.89    1.32
   2   3  -8    8.85    1.12
  -2  -3   8    8.38    0.91
   1   3  -8    0.63    0.13
   1   3  -8    0.33    0.68
   1   3  -8    0.66    0.43
  -1  -3   8    0.68    0.38
   0   3  -8    3.35    0.58
   0   3  -8    2.52    0.21
   0   3  -8    3.06    0.68
   0  -3   8    2.97    0.57
  -1   3  -8   10.45    0.76
  -1   3  -8   12.52    1.24
  -1   3  -8    9.66    1.30
   1  -3   8   12.24    0.97
   1  -3   8   11.59    1.18
  -2   3  -8    5.19    0.40
  -2   3  -8    5.45    0.83
  -2   3  -8    4.79    0.90
   2  -3   8    6.52    0.45
   2  -3   8    5.12    0.82
   2  -3   8    6.02    0.54
  -3   3  -8    4.22    0.69
  -3   3  -8    3.89    0.69
   3  -3   8    2.38    0.25
   3  -3   8    2.11    0.47
   3  -3   8    2.02    0.29
  -4   3  -8   25.03    2.33
  -4   3  -8   22.89    2.11
  -4   3  -8   19.09    2.18
   4  -3   8   23.08    1.99
   4  -3   8   23.43    1.97
   4  -3   8   27.50    1.75
  -5   3  -8   22.48    2.05
  -5   3  -8   24.45    2.29
   5  -3   8   21.13    1.92
   5  -3   8   23.02    1.91
   5  -3   8   23.44    1.68
  -6   3  -8    1.90    0.48
  -6   3  -8    1.85    0.50
   6  -3   8    2.07    0.24
   6  -3   8    2.56    0.45
   7  -3   8   61.70    4.41
   7  -3   8   60.20    4.89
  -8   3  -8   15.91    1.08
  -8   3  -8   15.85    1.18
  -8   3  -8   14.69    1.32
   8  -3   8   18.31    1.52
   8  -3   8   18.77    1.26
  -9   3  -8   27.58    1.78
  -9   3  -8   27.68    2.12
  -9   3  -8   28.92    1.94
 -10   3  -8    1.80    0.24
 -10   3  -8    1.91    0.20
 -10   3  -8    2.12    0.36
 -11   3  -8    0.41    0.11
 -11   3  -8    0.36    0.15
 -11   3  -8    0.70    0.26
   8   2  -8   17.69    1.93
  -8  -2   8   17.88    1.02
  -8  -2   8   18.63    1.26
   7   2  -8    0.51    0.41
  -7  -2   8    0.35    0.12
  -7  -2   8    0.41    0.05
  -6  -2   8    0.20    0.15
  -6  -2   8    0.28    0.04
  -6  -2   8    0.44    0.14
   4   2  -8   65.78    4.44
  -4  -2   8   62.84    4.93
  -4  -2   8   55.89    4.33
   3   2  -8    0.81    0.59
   3   2  -8    1.20    0.19
  -3  -2   8    1.50    0.37
   2   2  -8    2.57    0.26
   2   2  -8    2.34    0.66
  -2  -2   8    2.63    0.45
   1   2  -8   17.85    1.79
   1   2  -8   17.68    1.20
   1   2  -8   19.70    1.35
  -1  -2   8   17.81    1.58
   0   2  -8   19.07    1.59
   0   2  -8   14.94    1.62
   0   2  -8   15.70    1.05
   0  -2   8   14.97    1.48
  -1   2  -8   13.71    0.94
  -1   2  -8   16.16    1.46
  -1   2  -8   12.74    1.51
   1  -2   8   14.65    1.38
  -2   2  -8    1.70    0.58
  -2   2  -8    1.47    0.14
  -2   2  -8    1.36    0.49
   2  -2   8    1.56    0.23
   2  -2   8    2.03    0.54
  -3   2  -8    4.61    0.72
  -3   2  -8    3.42    0.27
  -3   2  -8    2.91    0.66
  -3   2  -8    3.93    0.62
   3  -2   8    3.86    0.33
   3  -2   8    4.28    0.57
   3  -2   8    3.62    0.38
  -4   2  -8    2.32    0.55
  -4   2  -8    2.96    0.61
  -4   2  -8    2.84    0.51
  -4   2  -8    2.85    0.21
   4  -2   8    2.63    0.27
   4  -2   8    2.91    0.45
   4  -2   8    2.50    0.34
  -5   2  -8   15.88    1.65
  -5   2  -8   15.66    1.78
  -5   2  -8   16.79    1.56
   5  -2   8   17.95    1.26
   5  -2   8   17.78    1.47
  -6   2  -8   27.92    2.67
   6  -2   8   31.75    2.57
   6  -2   8   33.28    2.28
  -7   2  -8    3.16    0.66
  -7   2  -8    3.52    0.59
   7  -2   8    4.23    0.66
   7  -2   8    3.80    0.36
  -8   2  -8   58.27    4.88
  -8   2  -8   65.01    4.15
   8  -2   8   72.35    5.39
   8  -2   8   73.00    4.86
  -9   2  -8    2.34    0.25
  -9   2  -8    2.32    0.37
  -9   2  -8    3.20    0.27
   9  -2   8    2.55    0.31
 -10   2  -8    0.49    0.08
 -10   2  -8    0.50    0.27
 -10   2  -8    0.47    0.14
 -10   2  -8    0.64    0.13
  10  -2   8    0.22    0.14
 -11   2  -8    0.68    0.15
 -11   2  -8    0.87    0.27
 -11   2  -8    0.84    0.13
 -12   2  -8    8.54    0.70
   8   1  -8   11.04    1.23
  -8  -1   8   10.91    0.77
  -8  -1   8   10.44    0.61
  -7  -1   8   12.34    0.76
  -7  -1   8   14.09    0.89
  -7  -1   8   13.60    0.96
   6   1  -8    1.09    0.19
  -6  -1   8    0.80    0.16
  -6  -1   8    0.51    0.16
  -6  -1   8    0.56    0.06
  -5  -1   8    0.20    0.29
   4   1  -8   12.39    1.60
  -4  -1   8   13.74    1.21
   3   1  -8   36.68    3.45
  -3  -1   8   37.80    3.04
   2   1  -8    1.86    0.62
  -2  -1   8    1.96    0.39
  -2  -1   8    2.45    0.47
   1   1  -8   14.26    0.95
   1   1  -8   14.40    1.51
  -1  -1   8   14.48    1.30
  -1  -1   8   14.37    1.61
  -1  -1   8   15.53    1.74
   0   1  -8   31.20    1.88
   0  -1   8   27.99    3.39
   0  -1   8   26.71    3.08
   0  -1   8   29.40    2.47
  -1   1  -8   92.78    5.82
   1  -1   8   90.80    9.17
   1  -1   8   90.32    9.56
   1  -1   8   89.76    7.24
  -2   1  -8  229.42   19.01
  -2   1  -8  253.55   14.51
   2  -1   8  200.18   22.42
   2  -1   8  203.98   23.12
   2  -1   8  248.36   17.88
   3  -1   8   19.06    2.85
   3  -1   8   22.36    3.22
  -4   1  -8    0.39    0.35
  -4   1  -8    0.67    0.32
  -4   1  -8    0.53    0.39
  -4   1  -8    1.10    0.10
   4  -1   8    0.51    0.33
   4  -1   8    2.83    1.22
  -5   1  -8   62.64    5.34
  -5   1  -8   62.03    4.16
   5  -1   8   65.48    4.68
   5  -1   8   69.53    5.15
  -7   1  -8    0.56    0.34
  -7   1  -8    0.62    0.41
   7  -1   8    2.79    1.20
   7  -1   8    0.82    0.44
   7  -1   8    0.46    0.18
  -8   1  -8    0.46    0.10
  -8   1  -8    0.58    0.25
   8  -1   8    0.51    0.19
   8  -1   8    1.83    0.51
   8  -1   8    0.59    1.33
  -9   1  -8    0.58    0.12
  -9   1  -8    0.46    0.09
   9  -1   8    0.57    0.20
   9  -1   8    1.35    0.50
 -10   1  -8    1.20    0.28
 -10   1  -8    0.58    0.13
  10  -1   8    0.17    0.15
 -11   1  -8   11.98    0.88
 -11   1  -8   12.78    0.81
 -11   1  -8   12.68    1.00
 -12   1  -8    0.01    0.07
 -12   1  -8    0.08    0.17
  -9   0   8    3.77    0.28
   8   0  -8    0.62    0.33
  -8   0   8    0.43    0.07
  -8   0   8    0.57    0.11
  -8   0   8    0.37    0.04
   7   0  -8    0.33    0.25
   7   0  -8    0.13    0.08
  -7   0   8    0.06    0.06
  -7   0   8    0.04    0.11
  -7   0   8    0.11    0.03
   6   0  -8   21.84    1.57
   6   0  -8   21.21    1.12
  -6   0   8   21.35    1.40
  -6   0   8   21.56    1.49
  -6   0   8   19.37    1.19
  -5   0   8   29.81    1.89
  -5   0   8   36.23    2.77
  -5   0   8   37.11    3.51
  -5   0   8   31.86    2.33
   4   0  -8    6.43    0.50
   4   0  -8    7.39    1.16
  -4   0   8    5.97    0.69
  -4   0   8    5.60    0.84
   3   0  -8   66.25    4.87
   3   0  -8   76.52    5.98
  -3   0   8   68.88    5.40
  -3   0   8   61.11    6.92
   2   0  -8   93.31    6.74
  -2   0   8   92.51    9.56
  -2   0   8   96.08    7.44
   1   0  -8    2.92    0.61
   1   0  -8    1.47    0.13
  -1   0   8    2.69    0.56
  -1   0   8    2.13    0.56
  -1   0   8    2.27    0.41
   0   0  -8   32.01    1.94
   0   0   8   30.04    2.52
   0   0   8   28.69    3.61
   0   0   8   28.45    3.24
  -1   0  -8   34.20    2.16
   1   0   8   33.72    3.83
   1   0   8   32.38    2.80
   1   0   8   34.45    4.31
  -2   0  -8   11.72    0.73
   2   0   8   12.77    2.08
   2   0   8    8.67    1.12
   2   0   8   12.23    2.17
  -3   0  -8   42.28    3.80
  -3   0  -8   46.25    3.93
   3   0   8   39.38    4.79
  -4   0  -8    4.77    0.38
   4   0   8    6.58    0.67
   4   0   8    5.90    0.45
  -5   0  -8  114.31    8.55
   5   0   8   88.49    7.23
  -7   0  -8   10.24    1.07
   7   0   8   13.05    1.90
   7   0   8   10.68    1.08
   8   0   8  120.54   13.64
   8   0   8  145.22   10.51
  -9   0  -8   17.16    1.17
  -9   0  -8   19.46    1.23
   9   0   8   18.84    1.39
 -10   0  -8    1.41    0.14
 -10   0  -8    0.96    0.15
 -10   0  -8    1.51    0.19
 -11   0  -8    2.74    0.25
 -11   0  -8    2.75    0.24
 -12   0  -8    2.43    0.21
  -9   1   8    0.16    0.07
  -8   1   8    2.63    0.24
  -8   1   8    2.62    0.16
  -8   1   8    2.52    0.20
   7  -1  -8    4.28    0.26
   7  -1  -8    4.29    0.43
  -7   1   8    4.22    0.26
  -7   1   8    4.50    0.37
  -7   1   8    4.16    0.32
   6  -1  -8    8.22    0.43
   6  -1  -8    8.73    0.65
  -6   1   8    7.65    0.58
  -6   1   8    7.51    0.45
  -6   1   8    8.15    0.55
  -6   1   8    7.89    0.61
  -6   1   8    7.09    0.70
  -5   1   8    7.15    0.61
  -5   1   8    7.78    0.81
  -5   1   8    9.10    0.59
  -5   1   8    7.59    0.72
   4  -1  -8    0.98    0.70
   4  -1  -8    1.69    0.19
  -4   1   8    1.61    0.15
  -4   1   8    1.61    0.43
  -4   1   8    1.34    0.35
   3  -1  -8   13.74    1.43
   3  -1  -8   10.37    0.79
  -3   1   8   10.14    1.28
  -3   1   8   10.39    0.99
   2  -1  -8    1.26    0.13
   2  -1  -8    1.42    0.58
  -2   1   8    1.71    0.36
  -2   1   8    1.72    0.46
   1  -1  -8    0.44    0.43
  -1   1   8    0.15    0.34
  -1   1   8    0.52    0.51
  -1   1   8    0.26    0.51
   0  -1  -8   28.07    2.25
   0  -1  -8   23.19    1.59
   0   1   8   23.90    2.09
   0   1   8   22.99    3.26
   0   1   8   25.34    2.80
  -1  -1  -8   51.82    3.30
   1   1   8   56.99    5.51
   1   1   8   45.79    4.13
   1   1   8   53.17    5.89
  -2  -1  -8   92.87    5.35
  -2  -1  -8   79.28    7.13
   2   1   8   77.87    6.64
  -3  -1  -8   28.82    1.60
  -3  -1  -8   21.26    2.26
   3   1   8   26.21    2.06
   3   1   8   19.07    3.55
   3   1   8   20.68    3.23
  -4  -1  -8    0.24    0.05
  -4  -1  -8    0.25    0.33
   4   1   8    0.15    0.13
   4   1   8    0.87    1.27
   4   1   8    0.26    0.31
   4   1   8    0.33    1.12
  -5  -1  -8   97.55    7.76
  -5  -1  -8   84.93    8.07
   5   1   8  100.90    7.53
   5   1   8   97.77    6.87
  -6  -1  -8   19.53    1.67
  -6  -1  -8   16.41    1.81
   6   1   8   18.78    2.68
   6   1   8   19.70    1.40
   6   1   8   19.38    1.61
  -7  -1  -8    5.90    0.68
  -7  -1  -8    4.53    0.78
   7   1   8    6.35    0.50
   7   1   8    6.42    0.76
   7   1   8    4.46    1.40
  -8  -1  -8    3.25    0.25
  -8  -1  -8    4.12    0.42
   8   1   8    4.20    0.69
   8   1   8    3.89    0.37
   8   1   8    1.72    1.39
  -9  -1  -8    3.83    0.29
  -9  -1  -8    3.56    0.33
  -9  -1  -8    3.44    0.43
  -9  -1  -8    3.52    0.27
   9   1   8    4.40    0.69
   9   1   8    4.11    0.38
 -10  -1  -8    1.38    0.14
 -10  -1  -8    0.95    0.14
 -10  -1  -8    1.57    0.19
 -10  -1  -8    1.20    0.27
 -11  -1  -8    2.57    0.33
 -11  -1  -8    2.37    0.21
 -12  -1  -8    0.23    0.08
 -12  -1  -8    0.08    0.16
  -9   2   8   16.58    1.09
  -9   2   8   15.35    1.04
  -9   2   8   15.82    0.90
   8  -2  -8    5.09    0.32
  -8   2   8    5.90    0.32
  -8   2   8    5.54    0.39
  -8   2   8    5.83    0.43
   7  -2  -8   -0.01    0.19
   7  -2  -8    0.03    0.05
  -7   2   8    0.06    0.07
  -7   2   8    0.05    0.05
  -7   2   8    0.08    0.11
  -7   2   8    0.08    0.03
   6  -2  -8    4.40    0.37
  -6   2   8    4.07    0.30
  -6   2   8    3.85    0.35
  -6   2   8    3.71    0.30
  -6   2   8    3.59    0.37
  -6   2   8    3.83    0.23
  -5   2   8    3.98    0.34
  -5   2   8    3.23    0.21
  -5   2   8    3.65    0.28
  -5   2   8    3.45    0.35
  -5   2   8    3.28    0.49
  -5   2   8    3.69    0.29
   4  -2  -8   20.01    1.38
   4  -2  -8   19.30    1.81
   4  -2  -8   19.28    2.04
  -4   2   8   18.84    2.09
  -4   2   8   19.13    1.61
  -4   2   8   18.04    1.35
  -4   2   8   18.32    1.64
   3  -2  -8   13.74    1.02
   3  -2  -8   14.63    1.34
   3  -2  -8   13.95    1.58
  -3   2   8   14.96    1.24
  -3   2   8   13.96    1.23
  -3   2   8   13.00    1.01
  -3   2   8   14.78    1.64
   2  -2  -8   30.11    2.18
   2  -2  -8   30.87    2.80
  -2   2   8   30.49    3.23
  -2   2   8   29.99    2.47
  -2   2   8   30.06    2.14
   1  -2  -8   17.57    1.77
   1  -2  -8   18.62    1.34
   1  -2  -8   18.14    1.20
  -1   2   8   19.76    1.59
  -1   2   8   18.57    2.23
  -1   2   8   18.12    2.06
   0  -2  -8   13.09    1.13
   0  -2  -8    9.98    0.70
   0   2   8    9.93    1.03
   0   2   8   10.13    1.65
  -1  -2  -8    7.38    1.13
  -1  -2  -8   10.50    0.65
   1   2   8    9.55    1.02
   1   2   8   12.62    2.09
   1   2   8   10.65    1.88
  -2  -2  -8    5.05    0.78
   2   2   8    4.02    1.86
   2   2   8    5.08    0.76
   2   2   8    3.52    1.61
  -3  -2  -8   11.15    1.17
   3   2   8   11.43    2.13
   3   2   8    7.01    1.90
   3   2   8   11.79    1.01
  -4  -2  -8    2.47    0.52
  -4  -2  -8    2.65    0.20
   4   2   8    2.64    0.40
   4   2   8    1.37    1.22
   4   2   8    4.44    1.43
   5   2   8   44.90    5.52
   5   2   8   62.39    5.83
  -9  -2  -8    4.52    0.49
  -9  -2  -8    5.35    0.37
  -9  -2  -8    5.08    0.35
  -9  -2  -8    4.87    0.41
   9   2   8    5.09    0.46
   9   2   8    4.68    0.71
 -10  -2  -8    4.21    0.31
 -10  -2  -8    4.26    0.30
 -10  -2  -8    3.84    0.43
 -10  -2  -8    4.09    0.35
 -11  -2  -8    9.25    0.74
 -11  -2  -8    7.90    0.64
 -11  -2  -8    9.68    0.58
 -12  -2  -8    2.14    0.26
  12   2   8    1.70    0.38
  -9   3   8    8.89    0.59
  -8   3   8    0.49    0.05
  -8   3   8    0.52    0.08
  -8   3   8    0.52    0.11
   7  -3  -8    0.36    0.17
  -7   3   8    0.30    0.07
  -7   3   8    0.26    0.08
  -7   3   8    0.25    0.12
  -7   3   8    0.44    0.05
   6  -3  -8   44.49    2.88
  -6   3   8   36.09    3.39
  -6   3   8   37.45    2.80
  -6   3   8   41.75    2.74
  -6   3   8   38.95    2.60
  -6   3   8   39.15    2.23
  -5   3   8    2.13    0.37
  -5   3   8    2.21    0.20
  -5   3   8    1.98    0.25
  -5   3   8    2.00    0.14
  -5   3   8    1.91    0.24
  -5   3   8    2.02    0.18
   4  -3  -8   15.55    1.07
   4  -3  -8   14.24    1.41
  -4   3   8   13.86    1.64
  -4   3   8   15.63    1.29
  -4   3   8   14.02    1.27
  -4   3   8   14.11    1.05
   3  -3  -8   41.32    3.79
   3  -3  -8   43.58    3.03
  -3   3   8   38.57    4.37
  -3   3   8   40.23    2.97
  -3   3   8   43.17    3.61
  -3   3   8   45.50    3.40
   2  -3  -8    0.55    0.08
   2  -3  -8    0.59    0.07
  -2   3   8    0.55    0.08
  -2   3   8    0.61    0.11
  -2   3   8    0.47    0.42
  -2   3   8    0.73    0.27
   1  -3  -8    2.22    0.18
   1  -3  -8    2.10    0.17
  -1   3   8    4.26    0.78
  -1   3   8    3.07    0.72
  -1   3   8    2.36    0.19
  -1   3   8    2.85    0.42
   0  -3  -8    3.07    0.24
   0   3   8    5.41    1.28
   0   3   8    4.23    0.52
  -1  -3  -8  152.35    8.83
   1   3   8  132.95   13.79
   1   3   8  129.98   14.29
   1   3   8  136.35   10.89
   2   3   8   19.87    3.61
   2   3   8   21.96    3.03
   2   3   8   23.99    1.93
   3   3   8   -0.09    1.60
   3   3   8   -1.73    1.40
   3   3   8    0.48    0.36
  -4  -3  -8   45.13    2.80
   4   3   8   49.29    4.85
   4   3   8   38.44    3.48
   6   3   8    4.27    1.34
   6   3   8    0.60    0.34
  -8  -3  -8    3.17    0.23
  -8  -3  -8    3.32    0.38
  -8  -3  -8    3.24    0.31
   8   3   8    3.90    0.59
   8   3   8    3.09    0.35
  -9  -3  -8   20.89    1.32
  -9  -3  -8   19.81    1.24
  -9  -3  -8   19.23    1.51
  -9  -3  -8   19.23    1.39
 -10  -3  -8    2.28    0.22
 -10  -3  -8    1.94    0.31
 -10  -3  -8    2.11    0.17
 -10  -3  -8    2.11    0.18
 -11  -3  -8    1.85    0.27
 -11  -3  -8    2.14    0.16
 -11  -3  -8    1.68    0.19
 -12  -3  -8    5.37    0.44
  12   3   8    4.55    0.57
   8  -4  -8    0.27    0.05
  -8   4   8    0.23    0.06
  -8   4   8    0.34    0.04
  -8   4   8    0.20    0.08
   7  -4  -8    3.21    0.30
  -7   4   8    3.17    0.25
  -7   4   8    3.23    0.20
  -7   4   8    3.29    0.29
   6  -4  -8    2.44    0.23
  -6   4   8    2.35    0.20
  -6   4   8    2.31    0.25
  -6   4   8    2.21    0.14
  -6   4   8    1.87    0.19
  -6   4   8    2.13    0.24
   5  -4  -8   78.73    5.13
  -5   4   8   71.36    4.65
  -5   4   8   66.62    5.03
  -5   4   8   67.51    4.01
  -5   4   8   74.65    4.88
  -5   4   8   69.41    6.10
   4  -4  -8    0.30    0.07
  -4   4   8    0.40    0.08
  -4   4   8    0.17    0.31
  -4   4   8    0.10    0.09
   3  -4  -8    1.95    0.15
  -3   4   8    1.40    0.16
   2  -4  -8  172.67   11.97
   2  -4  -8  151.37   10.66
  -2   4   8  169.19   16.92
  -2   4   8  176.89   14.24
  -2   4   8  165.74   11.74
   1  -4  -8   56.43    3.89
   1  -4  -8   64.52    4.36
  -1   4   8   62.11    5.20
  -1   4   8   57.59    6.10
  -1   4   8   61.07    6.31
  -1   4   8   62.41    4.28
   0  -4  -8    8.09    0.61
   0  -4  -8    7.95    0.55
   0   4   8    9.05    1.40
   0   4   8    8.81    0.61
  -1  -4  -8   88.49    5.45
   1   4   8   85.03    8.68
   1   4   8   85.91    9.05
   1   4   8   81.96    6.00
   2   4   8    0.52    1.65
   2   4   8    1.02    1.38
   3   4   8   -0.02    1.64
   3   4   8   -0.28    1.42
  -4  -4  -8    7.64    0.51
   4   4   8    5.01    1.65
   4   4   8   10.94    1.93
   5   4   8   11.18    2.06
   6   4   8   21.91    3.27
   7   4   8   44.98    5.28
  -8  -4  -8   24.67    1.67
  -8  -4  -8   24.72    1.58
  -8  -4  -8   22.57    1.49
  -9  -4  -8   34.34    2.41
  -9  -4  -8   36.52    2.17
  -9  -4  -8   34.62    2.59
  -9  -4  -8   34.71    2.30
 -10  -4  -8   13.08    1.07
 -10  -4  -8   15.10    0.87
 -10  -4  -8   12.96    0.97
 -11  -4  -8    3.27    0.31
 -11  -4  -8    4.03    0.39
 -11  -4  -8    4.77    0.28
  12   4   8    0.10    0.28
  -8   5   8    0.07    0.05
  -8   5   8    0.04    0.07
  -8   5   8    0.05    0.03
   7  -5  -8    7.08    0.57
  -7   5   8    7.31    0.50
  -7   5   8    7.22    0.54
  -7   5   8    7.39    0.42
   6  -5  -8    3.13    0.26
  -6   5   8    2.50    0.24
  -6   5   8    3.19    0.24
  -6   5   8    3.16    0.18
  -6   5   8    2.88    0.28
  -6   5   8    2.75    0.29
   5  -5  -8   49.64    3.38
  -5   5   8   48.41    4.03
  -5   5   8   46.39    3.08
  -5   5   8   46.13    2.65
  -5   5   8   44.92    3.32
  -5   5   8   46.29    3.23
   4  -5  -8    9.25    0.65
  -4   5   8    8.42    0.65
  -4   5   8    8.54    1.09
  -4   5   8    8.87    0.79
   3  -5  -8    9.24    0.66
  -3   5   8    8.69    0.66
  -3   5   8    9.07    0.81
  -3   5   8    8.50    1.14
   2  -5  -8    0.95    0.11
   2  -5  -8    1.29    0.11
  -2   5   8    0.81    0.12
  -2   5   8    1.29    0.20
  -2   5   8    2.21    0.52
   1  -5  -8   21.92    1.45
   1  -5  -8   24.04    1.61
  -1   5   8   21.66    1.94
  -1   5   8   21.74    1.59
  -1   5   8   21.95    2.55
   0  -5  -8    0.83    0.08
   0  -5  -8    0.90    0.09
   0   5   8    2.15    1.04
   0   5   8    0.86    0.10
   0   5   8    1.01    0.20
   0   5   8    2.45    0.88
  -1  -5  -8   41.37    3.05
  -1  -5  -8   45.98    2.73
   1   5   8   39.29    3.67
   1   5   8   42.82    4.56
   1   5   8   41.89    3.00
   1   5   8   44.24    4.98
  -2  -5  -8    1.15    0.30
  -2  -5  -8    0.13    0.04
   2   5   8    0.18    1.62
   2   5   8    0.23    1.33
  -3  -5  -8   13.92    0.86
  -3  -5  -8   12.03    1.06
   3   5   8   13.10    2.38
   4   5   8    1.88    0.60
   4   5   8    0.73    1.64
   5   5   8   10.16    1.28
   5   5   8    8.42    2.02
  -7  -5  -8    9.12    0.59
   7   5   8   10.52    1.51
  -8  -5  -8   10.97    0.71
   8   5   8   12.35    2.18
  -9  -5  -8    3.99    0.27
 -10  -5  -8   24.59    2.00
 -10  -5  -8   29.29    1.68
 -11  -5  -8    3.18    0.34
 -11  -5  -8    3.84    0.25
  11   5   8    3.09    0.51
  -8   6   8    0.64    0.05
  -8   6   8    0.62    0.08
  -7   6   8    3.01    0.18
  -7   6   8    2.95    0.23
   6  -6  -8   11.80    0.82
  -6   6   8   10.79    0.64
  -6   6   8   10.75    0.98
  -6   6   8   11.08    0.76
  -5   6   8    0.98    0.09
  -5   6   8    1.24    0.18
   4  -6  -8   20.54    1.36
  -4   6   8   18.83    1.26
  -4   6   8   17.13    1.10
  -4   6   8   19.44    1.63
  -4   6   8   17.47    1.34
  -4   6   8   18.90    1.07
   3  -6  -8   41.66    2.82
  -3   6   8   37.49    2.78
  -3   6   8   36.07    4.09
  -3   6   8   41.13    3.37
   2  -6  -8   49.65    3.53
   2  -6  -8   59.42    3.94
  -2   6   8   56.24    5.69
  -2   6   8   53.17    3.88
  -2   6   8   56.26    4.71
   1  -6  -8    7.06    0.50
   1  -6  -8    6.70    0.47
  -1   6   8    6.66    0.51
  -1   6   8    6.66    0.66
  -1   6   8    7.07    1.16
   0  -6  -8    2.69    0.22
   0  -6  -8    2.89    0.22
   0   6   8    4.69    1.10
   0   6   8    2.92    0.24
   0   6   8    3.26    0.41
  -1  -6  -8    0.08    0.04
  -1  -6  -8    0.11    0.03
   1   6   8    0.03    0.05
   1   6   8    0.28    0.30
   1   6   8    0.30    1.22
  -2  -6  -8    1.45    0.35
  -2  -6  -8    1.71    0.14
   2   6   8    2.47    1.69
   4   6   8   17.05    3.41
  -5  -6  -8   66.41    5.22
   5   6   8   77.30    8.14
   5   6   8   77.69    6.40
   6   6   8    1.64    1.84
   6   6   8    2.54    0.77
  -7  -6  -8   30.15    1.77
   7   6   8   26.06    2.75
  -8  -6  -8   11.05    0.68
   8   6   8    9.32    2.15
   8   6   8   10.60    1.44
   9   6   8    0.40    1.24
  11   6   8    5.85    0.57
  11   6   8    3.87    1.11
  -8   7   8    2.95    0.21
  -7   7   8   15.70    0.88
  -7   7   8   15.50    1.03
   6  -7  -8   10.30    0.73
  -6   7   8    9.00    0.86
  -6   7   8    9.95    0.57
  -6   7   8   10.21    0.67
   5  -7  -8   30.89    2.11
  -5   7   8   27.18    2.52
  -5   7   8   28.31    2.08
  -5   7   8   30.20    1.66
  -5   7   8   29.81    1.93
   4  -7  -8    2.16    0.18
  -4   7   8    2.04    0.25
  -4   7   8    2.36    0.21
  -4   7   8    2.01    0.14
  -4   7   8    1.94    0.19
  -4   7   8    2.09    0.14
   3  -7  -8    0.21    0.05
  -3   7   8    0.13    0.10
  -3   7   8    0.47    0.32
  -3   7   8    0.16    0.07
   2  -7  -8   14.37    1.02
   2  -7  -8   16.76    1.13
  -2   7   8   15.11    1.12
  -2   7   8   15.32    1.78
  -2   7   8   15.85    1.37
   1  -7  -8   28.98    1.95
   1  -7  -8   31.74    2.16
  -1   7   8   30.02    2.14
  -1   7   8   30.67    3.26
  -1   7   8   28.98    2.60
   0   7   8    0.71    0.77
   1   7   8    0.67    1.12
  -2  -7  -8   26.36    2.40
  -2  -7  -8   35.76    2.06
   2   7   8   33.32    4.26
  -3  -7  -8    0.52    0.28
  -3  -7  -8    0.41    0.07
   3   7   8    0.61    1.79
  -4  -7  -8    4.91    0.52
   4   7   8    5.90    2.10
  -5  -7  -8   29.03    2.13
   5   7   8   28.90    2.78
  -6  -7  -8   44.45    3.24
  -6  -7  -8   44.95    2.78
  -6  -7  -8   48.06    2.81
   6   7   8   39.56    5.78
  -8  -7  -8    2.97    0.21
   8   7   8    3.42    0.82
   8   7   8    2.19    0.52
   9   7   8    6.67    1.16
 -11  -7  -8    3.75    0.23
  11   7   8    2.55    0.37
  -7   8   8    2.74    0.16
  -7   8   8    2.73    0.20
   6  -8  -8    1.31    0.14
  -6   8   8    1.53    0.14
  -6   8   8    1.55    0.10
   5  -8  -8    3.36    0.24
  -5   8   8    2.97    0.19
  -5   8   8    2.69    0.30
  -5   8   8    2.99    0.24
   4  -8  -8    6.82    0.44
  -4   8   8    4.95    0.54
  -4   8   8    5.71    0.36
  -4   8   8    5.13    0.42
  -4   8   8    6.74    0.45
  -4   8   8    5.84    0.35
   3  -8  -8   23.60    1.64
  -3   8   8   22.41    1.97
  -3   8   8   22.41    1.29
  -3   8   8   21.19    1.51
  -3   8   8   23.66    1.63
  -3   8   8   22.83    1.34
   2  -8  -8    3.57    0.28
  -2   8   8    3.62    0.30
  -2   8   8    3.19    0.38
  -2   8   8    4.86    0.75
   1  -8  -8    0.76    0.08
  -1   8   8    0.82    0.12
  -1   8   8    0.87    0.45
   0  -8  -8    0.96    0.09
   0  -8  -8    0.96    0.11
   0   8   8    0.81    0.12
   0   8   8    2.51    0.76
   0   8   8    1.55    0.25
  -1  -8  -8   10.60    0.80
  -1  -8  -8   11.06    0.73
   1   8   8   11.76    1.10
  -2  -8  -8    9.99    0.98
  -2  -8  -8   11.16    0.72
  -5  -8  -8   49.28    3.03
  -5  -8  -8   53.37    3.57
   5   8   8   44.74    4.45
   8   8   8    0.66    1.34
   8   8   8    0.56    0.73
  -7   9   8    3.28    0.19
  -6   9   8    5.56    0.32
   5  -9  -8    0.49    0.07
  -5   9   8    0.37    0.04
  -5   9   8    0.33    0.08
  -5   9   8    0.42    0.05
   4  -9  -8   24.55    1.72
  -4   9   8   24.23    1.35
  -4   9   8   23.52    1.39
  -4   9   8   23.41    1.70
  -4   9   8   23.09    2.05
   3  -9  -8   17.70    1.24
  -3   9   8   16.89    1.49
  -3   9   8   17.62    1.01
  -3   9   8   16.16    1.23
  -3   9   8   17.10    0.98
   2  -9  -8    4.82    0.35
  -2   9   8    4.75    0.37
  -2   9   8    4.73    0.29
  -2   9   8    4.39    0.46
  -2   9   8    4.29    0.29
   1  -9  -8    3.00    0.24
  -1   9   8    3.19    0.27
  -1   9   8    3.01    0.41
   0  -9  -8   19.62    1.35
   0  -9  -8   17.89    1.22
   0   9   8   20.28    1.35
   0   9   8   16.69    1.66
  -1  -9  -8    1.54    0.14
  -1  -9  -8    1.10    0.43
  -1  -9  -8    1.58    0.13
   1   9   8    1.75    0.35
  -3  -9  -8    0.53    0.32
  -3  -9  -8    0.44    0.08
   3   9   8    1.23    0.69
  -5  -9  -8   13.21    1.01
  -5  -9  -8   13.27    0.80
  -5  -9  -8   11.93    0.79
   5   9   8   10.41    1.66
  -7  -9  -8   16.78    1.21
  -7  -9  -8   16.44    1.02
   7   9   8   14.94    1.84
  -8  -9  -8    2.58    0.19
   8   9   8    4.31    0.79
  -6  10   8    2.94    0.17
  -5  10   8   10.07    0.63
  -5  10   8   11.38    0.61
   4 -10  -8    1.02    0.10
  -4  10   8    1.04    0.09
  -4  10   8    1.16    0.09
  -4  10   8    1.28    0.16
   3 -10  -8   68.94    4.91
  -3  10   8   62.13    5.85
  -3  10   8   70.48    4.83
  -3  10   8   71.15    3.85
  -3  10   8   69.67    3.99
   2 -10  -8   19.22    1.37
  -2  10   8   18.22    1.08
  -2  10   8   18.28    1.65
  -2  10   8   19.96    1.37
  -2  10   8   19.05    1.12
   1 -10  -8  263.11   18.18
  -1  10   8  253.51   14.76
  -1  10   8  265.12   17.84
  -1  10   8  237.68   14.25
  -1  10   8  250.66   21.63
   0 -10  -8    5.61    0.39
   0 -10  -8    6.67    0.45
   0  10   8    5.82    0.38
   0  10   8    5.97    0.65
   0  10   8    6.17    0.38
   0  10   8    5.84    0.36
  -1 -10  -8   33.43    2.97
  -1 -10  -8   42.39    2.83
  -1 -10  -8   38.45    2.45
   1  10   8   41.63    2.19
   1  10   8   41.17    3.42
   1  10   8   37.55    2.24
  -2 -10  -8   12.50    0.76
  -2 -10  -8   10.86    1.09
  -4 -10  -8   15.50    1.26
  -4 -10  -8   16.32    0.99
   4  10   8   14.16    1.79
  -5 -10  -8   17.01    1.10
  -5 -10  -8   18.92    1.11
  -5 -10  -8   16.99    1.35
   5  10   8   16.69    3.19
  -6 -10  -8   32.90    2.45
  -6 -10  -8   31.77    2.08
  -6 -10  -8   34.84    2.11
   6  10   8   30.34    4.75
   6  10   8   39.41    3.19
   7  10   8    2.59    0.75
   9  10   8    3.57    1.19
  -6  11   8    2.00    0.12
  -5  11   8    2.50    0.15
   4 -11  -8    0.58    0.07
  -4  11   8    0.70    0.06
  -4  11   8    0.64    0.06
   3 -11  -8    0.29    0.05
  -3  11   8    0.35    0.05
  -3  11   8    0.37    0.09
  -3  11   8    0.38    0.05
   2 -11  -8    4.61    0.34
  -2  11   8    4.24    0.28
  -2  11   8    4.76    0.29
  -2  11   8    4.55    0.43
   1 -11  -8    2.20    0.18
   1 -11  -8    1.90    0.50
  -1  11   8    2.34    0.27
  -1  11   8    2.17    0.16
  -1  11   8    2.23    0.16
   0 -11  -8    0.75    0.42
  -1 -11  -8   41.66    2.57
  -1 -11  -8   34.65    3.09
   1  11   8   41.78    5.32
   1  11   8   40.61    2.34
   1  11   8   44.07    2.28
   1  11   8   42.82    3.56
  -2 -11  -8   35.52    2.88
  -2 -11  -8   39.07    2.39
   2  11   8   39.67    3.35
   2  11   8   38.18    5.13
  -4 -11  -8   36.71    2.12
  -4 -11  -8   32.50    2.51
   4  11   8   31.80    3.10
   5  11   8    1.20    0.72
   5  11   8    2.68    1.60
  -6 -11  -8    6.46    0.43
  -6 -11  -8    6.76    0.43
   6  11   8    6.68    1.15
   7  11   8    3.13    1.43
  -8 -11  -8    5.35    0.35
  -9 -11  -8    2.97    0.20
   9  11   8    5.27    1.28
  -5  12   8    5.52    0.32
  -4  12   8   12.62    0.74
  -4  12   8   12.43    0.71
   3 -12  -8    1.51    0.13
  -3  12   8    1.50    0.11
  -3  12   8    1.47    0.11
   2 -12  -8    1.31    0.11
  -2  12   8    1.27    0.16
  -2  12   8    1.23    0.10
  -2  12   8    1.14    0.10
   1 -12  -8    1.21    0.12
  -1  12   8    1.37    0.11
  -1  12   8    1.46    0.19
  -1  12   8    1.46    0.12
   0 -12  -8    1.22    0.10
   0 -12  -8    2.06    0.46
   0 -12  -8    0.86    0.09
   0  12   8    1.01    0.12
   0  12   8    1.04    0.10
   0  12   8    1.39    0.20
   0  12   8    1.17    0.10
   0  12   8    0.92    0.74
  -1 -12  -8    7.45    0.88
  -1 -12  -8    9.03    0.59
   1  12   8   10.38    1.58
   1  12   8    9.80    0.88
   1  12   8    8.87    0.56
   1  12   8    9.83    0.54
  -2 -12  -8   10.19    1.02
  -2 -12  -8   12.08    0.74
   2  12   8   10.92    2.15
   2  12   8   11.08    0.70
   2  12   8   12.56    0.67
   2  12   8   11.88    1.10
  -3 -12  -8    0.74    0.27
  -3 -12  -8    1.03    0.10
   3  12   8    0.65    0.37
   3  12   8    2.53    1.34
  -4 -12  -8    5.78    0.37
   4  12   8    5.49    0.88
   4  12   8    4.01    1.64
  -5 -12  -8    5.03    0.34
  -5 -12  -8    5.58    0.34
   5  12   8    3.74    1.59
  -6 -12  -8    0.58    0.06
  -6 -12  -8    0.56    0.07
   6  12   8    1.26    1.35
   7  12   8    2.82    1.26
  -4  13   8    0.03    0.02
  -4  13   8    0.02    0.02
  -3  13   8   -0.01    0.03
  -3  13   8    0.06    0.03
  -2  13   8    1.93    0.13
  -2  13   8    2.04    0.13
   1 -13  -8    1.31    0.11
  -1  13   8    1.13    0.10
  -1  13   8    1.27    0.10
   0 -13  -8   66.64    4.41
   0  13   8   73.48    4.00
   0  13   8   71.55    8.79
   0  13   8   70.65    6.07
   0  13   8   72.69    4.14
  -1 -13  -8    0.25    0.05
   1  13   8    0.21    0.71
   1  13   8    0.35    0.15
   1  13   8    0.26    0.08
   1  13   8    0.26    0.06
  -2 -13  -8    2.79    0.19
   2  13   8    2.62    0.18
   2  13   8    2.64    0.40
   2  13   8    2.59    0.21
   2  13   8    2.69    0.98
  -3 -13  -8    6.91    0.37
  -3 -13  -8    7.83    0.45
   3  13   8    6.72    0.70
   3  13   8    6.98    1.66
   3  13   8    6.04    0.43
  -4 -13  -8   20.44    1.22
   4  13   8   19.82    2.89
   4  13   8   17.98    1.74
  -5 -13  -8    4.81    0.31
   6  13   8    0.76    1.10
  -7 -13  -8    0.24    0.04
   7  13   8    0.62    0.94
   3 -14  -8   11.56    0.63
  -3  14   8   12.26    0.70
  -3  14   8   12.17    0.68
  -2  14   8   18.55    1.06
  -2  14   8   18.97    1.10
  -1  14   8    3.41    0.20
  -1  14   8    3.26    0.21
   0 -14  -8    0.09    0.04
   0  14   8    0.14    0.05
   0  14   8    0.20    0.04
  -1 -14  -8    0.25    0.04
   1  14   8   -0.02    0.51
   1  14   8    0.22    0.05
   1  14   8    0.20    0.06
  -2 -14  -8    0.37    0.05
   2  14   8    0.39    0.08
   2  14   8    0.27    0.06
   2  14   8    1.46    0.62
  -3 -14  -8    0.69    0.07
   3  14   8    0.78    0.10
   3  14   8    0.29    0.74
   3  14   8    0.67    0.08
  -4 -14  -8    1.66    0.12
   4  14   8    2.23    0.85
   4  14   8    1.51    0.15
  -5 -14  -8   64.27    3.93
   5  14   8   62.21    3.56
   6  14   8    0.52    0.73
   6  14   8    1.04    0.11
  -2  15   8    5.00    0.31
  -2  15   8    5.31    0.30
   1 -15  -8   10.34    0.53
  -1  15   8    9.68    0.59
  -1  15   8   10.22    0.57
   0 -15  -8   76.91    3.90
   0 -15  -8   70.05    4.62
   0  15   8   80.05    4.18
   0  15   8   70.58    4.32
  -1 -15  -8    0.96    0.06
  -1 -15  -8    0.92    0.08
   1  15   8    0.96    0.09
  -2 -15  -8    0.94    0.08
   2  15   8    0.98    0.08
   2  15   8    1.00    0.10
  -3 -15  -8    0.92    0.07
   3  15   8    0.90    0.09
   3  15   8    0.69    0.08
   3  15   8    0.52    0.44
  -4 -15  -8    4.69    0.30
   4  15   8    4.79    0.29
   4  15   8    4.72    0.28
   1  16   8    1.47    0.10
   2  16   8    1.57    0.10
   0  14  -9    8.58    0.49
  -1  14  -9    0.69    0.06
  -1  14  -9    0.68    0.10
   1 -14   9    0.77    0.09
  -2  14  -9    8.63    0.57
   2 -14   9    9.76    0.68
  -3  14  -9    0.18    0.08
   3 -14   9    0.09    0.04
   4 -14   9    1.33    0.12
  -2 -13   9   17.89    1.30
   1  13  -9    0.57    0.09
  -1 -13   9    0.55    0.09
  -1 -13   9    0.70    0.09
   0  13  -9    0.29    0.08
   0  13  -9    0.35    0.10
   0 -13   9    0.30    0.07
  -1  13  -9    0.39    0.30
  -1  13  -9    0.24    0.07
  -1  13  -9    0.38    0.10
   1 -13   9    0.25    0.05
   1 -13   9    0.28    0.07
  -2  13  -9    1.43    0.12
  -2  13  -9    1.67    0.36
  -2  13  -9    1.56    0.16
   2 -13   9    1.68    0.15
   2 -13   9    1.49    0.15
  -3  13  -9    0.40    0.10
  -3  13  -9    0.22    0.16
  -3  13  -9    0.44    0.30
   3 -13   9    0.44    0.08
   3 -13   9    0.62    0.09
  -4  13  -9    4.60    0.43
  -4  13  -9    5.32    0.57
  -4  13  -9    5.12    0.35
   4 -13   9    5.59    0.41
   4 -13   9    5.74    0.44
  -5  13  -9    2.54    0.37
  -5  13  -9    1.30    0.21
  -5  13  -9    1.46    0.14
   5 -13   9    1.75    0.16
   5 -13   9    1.62    0.15
  -6  13  -9    0.66    0.15
  -3 -12   9    4.15    0.32
   2  12  -9    3.35    0.34
  -2 -12   9    3.90    0.30
  -2 -12   9    3.79    0.30
   1  12  -9   17.78    1.46
   1  12  -9   16.77    1.09
  -1 -12   9   20.35    1.36
  -1 -12   9   21.44    1.40
   0  12  -9    1.22    0.14
   0  12  -9    1.55    0.22
   0  12  -9    1.20    0.15
   0  12  -9    2.15    0.41
   0 -12   9    1.50    0.15
  -1  12  -9    0.09    0.10
  -1  12  -9    0.02    0.33
  -1  12  -9    0.16    0.08
   1 -12   9    0.22    0.08
   1 -12   9    0.25    0.06
  -2  12  -9    0.32    0.08
  -2  12  -9    0.38    0.11
  -2  12  -9    0.48    0.37
   2 -12   9    0.30    0.09
   2 -12   9    0.44    0.09
  -3  12  -9    3.72    0.23
  -3  12  -9    4.08    0.52
  -3  12  -9    4.08    0.61
  -3  12  -9    3.78    0.28
  -3  12  -9    3.19    0.37
   3 -12   9    3.73    0.33
   3 -12   9    3.85    0.31
  -4  12  -9    4.07    0.57
  -4  12  -9    3.83    0.27
  -4  12  -9    3.10    0.35
  -4  12  -9    3.39    0.50
   4 -12   9    3.51    0.29
   4 -12   9    3.46    0.32
  -5  12  -9    0.53    0.34
  -5  12  -9    0.37    0.35
  -5  12  -9    0.26    0.09
  -5  12  -9    0.39    0.18
   5 -12   9    0.39    0.08
  -6  12  -9    1.07    0.20
  -6  12  -9    1.33    0.36
  -6  12  -9    1.60    0.35
  -7  12  -9    1.76    0.31
  -7  12  -9    1.78    0.21
  -4 -11   9    3.37    0.27
   3  11  -9    2.57    0.28
  -3 -11   9    2.38    0.26
  -3 -11   9    2.86    0.23
   2  11  -9    2.50    0.29
  -2 -11   9    2.61    0.28
  -2 -11   9    2.96    0.24
  -2 -11   9    2.65    0.25
   1  11  -9    2.87    0.33
   1  11  -9    2.72    0.25
   1  11  -9    3.37    0.52
  -1 -11   9    3.39    0.27
   0  11  -9    3.91    0.30
   0  11  -9    5.58    0.63
   0  11  -9    4.13    0.39
   0  11  -9    3.64    0.28
   0 -11   9    3.89    0.33
   0 -11   9    4.02    0.33
  -1  11  -9    2.67    0.53
  -1  11  -9    2.45    0.20
  -1  11  -9    1.97    0.28
  -1  11  -9    2.26    0.22
   1 -11   9    2.73    0.24
   1 -11   9    2.75    0.24
  -2  11  -9    0.97    0.12
  -2  11  -9    1.16    0.15
  -2  11  -9    0.96    0.39
  -2  11  -9    1.44    0.49
  -2  11  -9    0.95    0.18
   2 -11   9    1.27    0.16
   2 -11   9    1.19    0.15
  -3  11  -9    0.30    0.45
  -3  11  -9    0.40    0.08
  -3  11  -9    0.11    0.09
  -3  11  -9    0.06    0.18
  -3  11  -9    0.33    0.37
   3 -11   9    0.35    0.06
   3 -11   9    0.32    0.11
   3 -11   9    0.36    0.09
  -4  11  -9    9.87    0.60
  -4  11  -9    7.73    0.84
  -4  11  -9    7.87    0.69
  -4  11  -9    9.99    0.54
  -4  11  -9    9.45    1.00
   4 -11   9   10.25    0.70
  -5  11  -9    3.12    0.37
  -5  11  -9    6.15    0.72
  -5  11  -9    4.18    0.29
  -5  11  -9    4.22    0.55
   5 -11   9    3.87    0.30
  -6  11  -9    7.89    0.81
  -6  11  -9    7.36    0.56
  -6  11  -9    7.32    0.70
  -7  11  -9    4.27    0.52
  -7  11  -9    4.74    0.38
  -7  11  -9    4.40    0.58
  -8  11  -9   -0.05    0.24
  -8  11  -9    0.05    0.12
  -5 -10   9    0.48    0.08
   4  10  -9    0.10    0.11
  -4 -10   9    0.09    0.07
  -4 -10   9    0.14    0.12
   3  10  -9    2.92    0.34
  -3 -10   9    3.49    0.33
  -3 -10   9    3.59    0.28
  -3 -10   9    3.51    0.29
   2  10  -9    5.30    0.51
  -2 -10   9    5.55    0.46
  -2 -10   9    5.62    0.49
  -2 -10   9    5.98    0.45
   1  10  -9    0.19    0.40
   1  10  -9    0.76    0.17
  -1 -10   9    0.51    0.11
   0  10  -9    0.36    0.15
   0  10  -9    0.40    0.11
   0  10  -9    0.44    0.42
   0 -10   9    0.48    0.09
   0 -10   9    0.49    0.11
  -1  10  -9    2.86    0.23
  -1  10  -9    2.42    0.32
  -1  10  -9    2.50    0.58
  -1  10  -9    2.96    0.24
   1 -10   9    2.87    0.28
   1 -10   9    3.07    0.26
  -2  10  -9    0.83    0.53
  -2  10  -9    0.80    0.41
  -2  10  -9    0.97    0.19
  -2  10  -9    1.03    0.14
  -2  10  -9    0.99    0.13
   2 -10   9    1.09    0.17
   2 -10   9    1.25    0.15
   2 -10   9    1.14    0.11
  -3  10  -9    3.77    0.58
  -3  10  -9    4.31    0.32
  -3  10  -9    4.93    0.77
  -3  10  -9    4.57    0.30
  -3  10  -9    4.32    0.42
   3 -10   9    5.01    0.35
  -4  10  -9    9.04    0.72
  -4  10  -9   10.45    0.58
  -4  10  -9    9.53    1.08
  -4  10  -9    8.70    0.89
  -4  10  -9   10.39    0.63
   4 -10   9   10.46    0.74
  -5  10  -9    0.62    0.11
  -5  10  -9    0.22    0.37
  -5  10  -9    0.22    0.16
  -5  10  -9    1.53    0.53
   5 -10   9    0.35    0.07
  -6  10  -9    0.30    0.35
  -6  10  -9    0.24    0.15
  -6  10  -9    0.06    0.43
   6 -10   9    0.24    0.06
  -7  10  -9   10.66    1.01
  -7  10  -9   10.64    0.73
  -7  10  -9   10.08    0.84
  -8  10  -9    2.48    0.44
  -8  10  -9    2.02    0.36
  -8  10  -9    2.18    0.24
  -5  -9   9    1.04    0.17
  -5  -9   9    1.05    0.13
   4   9  -9    4.69    0.46
  -4  -9   9    5.17    0.45
  -4  -9   9    5.53    0.41
   3   9  -9    0.16    0.14
   3   9  -9    0.00    0.10
  -3  -9   9    0.05    0.08
  -3  -9   9    0.05    0.13
  -3  -9   9    0.07    0.10
   2   9  -9   21.40    1.67
   2   9  -9   20.40    1.37
   2   9  -9   20.69    1.75
  -2  -9   9   22.52    1.58
  -2  -9   9   22.52    1.55
   1   9  -9   34.04    2.72
   1   9  -9   33.64    2.20
   1   9  -9   34.35    2.09
   1   9  -9   34.29    2.67
  -1  -9   9   35.85    2.71
  -1  -9   9   38.57    2.56
   0   9  -9    0.33    0.18
   0   9  -9    0.27    0.13
   0   9  -9    0.82    0.48
   0   9  -9    0.31    0.11
   0   9  -9    0.23    0.15
   0  -9   9    0.47    0.10
   0  -9   9    0.68    0.12
  -1   9  -9    1.05    0.56
  -2   9  -9    1.35    0.81
  -2   9  -9    1.20    0.14
  -2   9  -9    1.13    0.21
  -2   9  -9    1.44    0.60
  -2   9  -9    1.13    0.43
  -2   9  -9    1.36    0.16
   2  -9   9    1.29    0.12
   2  -9   9    1.05    0.20
  -3   9  -9   37.60    2.75
  -3   9  -9   43.65    2.47
  -3   9  -9   41.64    2.68
  -3   9  -9   40.53    3.26
  -3   9  -9   39.90    2.33
   3  -9   9   46.39    3.02
  -4   9  -9    2.18    0.19
  -4   9  -9    2.11    0.61
  -4   9  -9    2.31    0.26
  -4   9  -9    1.75    0.44
  -4   9  -9    2.19    0.17
   4  -9   9    2.06    0.19
  -5   9  -9   12.03    0.65
  -5   9  -9   11.62    0.71
  -5   9  -9   14.24    1.20
  -5   9  -9    9.84    0.78
  -5   9  -9   10.98    0.95
   5  -9   9   11.02    0.84
  -6   9  -9    8.51    0.78
  -6   9  -9    8.80    0.96
  -6   9  -9    8.33    0.63
   6  -9   9    9.34    0.66
  -7   9  -9    1.41    0.36
  -7   9  -9    1.42    0.20
  -7   9  -9    1.85    0.48
   7  -9   9    1.51    0.14
  -8   9  -9    2.92    0.27
  -8   9  -9    3.21    0.52
  -8   9  -9    2.86    0.41
  -9   9  -9    1.76    0.38
  -9   9  -9    1.34    0.30
  -9   9  -9    1.81    0.20
   5   8  -9    5.18    0.40
  -5  -8   9    3.73    0.39
  -5  -8   9    4.13    0.35
   4   8  -9    2.10    0.26
  -4  -8   9    2.07    0.27
  -4  -8   9    2.06    0.20
   3   8  -9   22.74    1.50
   3   8  -9   24.14    1.82
  -3  -8   9   24.64    1.68
  -3  -8   9   23.90    1.74
  -3  -8   9   23.10    1.73
   2   8  -9    4.61    0.42
   2   8  -9    4.05    0.33
   2   8  -9    4.28    0.41
  -2  -8   9    4.11    0.35
  -2  -8   9    4.13    0.41
   1   8  -9    8.55    0.55
   1   8  -9    8.17    0.58
   1   8  -9    8.62    0.71
   1   8  -9    7.77    0.70
  -1  -8   9    8.62    0.67
  -1  -8   9    9.01    0.65
   0   8  -9   48.79    2.84
   0   8  -9   46.44    2.69
   0   8  -9   51.30    3.44
   0  -8   9   40.97    3.29
   0  -8   9   41.07    3.52
  -1   8  -9   16.55    1.06
  -1   8  -9   16.76    1.00
  -1   8  -9   15.28    1.29
  -1   8  -9   18.14    1.52
  -2   8  -9   99.45    7.59
  -2   8  -9   94.57    7.67
  -2   8  -9  104.07    6.33
  -2   8  -9  103.59    5.70
  -2   8  -9  102.31    6.02
  -2   8  -9  106.40    9.30
   2  -8   9  111.37    7.40
  -3   8  -9    4.91    0.34
  -3   8  -9    5.09    0.42
  -3   8  -9    5.19    0.36
  -3   8  -9    6.56    0.68
   3  -8   9    5.93    0.42
  -4   8  -9   16.31    1.25
  -4   8  -9   17.25    1.52
  -4   8  -9   17.83    1.02
  -4   8  -9   15.49    0.95
  -4   8  -9   15.91    1.11
   4  -8   9   18.14    1.24
  -5   8  -9   15.64    1.38
  -5   8  -9   14.21    1.00
  -5   8  -9   16.50    1.87
  -5   8  -9   14.66    0.91
  -5   8  -9   15.32    0.85
  -5   8  -9   15.11    1.14
   5  -8   9   15.17    1.11
  -6   8  -9    4.80    0.40
  -6   8  -9    5.59    0.59
  -6   8  -9    6.15    0.77
   6  -8   9    5.33    0.42
   7  -8   9    0.11    0.09
  -8   8  -9    0.49    0.28
  -8   8  -9    1.32    0.39
  -8   8  -9    0.16    0.11
  -9   8  -9    2.51    0.24
  -9   8  -9    3.77    0.42
 -10   8  -9    3.35    0.45
  -6  -7   9    5.82    0.48
  -5  -7   9    3.53    0.29
  -5  -7   9    3.55    0.36
   4   7  -9    4.86    0.42
  -4  -7   9    4.22    0.37
  -4  -7   9    4.63    0.34
  -4  -7   9    4.66    0.44
   3   7  -9    3.20    0.27
   3   7  -9    3.79    0.37
   3   7  -9    3.57    0.36
  -3  -7   9    3.09    0.29
  -3  -7   9    3.32    0.36
  -3  -7   9    3.41    0.33
   2   7  -9    5.02    0.35
  -2  -7   9    4.29    0.45
  -2  -7   9    4.41    0.38
   3  -7   9   55.99    4.03
  -4   7  -9   11.12    0.87
  -5   7  -9   85.94    7.48
  -5   7  -9   74.90    4.52
  -5   7  -9   76.11    5.12
  -5   7  -9   84.59    5.14
  -5   7  -9   81.62    6.04
   5  -7   9   89.60    5.90
  -7   7  -9    4.56    0.35
  -7   7  -9    5.15    0.61
  -7   7  -9    5.40    0.50
   7  -7   9    4.26    0.40
  -8   7  -9    2.31    0.42
  -8   7  -9    1.43    0.29
  -8   7  -9    1.28    0.17
   8  -7   9    1.05    0.17
  -9   7  -9    0.86    0.34
  -9   7  -9    1.15    0.15
  -9   7  -9    0.97    0.27
 -10   7  -9   20.81    1.43
 -10   7  -9   22.88    1.68
   6   6  -9    2.09    0.42
  -6  -6   9    2.52    0.27
   5   6  -9    2.31    0.26
   4   6  -9   16.51    1.23
  -4  -6   9   14.84    1.09
  -4  -6   9   16.04    1.19
   3   6  -9   25.96    1.82
   3   6  -9   20.69    2.58
   3   6  -9   24.78    1.49
   3   6  -9   23.17    1.77
  -3  -6   9   24.45    1.68
  -3  -6   9   21.31    1.72
   2   6  -9    5.17    0.45
   2   6  -9    4.93    0.35
   2   6  -9    3.96    0.60
   2   6  -9    4.65    0.45
   2   6  -9    4.11    1.13
  -2  -6   9    4.53    0.38
  -2  -6   9    4.66    0.47
   1   6  -9    2.11    0.28
   1   6  -9    2.25    0.21
   1   6  -9    2.20    0.27
   1   6  -9    1.32    0.76
   0   6  -9    8.85    1.25
   0  -6   9    9.95    0.87
  -1   6  -9   28.77    3.02
  -1   6  -9   26.03    2.99
   1  -6   9   35.74    2.56
  -2   6  -9   36.54    3.93
   2  -6   9   45.50    3.43
   2  -6   9   42.27    3.01
  -3   6  -9   41.30    3.87
   3  -6   9   40.80    3.32
   3  -6   9   39.44    2.92
  -4   6  -9   17.54    2.03
  -4   6  -9   15.88    1.85
   4  -6   9   19.49    1.37
   4  -6   9   19.45    1.58
  -5   6  -9    9.87    0.73
  -5   6  -9    9.20    1.37
   5  -6   9    9.78    0.76
  -6   6  -9    0.53    0.37
  -6   6  -9    0.91    0.24
  -6   6  -9    0.36    0.80
   6  -6   9    0.53    0.18
  -7   6  -9   74.29    4.29
  -7   6  -9   62.58    4.28
  -7   6  -9   69.19    5.03
  -8   6  -9    8.52    0.81
  -8   6  -9    8.25    0.57
  -8   6  -9    8.88    0.66
  -9   6  -9    2.35    0.19
  -9   6  -9    2.52    0.41
  -9   6  -9    2.26    0.30
   9  -6   9    1.51    0.23
 -10   6  -9   -0.06    0.20
 -10   6  -9    0.29    0.27
 -11   6  -9   -0.04    0.22
   7   5  -9    6.71    0.79
   6   5  -9   10.69    1.14
  -6  -5   9    9.35    0.77
   5   5  -9    5.20    0.46
  -5  -5   9    5.45    0.48
   4   5  -9   15.84    1.21
   4   5  -9   15.98    1.20
  -4  -5   9   16.27    1.17
  -4  -5   9   14.18    1.07
   3   5  -9   23.22    1.66
   3   5  -9   22.39    1.36
   3   5  -9   20.46    1.62
  -3  -5   9   21.87    1.84
  -3  -5   9   19.90    1.53
   2   5  -9    4.05    0.38
   2   5  -9    3.90    0.39
   2   5  -9    4.60    1.14
   2   5  -9    3.95    0.30
  -2  -5   9    4.07    0.59
  -2  -5   9    3.95    0.41
   1   5  -9   28.79    3.15
   1   5  -9   34.48    2.38
   1   5  -9   33.36    3.01
   0   5  -9    3.82    0.82
   0   5  -9    2.45    0.75
   0   5  -9    3.55    0.34
   0  -5   9    2.55    0.58
  -2   5  -9   14.46    1.89
  -2   5  -9   14.27    1.88
   2  -5   9   19.38    1.72
   2  -5   9   21.28    1.55
   2  -5   9   18.71    1.32
  -3   5  -9    3.33    0.78
  -3   5  -9    4.71    0.90
   3  -5   9    4.53    0.45
   3  -5   9    3.47    0.70
   3  -5   9    4.24    0.35
  -4   5  -9    3.20    0.80
  -4   5  -9    2.40    0.67
  -4   5  -9    2.21    0.58
   4  -5   9    2.21    0.62
   4  -5   9    2.30    0.31
   4  -5   9    2.51    0.26
  -5   5  -9    3.62    0.81
  -5   5  -9    2.45    0.65
   5  -5   9    2.37    0.56
   5  -5   9    2.31    0.29
   5  -5   9    2.09    0.32
  -6   5  -9   12.40    0.75
  -6   5  -9   10.36    1.51
  -6   5  -9   10.30    0.94
  -6   5  -9    9.69    0.69
   6  -5   9   10.76    1.09
   6  -5   9   10.28    0.84
  -7   5  -9    6.68    0.49
  -7   5  -9    5.83    0.41
  -7   5  -9    5.89    0.66
   7  -5   9    4.93    0.78
  -8   5  -9    2.09    0.18
  -8   5  -9    2.57    0.42
  -8   5  -9    2.59    0.29
   8  -5   9    1.72    0.26
  -9   5  -9    2.08    0.38
  -9   5  -9    1.98    0.26
   9  -5   9    1.17    0.20
 -10   5  -9    1.27    0.24
 -10   5  -9    1.17    0.32
 -11   5  -9    0.69    0.25
 -11   5  -9    0.61    0.19
   7   4  -9   21.10    2.19
   5   4  -9    1.74    0.23
   4   4  -9   97.06    7.10
  -4  -4   9   95.86    6.92
  -4  -4   9  103.34    7.84
   3   4  -9    0.25    0.09
   3   4  -9    0.07    0.15
  -3  -4   9    0.20    0.31
  -3  -4   9    0.18    0.13
   2   4  -9   84.18    5.75
   2   4  -9   69.67    6.81
  -2  -4   9   84.90    6.37
   1   4  -9    0.75    0.16
   1   4  -9    0.73    0.46
   1   4  -9    0.86    0.76
   0   4  -9    8.06    0.66
   0   4  -9    9.07    1.14
  -1   4  -9    1.21    0.61
  -1   4  -9    1.52    0.60
   1  -4   9    1.30    0.60
  -2   4  -9    0.86    0.56
   2  -4   9    0.65    0.60
   2  -4   9    1.16    0.13
  -3   4  -9   15.61    1.71
  -3   4  -9   13.86    1.66
   3  -4   9   17.34    1.18
   3  -4   9   14.81    1.54
   3  -4   9   15.97    1.35
  -4   4  -9    1.87    0.56
  -4   4  -9    1.46    0.52
  -4   4  -9    2.12    0.64
   4  -4   9    1.75    0.55
   4  -4   9    1.54    0.26
   4  -4   9    1.80    0.23
  -5   4  -9    0.79    0.59
  -5   4  -9    0.28    0.43
   5  -4   9    0.14    0.16
   5  -4   9    0.47    0.49
   5  -4   9    0.17    0.16
  -6   4  -9   -0.53    0.77
   6  -4   9    0.25    0.18
   6  -4   9    0.59    0.50
  -7   4  -9    1.61    0.14
  -7   4  -9    1.64    0.36
  -7   4  -9    1.83    0.22
   7  -4   9    1.15    0.24
   7  -4   9    1.61    0.49
  -8   4  -9    3.52    0.50
  -8   4  -9    4.55    0.36
  -8   4  -9    3.83    0.28
  -8   4  -9    3.87    0.34
   8  -4   9    4.19    0.62
  -9   4  -9    2.21    0.37
  -9   4  -9    1.97    0.20
  -9   4  -9    1.78    0.24
 -10   4  -9   12.72    1.01
 -10   4  -9   12.22    0.83
 -10   4  -9   11.72    0.85
 -11   4  -9    1.26    0.27
 -11   4  -9    0.85    0.20
   7   3  -9    2.65    0.43
  -7  -3   9    2.18    0.21
   6   3  -9    7.57    0.64
   6   3  -9    8.18    1.00
  -6  -3   9    7.71    0.60
  -6  -3   9    8.35    0.63
   5   3  -9   14.15    1.47
  -5  -3   9   11.54    0.96
  -5  -3   9   12.49    0.92
   4   3  -9    2.80    0.23
   4   3  -9    3.06    0.33
  -4  -3   9    2.85    0.30
  -4  -3   9    3.15    0.51
  -4  -3   9    2.74    0.32
   3   3  -9    4.21    0.37
   3   3  -9    3.92    0.29
  -3  -3   9    3.40    0.34
  -3  -3   9    3.93    0.58
   2   3  -9   46.13    3.15
   2   3  -9   37.72    3.83
  -2  -3   9   45.47    3.54
   1   3  -9    1.47    0.50
   1   3  -9    1.42    0.20
  -1  -3   9    2.35    0.50
   0   3  -9    2.54    0.61
   0   3  -9    1.60    0.57
   0   3  -9    1.19    0.13
   0  -3   9    1.52    0.55
  -1   3  -9    1.48    0.51
  -1   3  -9    0.13    0.50
  -1   3  -9    0.37    0.08
   1  -3   9    0.46    0.59
  -2   3  -9    4.35    0.34
  -2   3  -9    4.03    0.87
  -2   3  -9    4.29    0.80
   2  -3   9    5.02    0.75
   2  -3   9    5.15    0.45
   2  -3   9    4.60    0.36
  -3   3  -9    6.98    0.97
  -3   3  -9    7.70    0.93
  -3   3  -9    7.19    0.99
   3  -3   9    6.67    0.54
   3  -3   9    7.06    0.93
   3  -3   9    6.33    0.62
  -4   3  -9    0.77    0.48
  -4   3  -9    0.14    0.39
  -4   3  -9    0.14    0.37
   4  -3   9    0.16    0.14
   4  -3   9    0.16    0.47
  -5   3  -9   51.19    4.41
  -5   3  -9   45.78    4.80
   5  -3   9   56.48    3.80
   5  -3   9   50.83    4.26
   5  -3   9   56.18    4.22
  -6   3  -9   75.95    6.62
   6  -3   9   84.63    5.78
   6  -3   9   80.85    6.36
   6  -3   9   77.95    6.49
  -7   3  -9    6.91    0.72
  -7   3  -9    8.67    0.55
  -7   3  -9    6.77    0.51
   7  -3   9    8.74    0.65
   7  -3   9    9.03    0.94
  -8   3  -9    0.22    0.27
  -8   3  -9    0.34    0.13
   8  -3   9    0.89    0.48
   8  -3   9    0.47    0.19
  -9   3  -9   41.30    3.22
  -9   3  -9   44.09    2.98
  -9   3  -9   45.38    2.73
 -10   3  -9    0.50    0.11
 -10   3  -9    0.58    0.27
 -10   3  -9    0.60    0.16
  10  -3   9    0.21    0.14
 -11   3  -9   10.13    0.70
 -11   3  -9   10.33    0.84
  -8  -2   9    4.25    0.32
   7   2  -9    2.68    0.56
  -7  -2   9    2.35    0.15
  -7  -2   9    2.64    0.23
   5   2  -9   34.29    2.68
   5   2  -9   39.06    1.95
   4   2  -9    0.80    0.12
   4   2  -9    1.17    0.11
   4   2  -9    1.13    0.19
  -4  -2   9    0.76    0.18
  -4  -2   9    0.74    0.18
  -4  -2   9    1.57    0.38
   3   2  -9    2.00    0.25
  -3  -2   9    2.54    0.44
   2   2  -9    2.14    0.62
   2   2  -9    1.73    0.22
  -2  -2   9    2.50    0.44
   1   2  -9   18.44    2.02
   1   2  -9   22.13    1.59
  -1  -2   9   23.95    1.88
   0   2  -9    1.79    0.16
   0   2  -9    2.86    0.60
   0  -2   9    1.83    0.55
  -1   2  -9    1.94    0.61
  -1   2  -9    2.20    0.18
   1  -2   9    3.17    0.65
  -2   2  -9    2.30    0.68
  -2   2  -9    2.84    0.64
  -2   2  -9    2.71    0.22
   2  -2   9    3.41    0.64
  -3   2  -9    8.91    1.04
  -3   2  -9    7.41    0.98
  -3   2  -9    8.13    0.57
  -3   2  -9    6.46    1.03
   3  -2   9    8.86    1.04
   3  -2   9    8.57    0.75
   3  -2   9    9.23    0.65
  -4   2  -9    5.82    0.44
  -4   2  -9    5.40    0.85
  -4   2  -9    6.13    0.79
  -4   2  -9    6.12    0.93
   4  -2   9    5.95    0.59
   4  -2   9    7.59    0.53
   4  -2   9    6.44    0.79
  -5   2  -9    8.49    1.00
  -5   2  -9    8.55    1.07
  -5   2  -9    8.56    1.24
   5  -2   9    9.82    0.97
   5  -2   9   10.59    0.75
   5  -2   9    9.20    0.86
  -6   2  -9    7.30    0.89
  -6   2  -9    5.50    0.93
   6  -2   9    7.72    0.87
   6  -2   9    8.92    0.64
  -7   2  -9    4.95    0.37
   7  -2   9    5.13    0.73
   7  -2   9    5.58    0.47
  -8   2  -9   17.06    1.43
  -8   2  -9   18.80    1.28
  -8   2  -9   18.84    1.16
  -8   2  -9   16.42    1.15
   8  -2   9   20.59    1.64
  -9   2  -9    2.28    0.23
  -9   2  -9    1.91    0.36
  -9   2  -9    2.32    0.24
 -10   2  -9    1.51    0.18
 -10   2  -9    1.35    0.19
 -10   2  -9    1.27    0.30
 -11   2  -9    3.62    0.31
 -11   2  -9    3.59    0.29
 -11   2  -9    3.56    0.40
  -8  -1   9    0.52    0.04
  -8  -1   9    0.54    0.09
   7   1  -9   19.42    1.98
  -7  -1   9   19.08    1.30
  -7  -1   9   17.42    1.05
   6   1  -9   11.60    0.63
  -6  -1   9   11.08    0.66
  -6  -1   9   12.06    0.85
  -5  -1   9   26.27    1.92
  -5  -1   9   29.76    2.30
  -5  -1   9   26.84    1.98
   4   1  -9   12.09    0.74
   4   1  -9   12.32    0.89
   4   1  -9   11.95    0.63
  -4  -1   9   10.58    0.86
  -4  -1   9   11.39    1.08
  -4  -1   9   10.50    0.87
   3   1  -9    9.28    0.73
  -3  -1   9    9.51    0.91
  -2  -1   9    1.58    0.37
   1   1  -9    7.05    0.89
   1   1  -9    6.69    0.46
  -1  -1   9    6.19    0.75
   0   1  -9    0.13    0.05
   0   1  -9    0.12    0.08
   0  -1   9   -0.17    0.44
  -1   1  -9    0.07    0.04
  -1   1  -9    0.99    0.50
   1  -1   9    0.10    0.50
  -2   1  -9   35.09    3.12
  -2   1  -9   33.67    2.16
   2  -1   9   31.56    2.79
  -3   1  -9   11.31    1.15
  -3   1  -9    8.62    1.16
  -3   1  -9   10.25    0.68
   3  -1   9    6.63    2.03
   3  -1   9   10.44    0.77
   3  -1   9   10.02    1.07
  -4   1  -9   19.63    1.82
  -4   1  -9   18.45    1.33
  -4   1  -9   21.79    2.02
   4  -1   9   20.41    1.70
   4  -1   9   19.94    1.76
   4  -1   9   21.86    1.51
   4  -1   9   20.19    3.30
  -5   1  -9   16.84    1.59
  -5   1  -9   18.59    1.14
   5  -1   9   15.86    1.29
   5  -1   9   17.69    1.51
  -8   1  -9    7.64    0.50
  -8   1  -9    6.54    0.48
  -8   1  -9    8.50    0.57
  -8   1  -9    6.43    0.51
  -8   1  -9    7.96    0.70
   8  -1   9    7.96    0.62
   8  -1   9    8.32    0.89
  -9   1  -9    1.13    0.17
  -9   1  -9    1.17    0.15
  -9   1  -9    0.98    0.28
 -10   1  -9    0.88    0.14
  10  -1   9    0.18    0.14
 -11   1  -9   10.02    0.69
 -11   1  -9   12.23    0.87
 -11   1  -9    9.64    0.74
   8   0  -9   18.35    1.68
  -8   0   9   14.77    0.90
  -8   0   9   14.91    1.04
  -8   0   9   16.09    1.10
  -7   0   9   13.93    0.92
  -7   0   9   13.29    0.78
  -7   0   9   14.28    0.98
   6   0  -9    3.50    0.21
  -6   0   9    3.28    0.25
  -6   0   9    3.06    0.30
  -6   0   9    2.95    0.19
   5   0  -9    9.19    0.52
   5   0  -9    9.69    0.74
   4   0  -9    3.39    0.21
   4   0  -9    3.42    0.25
  -4   0   9    3.92    0.64
  -4   0   9    3.52    0.52
   3   0  -9    1.38    0.68
  -3   0   9    0.97    0.36
  -3   0   9    0.85    0.32
  -2   0   9   32.18    3.49
  -2   0   9   34.22    2.72
   1   0  -9   51.32    3.46
  -1   0   9   53.89    5.60
  -1   0   9   57.05    4.34
   0   0  -9    6.23    0.44
   0   0   9    5.85    0.79
   0   0   9    8.39    1.22
   0   0   9    7.38    1.14
  -1   0  -9   15.90    1.03
   1   0   9   16.61    2.14
   1   0   9   15.11    1.46
   1   0   9   14.62    2.72
  -2   0  -9   77.26    4.69
   2   0   9   75.90    7.59
   2   0   9   70.66    7.92
   2   0   9   68.60    5.85
  -3   0  -9    5.82    0.41
   3   0   9    5.57    0.79
   3   0   9    8.97    1.97
   3   0   9    6.96    1.76
  -4   0  -9    4.72    0.38
  -4   0  -9    7.24    0.83
   4   0   9    8.53    1.79
   4   0   9    6.15    0.73
   4   0   9    5.42    0.46
  -5   0  -9   51.18    3.83
  -5   0  -9   68.35    5.20
   5   0   9   61.21    4.75
  -6   0  -9    4.53    0.79
   6   0   9    6.92    0.73
   6   0   9    5.19    0.46
   7   0   9    0.28    0.18
   7   0   9    0.13    1.44
   7   0   9    1.04    0.46
  -8   0  -9    3.32    0.25
  -8   0  -9    3.54    0.27
  -8   0  -9    4.02    0.28
   8   0   9    5.21    0.69
   8   0   9    3.84    0.38
  -9   0  -9    1.43    0.16
  -9   0  -9    1.86    0.21
  -9   0  -9    1.52    0.15
 -10   0  -9    7.34    0.51
 -10   0  -9    6.01    0.46
 -11   0  -9    2.64    0.35
  12   0   9    0.92    0.28
   8  -1  -9    0.42    0.24
  -8   1   9    0.39    0.09
  -8   1   9    0.43    0.04
  -8   1   9    0.35    0.06
   7  -1  -9    0.36    0.07
  -7   1   9    0.40    0.11
  -7   1   9    0.30    0.04
  -7   1   9    0.44    0.08
   6  -1  -9    0.47    0.07
   6  -1  -9    0.55    0.21
  -6   1   9    0.52    0.10
  -6   1   9    0.46    0.05
  -6   1   9    0.46    0.14
   4  -1  -9   16.85    1.20
   4  -1  -9   16.45    0.86
   4  -1  -9   16.22    1.01
  -4   1   9   14.12    1.39
  -4   1   9   16.59    1.80
   3  -1  -9   54.57    4.09
   3  -1  -9   59.71    5.04
  -3   1   9   54.26    5.85
  -3   1   9   59.47    4.55
   2  -1  -9   25.72    2.45
  -2   1   9   26.10    2.13
  -2   1   9   25.00    2.76
   1  -1  -9    4.15    0.72
   1  -1  -9    4.49    0.33
  -1   1   9    5.50    1.03
  -1   1   9    5.56    0.64
   0  -1  -9    3.71    0.67
   0  -1  -9    2.29    0.19
   0   1   9    3.36    1.02
   0   1   9    3.20    0.53
   0   1   9    4.37    0.95
  -1  -1  -9    1.89    0.15
  -1  -1  -9    1.43    0.55
   1   1   9    1.27    0.50
   1   1   9    1.74    1.33
   1   1   9    2.67    1.14
  -2  -1  -9   22.12    1.35
  -2  -1  -9   17.91    2.02
   2   1   9   19.66    1.82
   2   1   9   24.01    2.96
   2   1   9   21.41    3.45
  -3  -1  -9    1.50    0.13
  -3  -1  -9    1.39    0.48
   3   1   9    1.41    0.47
   3   1   9    2.77    1.68
   3   1   9    2.32    1.52
  -5  -1  -9   22.89    1.45
  -5  -1  -9   19.43    2.08
   5   1   9   23.46    1.85
  -6  -1  -9    4.61    0.68
   6   1   9    5.13    1.55
   6   1   9    3.10    0.50
   6   1   9    2.54    0.30
  -7  -1  -9   10.62    1.08
   7   1   9   12.26    2.61
   7   1   9    9.58    1.03
   7   1   9   11.30    0.84
  -8  -1  -9    4.85    0.37
  -8  -1  -9    6.78    0.56
  -8  -1  -9    4.61    0.36
  -8  -1  -9    6.35    0.40
   8   1   9    6.83    0.75
   8   1   9    5.68    0.49
  -9  -1  -9    0.97    0.11
  -9  -1  -9    0.57    0.10
  -9  -1  -9    0.72    0.25
  -9  -1  -9    0.82    0.15
   9   1   9    0.34    0.18
 -10  -1  -9   11.04    0.68
 -10  -1  -9    9.01    0.84
 -10  -1  -9   10.77    0.75
 -11  -1  -9    3.87    0.29
 -11  -1  -9    3.39    0.27
 -11  -1  -9    3.07    0.38
 -12  -1  -9   10.83    0.81
  12   1   9    9.78    0.83
   8  -2  -9    3.12    0.49
  -8   2   9    3.18    0.19
  -8   2   9    3.27    0.23
  -8   2   9    3.30    0.26
   7  -2  -9   12.91    0.71
  -7   2   9   13.64    0.94
  -7   2   9   13.08    0.75
  -7   2   9   13.11    0.88
   6  -2  -9    0.09    0.05
   6  -2  -9    0.15    0.16
  -6   2   9    0.07    0.07
  -6   2   9    0.27    0.12
   5  -2  -9    4.72    0.27
   5  -2  -9    4.96    0.42
   5  -2  -9    5.20    0.33
  -5   2   9    4.86    0.37
  -5   2   9    5.82    0.57
  -5   2   9    4.62    0.29
  -5   2   9    4.92    0.42
   4  -2  -9    8.75    0.58
   4  -2  -9    9.13    0.49
   4  -2  -9    9.51    0.70
  -4   2   9    8.61    1.13
  -4   2   9   10.07    0.88
   3  -2  -9   30.90    2.26
  -3   2   9   30.36    3.30
  -3   2   9   32.37    2.56
   2  -2  -9   41.34    3.09
   2  -2  -9   42.81    3.84
  -2   2   9   44.25    4.49
  -2   2   9   43.73    3.46
   1  -2  -9   10.78    1.25
   1  -2  -9   11.30    0.79
  -1   2   9   13.47    1.11
  -1   2   9   12.87    1.57
   0  -2  -9    3.89    0.28
   0  -2  -9    6.06    0.85
   0   2   9    4.28    1.15
   0   2   9    5.33    1.08
   0   2   9    3.17    0.55
  -1  -2  -9    1.46    0.52
   1   2   9    0.54    0.47
   1   2   9    1.15    1.36
   1   2   9    2.01    1.14
  -2  -2  -9    1.62    0.13
  -2  -2  -9    1.69    0.52
   2   2   9    2.61    1.73
   2   2   9    1.16    0.46
   2   2   9    1.56    1.44
  -3  -2  -9    6.07    0.86
  -3  -2  -9    7.24    0.47
   3   2   9    6.58    0.85
   3   2   9    5.62    1.92
  -4  -2  -9    8.04    1.06
  -4  -2  -9   10.88    0.66
   4   2   9   11.49    2.12
   4   2   9    9.20    0.95
   7   2   9    0.60    0.18
   7   2   9    2.46    1.54
   7   2   9    0.96    0.41
  -8  -2  -9    0.77    0.10
  -8  -2  -9    0.81    0.16
  -8  -2  -9    0.94    0.26
   8   2   9    0.87    0.45
   8   2   9    0.42    0.19
  -9  -2  -9   16.21    1.14
  -9  -2  -9   16.42    1.01
  -9  -2  -9   15.41    1.25
 -10  -2  -9    0.76    0.22
 -10  -2  -9    0.88    0.12
 -11  -2  -9    0.15    0.10
 -11  -2  -9    0.06    0.08
 -11  -2  -9    0.09    0.18
  12   2   9    6.92    0.65
  -8   3   9    5.47    0.37
  -8   3   9    5.68    0.40
  -8   3   9    5.17    0.31
   7  -3  -9    0.20    0.05
  -7   3   9    0.15    0.07
  -7   3   9    0.25    0.10
  -7   3   9    0.20    0.03
   6  -3  -9   13.01    0.99
   6  -3  -9   13.57    0.70
  -6   3   9   13.41    0.89
  -6   3   9   14.52    0.96
  -6   3   9   11.95    1.14
  -6   3   9   12.75    0.75
   5  -3  -9   21.65    1.30
   5  -3  -9   22.48    1.54
  -5   3   9   20.01    1.81
  -5   3   9   22.26    1.48
  -5   3   9   19.40    1.19
  -5   3   9   20.06    1.50
  -5   3   9   21.08    1.40
   4  -3  -9    0.29    0.10
   4  -3  -9    0.20    0.06
  -4   3   9    0.12    0.09
  -4   3   9    0.23    0.07
  -4   3   9    0.04    0.13
   3  -3  -9    0.76    0.10
  -3   3   9    0.55    0.27
  -3   3   9    0.49    0.10
  -3   3   9    0.81    0.38
  -3   3   9    0.53    0.09
   2  -3  -9   37.49    2.81
  -2   3   9   38.24    4.10
  -2   3   9   41.53    3.16
   1  -3  -9   26.51    1.82
   1  -3  -9   27.47    2.03
  -1   3   9   30.20    2.33
  -1   3   9   29.45    3.10
   0  -3  -9    0.86    0.09
   0   3   9    1.84    1.01
   0   3   9    0.72    0.35
  -1  -3  -9    5.79    0.40
   1   3   9    5.17    0.75
   1   3   9    8.19    1.62
  -2  -3  -9   12.56    0.85
   2   3   9   15.86    2.49
   2   3   9   12.86    2.22
  -3  -3  -9   28.58    1.63
   3   3   9   17.55    3.86
   3   3   9   23.24    2.13
  -4  -3  -9    0.04    0.04
   4   3   9    0.61    1.68
   4   3   9    0.17    0.36
   6   3   9  162.35   16.46
   6   3   9  157.74   12.56
  -7  -3  -9   29.29    1.89
   7   3   9   32.07    2.51
  -8  -3  -9   41.21    2.79
  -8  -3  -9   40.19    2.51
  -9  -3  -9    6.47    0.50
  -9  -3  -9    5.93    0.57
  -9  -3  -9    6.63    0.43
 -10  -3  -9    0.77    0.14
 -10  -3  -9    0.84    0.11
 -10  -3  -9    0.64    0.21
 -11  -3  -9    0.68    0.19
 -11  -3  -9    0.86    0.11
  11   3   9    0.81    0.42
  12   3   9    1.15    0.29
  -8   4   9    0.66    0.07
  -8   4   9    0.62    0.05
  -8   4   9    0.55    0.08
   7  -4  -9    3.69    0.23
  -7   4   9    4.12    0.32
  -7   4   9    4.06    0.24
  -7   4   9    4.12    0.29
   6  -4  -9    0.18    0.04
   6  -4  -9    0.10    0.12
  -6   4   9    0.04    0.05
  -6   4   9    0.01    0.07
  -6   4   9    0.08    0.03
  -6   4   9    0.00    0.10
   5  -4  -9    9.97    0.62
   5  -4  -9   11.26    0.74
  -5   4   9   10.17    0.74
  -5   4   9    9.45    0.72
  -5   4   9   10.05    0.68
  -5   4   9    8.66    0.87
  -5   4   9    9.66    0.57
   4  -4  -9   15.76    1.08
  -4   4   9   15.44    1.00
  -4   4   9   14.28    1.06
  -4   4   9   14.17    0.84
  -4   4   9   14.56    1.06
  -4   4   9   14.07    1.29
   3  -4  -9   11.82    0.94
  -3   4   9   14.69    1.52
  -3   4   9   13.00    1.14
   2  -4  -9   85.36    6.04
  -2   4   9   88.78    7.20
  -2   4   9   80.50    8.61
  -2   4   9   82.13    5.93
   1  -4  -9    0.75    0.09
   1  -4  -9    0.69    0.08
  -1   4   9    0.56    0.12
  -1   4   9    1.00    0.55
  -1   4   9    0.67    0.09
   0  -4  -9    3.79    0.30
   0  -4  -9    3.92    0.28
   0   4   9    6.42    1.23
  -1  -4  -9   28.08    1.80
   1   4   9   26.83    3.75
  -2  -4  -9   11.70    0.79
   2   4   9   13.51    2.35
  -3  -4  -9   34.54    2.23
  -4  -4  -9    4.42    0.32
   4   4   9    6.96    2.03
   5   4   9    3.39    1.89
   6   4   9    6.36    2.00
  -7  -4  -9    0.46    0.06
  -7  -4  -9    0.36    0.06
   7   4   9    1.67    1.84
  -8  -4  -9    1.01    0.10
  -9  -4  -9    1.12    0.16
  -9  -4  -9    0.87    0.10
 -10  -4  -9    7.11    0.65
 -10  -4  -9    7.63    0.58
 -10  -4  -9    8.49    0.51
 -11  -4  -9    1.04    0.11
 -11  -4  -9    0.94    0.19
  11   4   9    0.54    0.39
  -8   5   9    8.57    0.50
  -8   5   9    9.08    0.58
   7  -5  -9    6.28    0.37
  -7   5   9    7.09    0.47
  -7   5   9    7.16    0.50
  -7   5   9    6.93    0.39
   6  -5  -9   18.81    1.36
  -6   5   9   17.10    1.60
  -6   5   9   18.95    1.23
  -6   5   9   19.79    1.31
  -6   5   9   18.28    1.05
   5  -5  -9    0.64    0.08
  -5   5   9    0.74    0.15
  -5   5   9    0.46    0.06
  -5   5   9    0.46    0.10
  -5   5   9    0.50    0.10
  -5   5   9    0.42    0.08
   4  -5  -9    3.20    0.25
  -4   5   9    2.92    0.19
  -4   5   9    3.17    0.30
  -4   5   9    3.05    0.25
  -4   5   9    2.69    0.24
  -4   5   9    2.87    0.31
   3  -5  -9   10.29    0.75
  -3   5   9    9.90    1.24
  -3   5   9    9.37    0.74
  -3   5   9   10.92    0.91
  -2   5   9    0.37    0.40
   1  -5  -9   38.94    2.67
   1  -5  -9   35.29    2.39
  -1   5   9   38.62    3.19
  -1   5   9   34.85    3.95
  -1   5   9   37.11    2.63
   0  -5  -9   11.95    0.86
   0  -5  -9   11.18    0.78
   0   5   9   12.75    2.06
   0   5   9   13.33    0.87
   0   5   9   10.79    1.07
  -1  -5  -9    1.02    0.10
   1   5   9    0.86    0.10
   1   5   9    0.93    1.29
   1   5   9    0.87    0.23
  -2  -5  -9    0.66    0.08
   2   5   9   -0.40    1.62
   2   5   9    0.48    0.36
  -3  -5  -9    0.59    0.08
   3   5   9    1.26    1.90
  -4  -5  -9    3.17    0.23
   4   5   9    3.32    2.10
   5   5   9    7.41    2.28
   6   5   9   17.80    3.71
  -7  -5  -9    3.86    0.25
  -7  -5  -9    3.62    0.25
   7   5   9    2.59    0.57
  -8  -5  -9    3.15    0.22
   8   5   9    3.07    0.59
  -9  -5  -9    2.01    0.16
   9   5   9    1.58    0.50
 -10  -5  -9    0.30    0.07
  10   5   9    0.39    0.43
 -11  -5  -9    1.34    0.12
  11   5   9    1.11    0.37
   7  -6  -9    0.74    0.06
  -7   6   9    0.89    0.09
  -7   6   9    0.84    0.06
   6  -6  -9    0.21    0.09
  -6   6   9    0.06    0.07
  -6   6   9    0.12    0.03
   5  -6  -9    1.59    0.15
  -5   6   9    1.34    0.10
  -5   6   9    1.45    0.15
  -5   6   9    1.40    0.18
   4  -6  -9    0.36    0.08
  -4   6   9    0.26    0.09
  -4   6   9    0.34    0.05
  -4   6   9    0.23    0.07
  -4   6   9    0.28    0.09
   3  -6  -9   27.40    1.85
  -3   6   9   25.79    1.45
  -3   6   9   24.24    1.83
  -3   6   9   26.20    1.50
  -3   6   9   26.03    1.70
  -3   6   9   24.65    2.21
  -3   6   9   24.60    2.74
   2  -6  -9    1.44    0.14
   2  -6  -9    1.56    0.14
  -2   6   9    1.81    0.47
  -2   6   9    1.66    0.23
  -2   6   9    1.38    0.15
   1  -6  -9   59.09    3.93
   1  -6  -9   65.59    4.39
  -1   6   9   61.84    5.24
  -1   6   9   61.23    4.32
  -1   6   9   57.68    6.33
   0  -6  -9   10.65    0.78
   0  -6  -9    9.99    0.71
   0   6   9    9.67    0.98
   0   6   9   13.01    1.91
   0   6   9   11.55    0.78
  -1  -6  -9    2.93    0.22
   1   6   9    2.40    0.46
   1   6   9    5.83    1.42
   1   6   9    3.01    0.24
  -2  -6  -9   32.50    2.01
   2   6   9   32.58    4.26
   2   6   9   28.85    2.76
  -4  -6  -9    2.20    0.18
   4   6   9    1.20    2.07
   4   6   9    2.95    0.72
   5   6   9   11.81    1.48
   5   6   9   11.39    2.69
   6   6   9   54.47    4.85
  -7  -6  -9    8.68    0.53
  -7  -6  -9    8.21    0.53
   7   6   9    6.77    0.89
  -9  -6  -9    0.04    0.05
   9   6   9    0.06    0.42
   9   6   9    0.45    1.18
 -11  -6  -9    0.34    0.06
  11   6   9    0.27    0.28
   7  -7  -9    9.80    0.55
  -7   7   9   10.86    0.59
  -7   7   9   10.71    0.69
   6  -7  -9   17.10    1.05
  -6   7   9   16.81    0.96
  -6   7   9   16.94    1.12
  -5   7   9    6.97    0.60
  -5   7   9    6.32    0.39
   4  -7  -9    1.44    0.14
  -4   7   9    1.62    0.16
  -4   7   9    1.52    0.11
  -4   7   9    1.57    0.20
  -4   7   9    1.37    0.15
   3  -7  -9    5.97    0.43
  -3   7   9    5.73    0.54
  -3   7   9    5.84    0.42
  -3   7   9    5.53    0.34
  -3   7   9    5.99    0.35
  -3   7   9    4.98    0.43
   2  -7  -9    9.78    0.69
  -2   7   9    8.96    1.18
  -2   7   9    9.12    0.69
  -2   7   9    9.52    0.86
   1  -7  -9   10.87    0.77
   1  -7  -9   12.19    0.85
  -1   7   9   11.51    0.85
  -1   7   9   11.67    1.48
   0  -7  -9    4.55    0.34
   0  -7  -9    4.36    0.36
   0   7   9    5.18    0.38
   0   7   9    4.93    0.55
   0   7   9    7.03    1.11
   1   7   9    2.54    1.19
  -2  -7  -9   39.69    2.59
   2   7   9   43.33    4.83
   2   7   9   39.33    3.54
  -3  -7  -9    4.30    0.55
  -3  -7  -9    4.24    0.31
   3   7   9    7.77    2.15
  -5  -7  -9   90.31    6.38
   5   7   9   88.53    9.92
  -7  -7  -9   10.52    0.64
  -7  -7  -9   10.66    0.64
   7   7   9   11.08    1.41
   7   7   9    7.54    1.97
   7   7   9    8.25    0.93
   8   7   9   18.22    1.90
  -9  -7  -9    0.17    0.05
   9   7   9    0.14    0.37
   9   7   9    1.08    1.17
  10   7   9    0.23    0.31
  10   7   9    1.82    0.97
  -7   8   9    1.41    0.09
  -7   8   9    1.50    0.11
   6  -8  -9    0.68    0.07
  -6   8   9    0.79    0.06
  -6   8   9    0.74    0.09
  -5   8   9    1.90    0.21
  -5   8   9    1.90    0.13
  -5   8   9    2.49    0.18
   4  -8  -9    6.55    0.48
  -4   8   9    6.18    0.48
  -4   8   9    6.56    0.38
  -4   8   9    6.46    0.45
  -4   8   9    6.58    0.37
  -4   8   9    5.92    0.58
   3  -8  -9   39.32    2.73
  -3   8   9   40.42    2.22
  -3   8   9   38.65    2.14
  -3   8   9   36.43    3.26
  -3   8   9   38.43    2.49
  -3   8   9   34.49    2.69
   2  -8  -9   53.32    3.69
  -2   8   9   52.42    2.99
  -2   8   9   48.35    3.63
  -2   8   9   49.90    2.89
  -2   8   9   51.74    3.36
  -2   8   9   52.20    4.40
   1  -8  -9   43.57    3.07
  -1   8   9   41.30    4.48
  -1   8   9   43.17    3.03
  -1   8   9   42.71    3.68
   0  -8  -9   23.85    1.70
   0   8   9   22.82    2.06
   0   8   9   23.74    1.69
   0   8   9   23.81    2.68
  -1  -8  -9   42.33    3.73
  -1  -8  -9   53.19    3.25
   1   8   9   55.13    5.50
   1   8   9   51.31    4.36
  -2  -8  -9    3.81    0.59
  -2  -8  -9    3.88    0.28
   2   8   9    4.05    0.70
  -3  -8  -9   63.64    3.81
  -3  -8  -9   54.28    4.32
   3   8   9   63.56    6.65
   3   8   9   56.34    5.19
  -4  -8  -9    7.96    0.80
  -4  -8  -9    9.49    0.58
   4   8   9   10.19    1.40
  -5  -8  -9   27.09    1.81
  -5  -8  -9   21.77    1.51
  -7  -8  -9    1.51    0.12
  -7  -8  -9    1.52    0.12
   7   8   9    1.92    0.78
   7   8   9    2.92    1.48
   7   8   9    1.26    0.41
   8   8   9    8.21    2.21
   8   8   9   10.50    1.39
   8   8   9   12.16    0.93
   6  -9  -9    0.39    0.05
  -6   9   9    0.52    0.07
  -6   9   9    0.39    0.04
  -5   9   9    6.71    0.38
  -5   9   9    6.43    0.45
   4  -9  -9    0.30    0.06
  -4   9   9    0.28    0.04
  -4   9   9    0.28    0.04
  -4   9   9    0.24    0.07
  -4   9   9    0.22    0.07
   3  -9  -9   35.67    2.57
  -3   9   9   37.70    2.09
  -3   9   9   34.91    3.07
  -3   9   9   35.96    2.01
  -3   9   9   34.08    2.53
   2  -9  -9    4.18    0.31
  -2   9   9    3.98    0.25
  -2   9   9    4.28    0.26
  -2   9   9    4.01    0.41
  -2   9   9    3.86    0.32
   1  -9  -9   12.92    0.93
  -1   9   9   13.03    1.83
  -1   9   9   12.61    0.74
  -1   9   9   12.20    0.76
  -1   9   9   13.16    1.14
  -1   9   9   12.96    0.93
   0  -9  -9   12.32    0.86
   0   9   9   11.53    0.69
   0   9   9   11.30    0.67
   0   9   9   12.19    1.09
   0   9   9   11.58    0.70
  -1  -9  -9    3.56    0.61
  -1  -9  -9    3.88    0.26
   1   9   9    4.14    0.54
  -2  -9  -9    9.61    1.01
  -2  -9  -9   11.01    0.68
  -3  -9  -9   22.78    1.44
  -3  -9  -9   23.90    1.21
  -3  -9  -9   19.33    1.78
   3   9   9   25.32    2.20
  -4  -9  -9    2.99    0.21
  -4  -9  -9    2.91    0.42
   4   9   9    0.61    1.72
   4   9   9    3.81    0.80
  -5  -9  -9   26.87    1.54
  -5  -9  -9   24.40    1.83
   5   9   9   20.26    2.43
  -6  -9  -9    3.33    0.23
   6   9   9    5.34    1.69
   6   9   9    3.98    0.84
  -7  -9  -9   46.04    2.83
  -7  -9  -9   44.33    2.79
   7   9   9   38.45    5.95
   7   9   9   52.42    4.09
   8   9   9    9.80    2.14
  -9  -9  -9    4.10    0.28
   9   9   9    7.18    1.62
 -10  -9  -9    7.70    0.49
  -6  10   9    0.41    0.04
  -5  10   9    0.21    0.03
   4 -10  -9    0.17    0.05
  -4  10   9    0.15    0.03
  -4  10   9    0.12    0.04
   3 -10  -9   15.80    1.15
  -3  10   9   16.50    0.91
  -3  10   9   14.52    1.38
  -3  10   9   16.69    0.94
   2 -10  -9   17.78    1.25
  -2  10   9   17.17    0.99
  -2  10   9   16.28    1.24
  -2  10   9   17.75    1.02
  -2  10   9   17.46    1.51
   1 -10  -9   14.31    1.06
  -1  10   9   14.88    1.29
  -1  10   9   14.97    0.87
  -1  10   9   14.43    0.84
   0 -10  -9    0.72    0.08
   0  10   9    1.68    0.87
   0  10   9    0.55    0.07
   0  10   9    0.94    0.19
   0  10   9    0.79    0.09
   0  10   9    0.70    0.08
  -1 -10  -9   31.40    2.28
   1  10   9   36.76    2.08
   1  10   9   38.61    2.04
   1  10   9   37.13    3.18
   1  10   9   35.47    4.73
   1  10   9   40.38    2.14
  -2 -10  -9    1.15    0.10
  -2 -10  -9    0.94    0.41
   2  10   9    1.95    0.35
  -3 -10  -9    5.52    0.29
  -3 -10  -9    5.45    0.36
  -3 -10  -9    5.06    0.62
  -4 -10  -9   33.47    2.74
  -4 -10  -9   38.87    2.33
   4  10   9   39.14    3.37
  -5 -10  -9   11.55    0.99
  -5 -10  -9   13.21    0.80
   5  10   9   13.02    1.51
   7  10   9   10.86    1.35
   9  10   9    5.64    1.51
   5 -11  -9   10.25    0.61
  -5  11   9   10.59    0.59
  -4  11   9   11.00    0.63
   3 -11  -9   31.33    2.36
  -3  11   9   33.53    1.85
  -3  11   9   33.71    1.92
   2 -11  -9    1.31    0.08
   2 -11  -9    1.29    0.12
  -2  11   9    1.22    0.18
  -2  11   9    1.17    0.10
  -2  11   9    1.34    0.10
   1 -11  -9    3.53    0.64
   1 -11  -9    5.11    0.39
  -1  11   9    5.47    0.49
  -1  11   9    5.31    0.32
  -1  11   9    5.32    0.31
   0 -11  -9   14.32    1.00
   0  11   9   13.55    0.80
   0  11   9   13.71    0.82
   0  11   9   12.63    1.91
   0  11   9   14.33    1.23
  -1 -11  -9   15.16    1.03
   1  11   9   15.56    2.32
   1  11   9   16.52    1.46
   1  11   9   17.80    0.97
   1  11   9   16.19    0.92
   1  11   9   16.51    0.94
  -2 -11  -9   32.52    2.80
  -2 -11  -9   36.89    2.33
   2  11   9   42.42    4.95
   2  11   9   37.03    3.24
   2  11   9   38.19    2.13
  -3 -11  -9    4.14    0.22
  -3 -11  -9    3.94    0.51
  -3 -11  -9    4.02    0.27
   3  11   9    5.61    1.53
   3  11   9    4.71    0.66
   3  11   9    3.75    0.28
  -4 -11  -9   11.40    1.06
  -4 -11  -9   14.39    0.85
   4  11   9   13.95    1.37
  -5 -11  -9    0.96    0.09
   5  11   9    3.01    1.54
   5  11   9    0.93    0.56
  -6 -11  -9   16.79    1.09
  -6 -11  -9   18.85    1.10
   6  11   9   16.21    1.77
  -8 -11  -9    9.34    0.60
   8  11   9   10.46    1.90
   4 -12  -9   17.83    0.96
  -4  12   9   18.54    1.03
   3 -12  -9    5.17    0.28
  -3  12   9    5.42    0.31
  -3  12   9    5.17    0.32
   2 -12  -9    1.54    0.11
  -2  12   9    2.09    0.13
  -2  12   9    1.94    0.12
   1 -12  -9    1.36    0.11
  -1  12   9    1.18    0.09
  -1  12   9    1.24    0.10
  -1  12   9    1.30    0.18
   0 -12  -9   24.41    1.61
   0  12   9   26.53    2.22
   0  12   9   26.67    3.28
   0  12   9   25.13    1.50
   0  12   9   25.92    1.46
  -1 -12  -9   16.93    1.16
   1  12   9   18.55    1.04
   1  12   9   18.69    1.06
   1  12   9   20.10    1.09
   1  12   9   18.60    2.49
   1  12   9   18.40    1.63
  -2 -12  -9    2.15    0.16
   2  12   9    2.38    0.18
   2  12   9    2.59    1.02
   2  12   9    2.25    0.16
   2  12   9    2.36    0.39
  -3 -12  -9    0.68    0.07
  -3 -12  -9    0.42    0.04
   3  12   9    1.90    1.18
   3  12   9    0.82    0.26
   3  12   9    0.56    0.10
  -4 -12  -9   22.79    1.38
   4  12   9   21.16    1.98
  -5 -12  -9   21.92    1.28
   5  12   9   17.00    3.10
   8  12   9    6.60    1.40
  -4  13   9    3.20    0.19
   3 -13  -9    1.08    0.07
  -3  13   9    1.16    0.07
  -3  13   9    1.02    0.07
   2 -13  -9    3.99    0.24
  -2  13   9    4.51    0.26
  -2  13   9    4.63    0.27
   1 -13  -9    1.29    0.08
  -1  13   9    1.28    0.09
  -1  13   9    1.11    0.09
   0 -13  -9    2.30    0.16
   0  13   9    2.26    0.15
   0  13   9    2.44    0.16
  -1 -13  -9    0.28    0.04
   1  13   9   -0.19    0.58
   1  13   9    0.31    0.05
   1  13   9    0.22    0.06
  -2 -13  -9    0.33    0.03
  -2 -13  -9    0.24    0.05
   2  13   9   -0.16    0.74
   2  13   9    0.26    0.06
   2  13   9    0.35    0.07
  -3 -13  -9    3.10    0.20
   3  13   9    2.86    0.21
   3  13   9    2.95    0.20
   3  13   9    3.02    0.97
  -4 -13  -9   24.98    1.54
   4  13   9   24.51    1.41
   4  13   9   24.44    3.35
  -5 -13  -9    0.52    0.06
   5  13   9    1.32    0.99
  -6 -13  -9    7.21    0.45
   6  13   9    6.12    1.49
   7  13   9    0.80    0.73
   2 -14  -9    3.99    0.22
  -2  14   9    4.01    0.24
  -2  14   9    4.01    0.23
  -1  14   9    0.13    0.03
  -1  14   9    0.12    0.03
   0 -14  -9   44.73    3.03
   0 -14  -9   53.01    2.55
   0  14   9   46.14    2.83
   0  14   9   50.82    2.74
  -1 -14  -9   12.87    0.64
  -1 -14  -9   11.28    0.77
   1  14   9   12.38    0.70
  -2 -14  -9    1.92    0.14
  -2 -14  -9    1.91    0.11
   2  14   9    2.06    0.14
   2  14   9    2.05    0.13
   2  14   9    1.91    0.59
  -3 -14  -9    0.89    0.08
   3  14   9    0.91    0.10
   3  14   9    0.73    0.60
   3  14   9    1.00    0.09
  -4 -14  -9   70.10    4.12
   4  14   9   68.94    3.73
   4  14   9   59.48    8.21
  -5 -14  -9    0.79    0.07
   5  14   9    1.08    0.62
   0 -15  -9    0.35    0.03
   0  15   9    0.40    0.05
  -1 -15  -9    1.70    0.12
   1  15   9    1.85    0.12
  -2 -15  -9    0.43    0.05
   2  15   9    0.65    0.06
  -3 -15  -9    0.59    0.05
   3  15   9    0.59    0.07
  -4 -15  -9    3.47    0.24
   4  15   9    4.18    0.22
   0  13 -10    0.44    0.07
   0 -13  10    0.41    0.07
  -1  13 -10    1.12    0.12
  -1  13 -10    0.90    0.09
   1 -13  10    1.44    0.12
  -2  13 -10    0.31    0.09
  -2  13 -10    0.32    0.05
  -2  13 -10    0.65    0.24
   2 -13  10    0.44    0.06
   2 -13  10    0.44    0.07
  -3  13 -10    0.11    0.08
  -3  13 -10    0.13    0.22
   3 -13  10    0.12    0.04
   3 -13  10    0.17    0.06
  -4  13 -10    1.45    0.27
  -4  13 -10    1.29    0.13
   4 -13  10    1.36    0.12
   4 -13  10    1.39    0.13
   5 -13  10   26.25    2.02
  -2 -12  10    2.51    0.20
   1  12 -10    0.03    0.07
   1  12 -10   -0.01    0.08
  -1 -12  10    0.00    0.06
  -1 -12  10    0.01    0.06
   0  12 -10    0.37    0.09
   0  12 -10    0.28    0.08
   0 -12  10    0.40    0.08
  -1  12 -10    1.83    0.16
  -1  12 -10    1.93    0.18
  -1  12 -10    1.95    0.38
   1 -12  10    2.07    0.17
   1 -12  10    2.11    0.18
  -2  12 -10    1.22    0.35
  -2  12 -10    1.17    0.14
  -2  12 -10    1.11    0.12
   2 -12  10    1.22    0.13
   2 -12  10    1.33    0.13
  -3  12 -10    1.02    0.09
  -3  12 -10    1.23    0.35
  -3  12 -10    1.14    0.14
   3 -12  10    1.13    0.13
   3 -12  10    1.21    0.13
  -4  12 -10    0.17    0.30
  -4  12 -10    0.07    0.27
  -4  12 -10    0.15    0.15
  -4  12 -10    0.09    0.08
   4 -12  10    0.13    0.07
   4 -12  10    0.18    0.07
  -5  12 -10    8.89    0.78
  -5  12 -10    8.51    0.69
  -5  12 -10    7.42    0.52
  -5  12 -10    7.51    0.60
   5 -12  10    9.09    0.63
   5 -12  10    9.08    0.67
  -6  12 -10    0.59    0.25
  -6  12 -10    0.75    0.16
  -6  12 -10    0.56    0.26
   6 -12  10    0.67    0.08
   6 -12  10    0.74    0.10
   3  11 -10    1.91    0.22
  -3 -11  10    2.50    0.19
   2  11 -10   53.42    4.13
  -2 -11  10   58.10    3.97
  -2 -11  10   50.99    3.88
  -2 -11  10   58.77    3.81
   1  11 -10   -0.01    0.11
  -1 -11  10   -0.02    0.06
  -1 -11  10   -0.01    0.11
  -1 -11  10   -0.01    0.09
   0  11 -10   14.55    0.89
   0  11 -10   16.24    1.21
   0  11 -10   14.87    0.94
   0 -11  10   16.26    1.14
  -1  11 -10    0.45    0.10
  -1  11 -10    0.39    0.13
  -1  11 -10    0.28    0.10
  -1  11 -10    0.51    0.35
   1 -11  10    0.52    0.10
   1 -11  10    0.51    0.07
  -2  11 -10   10.01    0.95
  -2  11 -10    8.54    0.62
  -2  11 -10    8.96    0.58
   2 -11  10   11.04    0.75
   2 -11  10   10.72    0.79
  -3  11 -10    7.25    0.57
  -3  11 -10    8.31    0.45
  -3  11 -10    7.53    0.49
  -3  11 -10    7.11    0.70
  -3  11 -10    8.75    0.83
   3 -11  10    7.49    0.58
   3 -11  10    7.31    0.62
  -4  11 -10    0.14    0.09
  -4  11 -10    0.15    0.38
  -4  11 -10    0.02    0.16
  -4  11 -10    0.27    0.31
  -4  11 -10    0.05    0.05
   4 -11  10    0.17    0.07
   4 -11  10    0.11    0.09
  -5  11 -10   10.37    0.85
  -5  11 -10   10.55    0.67
  -5  11 -10   11.38    1.01
  -5  11 -10   10.58    0.76
   5 -11  10   11.12    0.87
  -6  11 -10    2.70    0.29
  -6  11 -10    3.52    0.52
  -6  11 -10    2.86    0.40
  -7  11 -10    0.02    0.12
  -7  11 -10   -0.05    0.25
  -7  11 -10    0.27    0.28
  -4 -10  10    0.49    0.08
   3  10 -10   10.00    0.82
  -3 -10  10   10.93    0.77
  -3 -10  10   10.38    0.79
   2  10 -10    5.79    0.50
  -2 -10  10    5.68    0.44
  -2 -10  10    5.49    0.48
  -2 -10  10    5.93    0.45
   1  10 -10    1.40    0.20
   1  10 -10    1.24    0.16
   1  10 -10    0.92    0.37
  -1 -10  10    1.36    0.15
  -1 -10  10    1.23    0.18
   0  10 -10    5.12    0.61
   0  10 -10    4.76    0.41
   0  10 -10    4.43    0.31
   0 -10  10    4.23    0.35
   0 -10  10    3.78    0.34
  -1  10 -10    1.57    0.17
  -1  10 -10    1.61    0.46
  -1  10 -10    1.53    0.22
  -1  10 -10    1.49    0.16
   1 -10  10    1.54    0.17
   1 -10  10    1.54    0.17
  -2  10 -10    7.88    0.50
  -2  10 -10    9.27    0.92
  -2  10 -10    7.01    0.67
  -2  10 -10    7.75    0.53
   2 -10  10    8.74    0.67
   2 -10  10    9.07    0.63
  -3  10 -10    0.28    0.08
  -3  10 -10    0.01    0.33
  -3  10 -10    0.28    0.17
  -3  10 -10    0.15    0.09
  -3  10 -10    0.09    0.44
   3 -10  10    0.41    0.12
   3 -10  10    0.37    0.06
  -4  10 -10    0.41    0.46
  -4  10 -10    0.59    0.34
  -4  10 -10    0.43    0.11
  -4  10 -10    0.48    0.08
  -4  10 -10    0.33    0.17
   4 -10  10    0.37    0.14
   4 -10  10    0.41    0.06
  -5  10 -10    2.07    0.52
  -5  10 -10    1.15    0.36
  -5  10 -10    1.20    0.20
   5 -10  10    1.14    0.11
  -6  10 -10   36.93    2.73
  -6  10 -10   34.13    2.27
  -6  10 -10   35.86    2.32
  -7  10 -10    2.28    0.25
  -7  10 -10    2.71    0.38
  -7  10 -10    2.43    0.46
  -8  10 -10    0.13    0.28
  -8  10 -10    0.10    0.12
  -8  10 -10   -0.05    0.24
   4   9 -10   13.27    1.12
  -4  -9  10   15.36    1.07
  -4  -9  10   15.14    1.07
   3   9 -10    0.34    0.14
  -3  -9  10    0.34    0.08
  -3  -9  10    0.35    0.08
  -3  -9  10    0.37    0.14
   2   9 -10    0.54    0.12
   2   9 -10    0.48    0.15
  -2  -9  10    0.60    0.16
  -2  -9  10    0.50    0.13
  -2  -9  10    0.62    0.10
   1   9 -10   15.38    1.22
   1   9 -10   14.02    1.30
   1   9 -10   15.82    0.95
   1   9 -10   15.88    1.01
  -1  -9  10   16.39    1.15
  -1  -9  10   15.28    1.15
   0   9 -10    1.03    0.14
   0   9 -10    1.15    0.17
   0   9 -10    1.74    0.45
   0   9 -10    1.59    0.24
   0  -9  10    1.17    0.14
   0  -9  10    1.23    0.15
  -1   9 -10    6.05    0.55
  -1   9 -10    5.80    0.79
  -1   9 -10    6.01    0.44
  -1   9 -10    5.76    0.41
   1  -9  10    6.46    0.52
   1  -9  10    6.62    0.49
  -2   9 -10    4.16    0.32
  -2   9 -10    3.85    0.42
  -2   9 -10    4.34    0.70
  -2   9 -10    4.41    0.30
   2  -9  10    4.70    0.41
   2  -9  10    4.93    0.37
  -3   9 -10   13.85    0.87
  -3   9 -10   12.71    0.72
  -3   9 -10   11.55    1.22
  -3   9 -10   11.95    0.77
  -3   9 -10   11.25    0.99
   3  -9  10   11.54    1.01
   3  -9  10   13.08    0.91
  -4   9 -10   25.40    1.44
  -4   9 -10   22.55    1.75
  -4   9 -10   25.43    1.67
  -4   9 -10   27.07    2.11
  -4   9 -10   25.05    1.53
   4  -9  10   28.11    1.86
  -5   9 -10    1.22    0.52
  -5   9 -10    1.01    0.35
  -5   9 -10    0.90    0.10
  -5   9 -10    0.82    0.17
  -5   9 -10    0.86    0.12
   5  -9  10    0.94    0.10
  -6   9 -10    1.04    0.18
  -6   9 -10    1.39    0.35
  -6   9 -10    1.16    0.48
   6  -9  10    1.12    0.12
  -7   9 -10    0.73    0.30
  -7   9 -10    0.64    0.41
  -7   9 -10    0.41    0.14
   7  -9  10    0.49    0.07
  -8   9 -10    8.42    0.67
  -8   9 -10    8.91    0.80
  -8   9 -10    7.85    0.58
  -9   9 -10    0.35    0.27
  -9   9 -10    0.13    0.22
   5   8 -10    3.15    0.28
   4   8 -10    3.12    0.30
  -4  -8  10    2.90    0.25
  -4  -8  10    3.10    0.32
   3   8 -10    2.33    0.27
   3   8 -10    2.46    0.22
  -3  -8  10    2.35    0.22
  -3  -8  10    2.76    0.22
  -3  -8  10    2.38    0.29
  -2  -8  10    0.39    0.14
  -2  -8  10    0.36    0.09
   1   8 -10   12.67    1.04
   1   8 -10   12.49    0.81
   1   8 -10   12.81    0.86
   1   8 -10   14.61    1.18
  -1  -8  10   13.06    1.00
  -1  -8  10   13.78    0.98
   0   8 -10   85.66    6.01
   0   8 -10   81.65    4.77
   0   8 -10   91.15    6.08
   0   8 -10   86.42    5.02
   0  -8  10   72.19    6.25
   0  -8  10   72.77    5.85
  -1   8 -10    1.56    0.54
  -1   8 -10    1.62    0.25
  -1   8 -10    1.59    0.18
  -1   8 -10    3.76    0.90
  -1   8 -10    1.91    0.20
   1  -8  10    1.90    0.19
   1  -8  10    1.82    0.23
  -3   8 -10   12.48    0.75
  -3   8 -10   10.46    0.67
  -3   8 -10   11.34    0.64
   3  -8  10   10.79    0.79
   3  -8  10    8.99    0.90
  -4   8 -10   15.65    0.93
  -4   8 -10   16.83    1.08
  -4   8 -10   14.33    1.46
  -4   8 -10   14.86    1.19
  -4   8 -10   15.68    0.99
   4  -8  10   18.65    1.19
  -5   8 -10   17.46    1.40
  -5   8 -10   14.53    0.87
  -5   8 -10   14.98    1.01
  -5   8 -10   15.39    1.13
  -5   8 -10   15.12    0.93
   5  -8  10   15.63    1.12
  -6   8 -10    0.17    0.11
  -6   8 -10    0.17    0.05
   6  -8  10    0.12    0.07
  -7   8 -10    5.57    0.54
  -7   8 -10    4.76    0.41
  -7   8 -10    5.96    0.71
   7  -8  10    5.87    0.42
  -8   8 -10    1.81    0.31
  -8   8 -10    1.26    0.17
  -9   8 -10    1.67    0.29
  -9   8 -10    1.08    0.16
   5   7 -10   24.75    1.91
  -5  -7  10   25.88    1.82
  -4  -7  10    0.05    0.13
   3   7 -10    6.30    0.44
   3   7 -10    6.57    0.54
  -3  -7  10    6.67    0.48
  -3  -7  10    6.50    0.55
  -3  -7  10    5.74    0.49
   2   7 -10   23.99    1.71
   2   7 -10   22.61    1.41
   2   7 -10   20.11    1.75
  -2  -7  10   22.74    1.60
  -2  -7  10   21.46    1.62
   1   7 -10   88.01    6.45
   1   7 -10   89.85    6.34
   1   7 -10   83.11    5.32
   1   7 -10   85.82    5.06
  -1  -7  10   83.71    6.21
  -1  -7  10   89.23    6.02
   0   7 -10   67.46    4.09
   0   7 -10   60.06    3.89
   0   7 -10   72.58    4.94
  -3   7 -10    5.56    0.85
  -4   7 -10   12.47    0.82
  -4   7 -10   12.49    1.00
  -4   7 -10   12.72    0.77
  -4   7 -10   14.14    0.89
  -4   7 -10   12.73    1.26
  -4   7 -10   13.58    1.74
   4  -7  10   15.45    1.00
  -5   7 -10   28.95    1.95
  -5   7 -10   35.92    2.03
  -5   7 -10   27.42    1.71
   5  -7  10   31.82    2.23
  -6   7 -10   25.27    1.48
  -6   7 -10   27.46    1.77
  -6   7 -10   24.98    1.70
  -6   7 -10   28.57    2.13
   6  -7  10   27.89    1.95
  -7   7 -10    3.14    0.53
  -7   7 -10    2.60    0.23
  -7   7 -10    2.51    0.35
   7  -7  10    2.30    0.23
  -8   7 -10   10.44    0.76
  -8   7 -10   12.91    1.03
  -8   7 -10   12.22    0.84
   8  -7  10   11.05    0.85
  -9   7 -10    8.33    0.66
  -9   7 -10    9.08    0.81
  -9   7 -10    8.67    0.59
 -10   7 -10   23.53    1.53
 -10   7 -10   23.70    1.79
   5   6 -10    9.54    0.66
  -5  -6  10    6.70    0.64
   4   6 -10    3.85    0.37
  -4  -6  10    3.80    0.38
   3   6 -10   11.15    0.93
   3   6 -10   11.57    0.76
  -3  -6  10   11.90    0.85
  -3  -6  10   12.36    0.92
   2   6 -10   65.17    4.63
   2   6 -10   55.68    4.48
   2   6 -10   64.69    3.82
  -2  -6  10   62.09    4.31
   1   6 -10    0.11    0.67
   1   6 -10    0.20    0.39
   1   6 -10    0.02    0.12
   1   6 -10    0.04    0.08
   1   6 -10   -0.01    0.15
   1   6 -10    0.05    0.10
  -1  -6  10   -0.01    0.07
  -1  -6  10    0.10    0.19
   0   6 -10    1.17    0.18
   0   6 -10    1.23    0.15
   0   6 -10    0.67    0.45
   0   6 -10    0.94    0.73
   0  -6  10    0.66    0.12
  -1   6 -10    8.54    0.74
  -1   6 -10   10.91    1.36
  -1   6 -10    9.05    0.60
  -2   6 -10    2.73    0.23
  -2   6 -10    2.59    0.87
  -3   6 -10    6.10    1.03
  -3   6 -10    2.86    0.27
   3  -6  10    3.61    0.28
  -4   6 -10    0.78    0.11
  -4   6 -10    0.77    0.45
  -4   6 -10    0.79    0.26
   4  -6  10    0.85    0.13
  -5   6 -10    3.88    0.98
  -5   6 -10    2.98    0.24
  -5   6 -10    2.83    0.36
  -5   6 -10    3.03    0.56
   5  -6  10    2.92    0.28
  -6   6 -10    3.76    0.37
  -6   6 -10    2.95    0.53
  -6   6 -10    5.31    1.17
   6  -6  10    2.47    0.29
  -7   6 -10   16.07    0.87
  -7   6 -10   14.42    1.01
  -7   6 -10   16.81    1.07
  -7   6 -10   15.49    1.30
   7  -6  10   15.35    1.17
  -8   6 -10    0.53    0.21
  -8   6 -10    0.44    0.10
  -8   6 -10    0.93    0.36
   8  -6  10    0.53    0.14
  -9   6 -10    0.17    0.20
  -9   6 -10    0.38    0.10
  -9   6 -10    0.29    0.30
 -10   6 -10   10.43    0.76
 -10   6 -10   10.84    0.90
  -6  -5  10    0.11    0.12
   4   5 -10    0.50    0.11
   4   5 -10    0.37    0.13
  -4  -5  10    0.47    0.16
   3   5 -10    7.41    0.62
   2   5 -10   24.25    1.79
   2   5 -10   24.07    1.48
   2   5 -10   19.77    1.73
  -2  -5  10   23.93    1.69
  -2  -5  10   25.61    2.01
   1   5 -10    0.43    0.14
   1   5 -10    0.33    0.11
   1   5 -10    0.23    0.15
   1   5 -10   -0.07    0.65
  -1  -5  10    0.47    0.39
   0   5 -10   10.88    0.69
   0   5 -10   11.53    0.84
   0  -5  10    8.02    1.06
  -2   5 -10    1.11    0.71
  -2   5 -10    0.71    0.60
   2  -5  10    0.63    0.66
  -3   5 -10    1.16    0.61
  -3   5 -10    1.12    0.66
   3  -5  10    1.10    0.23
   3  -5  10    0.88    0.12
   3  -5  10    0.65    0.65
  -4   5 -10    6.07    1.10
   4  -5  10    6.78    0.52
   4  -5  10    6.47    1.01
  -5   5 -10   39.36    3.22
  -5   5 -10   43.04    2.70
  -5   5 -10   38.12    4.06
  -5   5 -10   42.20    2.69
   5  -5  10   45.02    3.59
   5  -5  10   48.06    3.12
  -6   5 -10    2.21    1.02
  -6   5 -10    2.70    0.32
  -6   5 -10    2.51    0.47
   6  -5  10    2.16    0.63
   6  -5  10    2.43    0.30
  -7   5 -10    3.29    0.50
  -7   5 -10    3.27    0.32
  -7   5 -10    3.34    0.23
   7  -5  10    1.99    0.64
   7  -5  10    2.39    0.33
  -8   5 -10    2.24    0.42
  -8   5 -10    2.30    0.27
  -8   5 -10    2.03    0.18
   8  -5  10    1.78    0.26
  -9   5 -10    0.26    0.09
  -9   5 -10    0.45    0.30
  -9   5 -10    0.42    0.19
   9  -5  10    0.21    0.14
 -10   5 -10   11.97    1.02
 -10   5 -10   13.11    0.86
 -11   5 -10    3.01    0.37
   6   4 -10    8.07    0.68
  -6  -4  10    9.46    0.67
   5   4 -10   15.32    1.19
  -5  -4  10   15.59    1.15
   4   4 -10    0.53    0.11
   4   4 -10    0.39    0.13
  -4  -4  10    0.39    0.15
   3   4 -10    1.12    0.20
   3   4 -10    1.17    0.15
  -3  -4  10    1.06    0.15
  -3  -4  10    1.49    0.23
  -3  -4  10    1.29    0.37
   2   4 -10   13.51    1.15
   2   4 -10   16.31    0.98
   2   4 -10   17.00    0.92
  -2  -4  10   14.70    1.38
  -2  -4  10   14.54    1.14
   1   4 -10    0.58    0.15
   1   4 -10    0.67    0.11
  -1  -4  10    0.88    0.45
   0   4 -10    5.08    0.98
   0  -4  10    5.99    0.82
  -1   4 -10   10.59    1.41
  -1   4 -10   11.24    1.37
  -2   4 -10    3.55    0.89
  -2   4 -10    4.30    0.83
   2  -4  10    5.26    0.82
  -3   4 -10   21.15    2.48
   3  -4  10   25.14    1.81
   3  -4  10   26.30    2.07
   3  -4  10   26.19    2.24
  -4   4 -10    0.94    0.63
  -4   4 -10    1.22    0.53
   4  -4  10    0.68    0.15
   4  -4  10    0.62    0.18
   4  -4  10    0.26    0.67
   5  -4  10    8.74    1.06
   5  -4  10    8.49    0.69
  -6   4 -10   71.80    4.22
  -6   4 -10   70.36    4.24
  -6   4 -10   63.61    4.98
  -6   4 -10   59.35    6.25
   6  -4  10   67.27    4.93
   6  -4  10   74.26    5.49
  -7   4 -10    0.02    0.13
  -7   4 -10    0.02    0.06
  -7   4 -10    0.06    0.29
   7  -4  10   -0.19    0.57
   7  -4  10    0.09    0.18
  -8   4 -10    8.75    0.58
  -8   4 -10    7.48    0.76
  -8   4 -10    7.81    0.53
  -9   4 -10    0.25    0.15
  -9   4 -10    0.04    0.06
  -9   4 -10    0.25    0.28
   9  -4  10    0.08    0.14
 -10   4 -10    1.81    0.34
 -10   4 -10    1.51    0.22
 -11   4 -10   -0.03    0.15
 -11   4 -10    0.14    0.21
   6   3 -10    0.58    0.12
  -6  -3  10    0.46    0.11
  -6  -3  10    0.68    0.14
  -5  -3  10    1.45    0.22
   4   3 -10    1.62    0.23
   4   3 -10    1.76    0.17
  -4  -3  10    1.78    0.24
  -4  -3  10    1.90    0.22
   3   3 -10   12.61    0.83
   3   3 -10   12.24    0.99
  -3  -3  10   12.19    0.92
  -3  -3  10   13.79    0.96
  -3  -3  10   14.04    1.20
  -3  -3  10   13.35    0.99
   2   3 -10  104.15    8.18
   2   3 -10  118.49    6.99
  -2  -3  10  113.16    7.87
  -2  -3  10  121.16    9.05
   1   3 -10    0.10    0.47
   1   3 -10    0.25    0.12
  -1  -3  10    0.27    0.40
   0   3 -10    0.38    0.56
   0  -3  10    0.58    0.47
  -1   3 -10    0.56    0.56
   1  -3  10    0.80    0.64
  -2   3 -10    1.84    0.62
  -2   3 -10    0.80    0.61
   2  -3  10    2.33    0.67
   3  -3  10    2.19    0.21
   3  -3  10    2.30    0.72
  -4   3 -10    7.09    1.13
  -4   3 -10    9.12    1.25
  -4   3 -10    8.20    1.09
   4  -3  10   11.09    1.23
   4  -3  10    9.63    0.85
   4  -3  10   10.57    0.74
  -5   3 -10   18.09    1.60
   5  -3  10   16.68    1.52
   5  -3  10   15.55    1.19
   5  -3  10   13.78    1.33
  -6   3 -10   22.64    1.35
  -6   3 -10   21.86    1.37
   6  -3  10   22.14    1.93
   6  -3  10   19.16    1.60
  -7   3 -10    5.01    0.57
  -7   3 -10    5.41    0.39
  -7   3 -10    4.93    0.35
   7  -3  10    4.85    0.49
   7  -3  10    6.04    0.88
  -8   3 -10    0.08    0.06
  -8   3 -10    0.12    0.12
  -8   3 -10    0.23    0.28
   8  -3  10    0.01    0.17
  -9   3 -10    1.91    0.15
  -9   3 -10    2.01    0.22
  -9   3 -10    1.93    0.36
   9  -3  10    1.20    0.23
 -10   3 -10   16.52    1.30
 -10   3 -10   16.48    1.07
 -11   3 -10    0.05    0.20
 -11   3 -10    0.13    0.14
   7   2 -10    1.40    0.27
  -7  -2  10    1.20    0.14
   6   2 -10    5.71    0.85
   6   2 -10    7.10    0.56
  -6  -2  10    7.68    0.53
  -5  -2  10    0.06    0.12
  -5  -2  10    0.15    0.11
   4   2 -10   13.50    0.84
   4   2 -10   12.86    1.01
  -4  -2  10   13.85    1.19
  -4  -2  10   12.73    0.99
  -4  -2  10   13.20    0.97
   3   2 -10    9.63    0.53
   3   2 -10    9.94    0.62
   3   2 -10    9.42    0.75
  -3  -2  10   10.38    0.96
  -3  -2  10    9.62    0.74
  -3  -2  10    8.78    0.74
   2   2 -10   13.61    0.85
   2   2 -10   12.27    1.00
  -2  -2  10   14.39    1.22
  -2  -2  10   13.46    0.99
   1   2 -10   15.47    1.68
   1   2 -10   17.46    1.24
   0   2 -10   31.63    2.02
   0  -2  10   30.18    2.61
  -1   2 -10    6.71    1.11
  -1   2 -10    7.02    0.49
   1  -2  10    7.21    0.97
  -2   2 -10   -0.04    0.50
   2  -2  10   -0.04    0.61
  -3   2 -10   57.69    3.55
  -3   2 -10   49.92    5.00
   3  -2  10   56.93    4.51
  -4   2 -10    2.11    0.61
  -4   2 -10    1.54    0.54
   4  -2  10    0.12    0.57
  -5   2 -10   11.44    1.23
  -5   2 -10   13.53    1.32
  -5   2 -10   11.60    1.46
   5  -2  10   10.12    1.00
   5  -2  10   12.04    1.21
   5  -2  10   11.47    0.90
   6  -2  10    1.63    0.58
   6  -2  10    1.22    0.23
  -7   2 -10   41.16    2.62
  -7   2 -10   44.07    2.87
  -7   2 -10   40.00    3.10
  -7   2 -10   42.81    2.60
   7  -2  10   45.08    3.46
   7  -2  10   38.30    3.06
  -8   2 -10    5.16    0.40
  -8   2 -10    5.15    0.36
  -8   2 -10    4.85    0.33
  -8   2 -10    4.41    0.54
   8  -2  10    5.45    0.80
   8  -2  10    3.70    0.45
  -9   2 -10    2.48    0.38
  -9   2 -10    2.75    0.26
  -9   2 -10    2.50    0.19
  -9   2 -10    2.61    0.24
 -10   2 -10    2.13    0.21
  10  -2  10    1.39    0.22
 -11   2 -10    0.43    0.21
 -11   2 -10    0.19    0.13
   7   1 -10    4.85    0.69
  -7  -1  10    5.67    0.41
   4   1 -10  111.24    8.48
   4   1 -10  121.23    7.24
   4   1 -10  120.72    6.22
  -4  -1  10  111.36    8.03
  -4  -1  10  127.62    9.36
   3   1 -10   30.87    2.38
   3   1 -10   32.67    2.02
   3   1 -10   33.49    1.72
  -3  -1  10   34.65    2.69
  -3  -1  10   31.56    2.28
   2   1 -10    3.19    0.31
  -2  -1  10    3.94    0.56
   1   1 -10  140.85   10.72
   1   1 -10  112.91    9.06
  -1  -1  10  128.29   10.02
   0   1 -10   45.49    2.94
   0  -1  10   45.80    3.73
  -1   1 -10   19.28    1.76
  -1   1 -10   13.47    1.01
   1  -1  10   16.85    1.54
  -2   1 -10    2.13    0.18
   2  -1  10    2.51    0.63
  -3   1 -10   20.33    1.33
   3  -1  10   20.21    1.88
  -4   1 -10    2.20    0.18
  -4   1 -10    1.61    0.53
   4  -1  10    1.67    0.24
   4  -1  10    2.69    0.65
  -5   1 -10   11.45    1.47
   5  -1  10   15.00    1.11
   5  -1  10   17.06    1.43
  -6   1 -10    0.53    0.41
   6  -1  10    0.05    0.22
   6  -1  10    0.12    0.18
   6  -1  10    0.48    0.50
  -7   1 -10   39.00    2.90
  -7   1 -10   39.94    2.44
  -7   1 -10   39.69    2.42
   7  -1  10   42.97    3.21
   7  -1  10   34.09    2.86
  -8   1 -10    0.78    0.28
  -8   1 -10    0.65    0.15
  -8   1 -10    0.71    0.12
  -8   1 -10    0.46    0.07
   8  -1  10    1.33    0.49
   8  -1  10    0.36    0.20
  -9   1 -10    0.76    0.09
  -9   1 -10    0.93    0.16
  -9   1 -10    0.85    0.27
  -9   1 -10    0.94    0.14
   9  -1  10    0.52    0.18
 -10   1 -10    7.47    0.51
 -11   1 -10    0.36    0.12
  11  -1  10    0.28    0.29
   7   0 -10    1.84    0.33
  -7   0  10    1.34    0.09
  -7   0  10    1.55    0.16
   6   0 -10   24.26    1.28
  -6   0  10   24.23    1.68
  -6   0  10   23.84    1.59
  -5   0  10   29.24    1.80
  -5   0  10   25.29    1.90
   4   0 -10    1.82    0.23
   4   0 -10    1.78    0.16
   4   0 -10    1.79    0.13
  -4   0  10    1.93    0.18
  -4   0  10    1.95    0.25
  -4   0  10    2.48    0.37
   3   0 -10    7.83    0.53
   3   0 -10    8.33    0.45
  -3   0  10    9.11    0.84
   2   0 -10    2.24    0.63
  -2   0  10    1.87    0.41
  -1   0  10   37.16    4.03
  -1   0  10   39.12    3.12
   0   0 -10    0.30    0.06
   0   0 -10    0.43    0.56
   0   0  10    0.14    0.41
   0   0  10    0.60    0.57
   1   0  10    0.02    0.55
   1   0  10    1.19    1.04
  -2   0 -10   55.24    3.50
   2   0  10   54.13    4.42
   2   0  10   53.68    6.11
  -3   0 -10    3.31    0.26
  -3   0 -10    5.48    0.79
   3   0  10    4.04    1.88
   3   0  10    3.29    0.67
  -4   0 -10    2.83    0.61
  -4   0 -10    1.82    0.17
   4   0  10    2.25    0.57
   4   0  10    3.67    1.89
  -5   0 -10   59.91    4.69
  -5   0 -10   49.42    3.41
   5   0  10   49.04    3.84
   5   0  10   55.05    4.28
  -6   0 -10    0.62    0.39
   6   0  10    0.21    0.17
   6   0  10    0.75    1.78
   6   0  10    0.27    0.44
  -7   0 -10   26.68    1.65
  -7   0 -10   26.64    1.63
   7   0  10   25.16    1.94
  -8   0 -10    4.75    0.31
  -8   0 -10    4.18    0.29
   8   0  10    3.36    0.41
   8   0  10    5.96    0.74
  -9   0 -10    7.43    0.54
  -9   0 -10    9.11    0.62
 -10   0 -10   15.74    1.09
 -10   0 -10   15.10    0.99
 -11   0 -10   18.01    1.23
 -11   0 -10   14.39    1.02
   7  -1 -10    2.68    0.44
  -7   1  10    2.02    0.16
  -7   1  10    2.12    0.19
  -7   1  10    1.92    0.12
   6  -1 -10    2.70    0.17
  -6   1  10    2.65    0.25
  -6   1  10    2.26    0.15
  -6   1  10    2.39    0.20
   5  -1 -10    2.12    0.15
   5  -1 -10    1.85    0.13
  -5   1  10    1.38    0.21
  -5   1  10    1.49    0.17
  -4   1  10    3.63    0.29
  -4   1  10    3.75    0.48
  -4   1  10    3.60    0.35
   3  -1 -10    8.55    0.54
   3  -1 -10    8.31    0.45
  -3   1  10    8.67    0.84
  -3   1  10    7.99    1.05
   2  -1 -10    0.98    0.55
  -2   1  10    1.32    0.43
  -2   1  10    1.77    0.37
   1  -1 -10   78.33    5.47
   1  -1 -10   80.25    7.28
  -1   1  10   96.53    6.80
  -1   1  10   86.90    8.76
   0  -1 -10    5.57    0.39
   0   1  10    8.19    1.34
   0   1  10    5.43    0.72
  -1  -1 -10    9.81    0.67
  -1  -1 -10   10.55    1.34
   1   1  10   10.54    1.08
   1   1  10   11.31    2.43
  -2  -1 -10    8.72    0.57
  -2  -1 -10    6.27    1.10
   2   1  10    8.67    1.00
   2   1  10   11.90    2.07
  -3  -1 -10    3.81    0.26
  -3  -1 -10    2.35    0.63
   3   1  10    4.52    1.92
   3   1  10    2.81    0.66
  -4  -1 -10    0.59    0.08
  -4  -1 -10    0.93    0.43
   4   1  10    1.10    1.86
   4   1  10    0.44    0.51
  -5  -1 -10   12.18    0.71
   5   1  10    8.64    0.81
   5   1  10   10.61    1.09
  -6  -1 -10    1.73    0.52
   6   1  10    1.83    0.26
   6   1  10    2.88    1.85
   6   1  10    2.31    0.51
  -7  -1 -10   41.69    2.56
  -7  -1 -10   39.75    2.53
   7   1  10   41.44    3.33
  -8  -1 -10    8.08    0.60
  -8  -1 -10    7.80    0.71
  -8  -1 -10    7.71    0.51
  -8  -1 -10    7.77    0.52
   8   1  10    8.43    0.90
  -9  -1 -10    0.74    0.11
  -9  -1 -10    1.25    0.26
  -9  -1 -10    1.00    0.16
   9   1  10    0.30    0.16
 -10  -1 -10   27.57    1.61
 -10  -1 -10   22.14    1.91
 -10  -1 -10   26.91    1.77
 -11  -1 -10    0.60    0.19
 -11  -1 -10    0.78    0.12
  11   1  10    0.24    0.33
  -7   2  10    6.20    0.44
  -7   2  10    5.67    0.33
  -7   2  10    5.69    0.40
   6  -2 -10    0.32    0.06
  -6   2  10    0.31    0.08
  -6   2  10    0.29    0.04
  -6   2  10    0.25    0.11
   5  -2 -10   10.81    0.55
   5  -2 -10   10.59    0.64
  -5   2  10    9.65    0.70
  -5   2  10   10.28    0.76
  -5   2  10    9.45    0.58
   4  -2 -10    8.14    0.45
   4  -2 -10    8.34    0.53
   4  -2 -10    8.08    0.65
  -4   2  10    8.32    0.64
  -4   2  10    8.21    0.58
  -4   2  10    8.83    0.81
   3  -2 -10    4.20    0.24
   3  -2 -10    4.16    0.28
  -3   2  10    4.64    0.56
  -3   2  10    4.18    0.72
  -2   2  10    0.50    0.29
  -2   2  10    0.74    0.41
   1  -2 -10    1.57    0.14
  -1   2  10    2.65    0.45
  -1   2  10    2.74    0.61
   0  -2 -10    3.09    0.23
   0   2  10    3.54    0.53
  -1  -2 -10    4.02    0.84
  -1  -2 -10    4.39    0.31
   1   2  10    6.14    1.47
   1   2  10    4.02    0.66
  -2  -2 -10    6.98    0.47
  -2  -2 -10    5.96    0.96
   2   2  10    6.51    0.91
   2   2  10   10.79    2.05
  -3  -2 -10    2.29    0.57
  -3  -2 -10    1.85    0.15
   3   2  10    5.88    1.95
   3   2  10    1.82    0.57
  -4  -2 -10    2.17    0.55
  -4  -2 -10    1.90    0.16
   4   2  10    2.02    0.55
   4   2  10    1.30    1.97
  -5  -2 -10    6.78    0.87
   5   2  10    5.09    2.07
   6   2  10    7.74    2.18
   6   2  10    9.09    0.95
  -8  -2 -10    0.38    0.14
  -8  -2 -10    0.26    0.07
   8   2  10    0.20    0.16
   8   2  10    0.24    0.42
  -9  -2 -10    4.82    0.38
  -9  -2 -10    4.45    0.46
  -9  -2 -10    4.51    0.31
   9   2  10    3.55    0.60
 -10  -2 -10    1.96    0.17
 -10  -2 -10    2.01    0.30
  10   2  10    1.59    0.47
 -11  -2 -10    1.05    0.13
 -11  -2 -10    1.01    0.21
  11   2  10    0.66    0.37
   7  -3 -10    0.77    0.08
  -7   3  10    0.82    0.06
  -7   3  10    0.83    0.12
  -7   3  10    0.89    0.09
   6  -3 -10    1.89    0.12
  -6   3  10    1.91    0.20
  -6   3  10    1.68    0.16
  -6   3  10    1.60    0.11
   5  -3 -10   37.38    1.91
   5  -3 -10   37.39    2.23
   5  -3 -10   39.06    2.64
  -5   3  10   32.54    2.04
  -5   3  10   36.44    2.50
  -5   3  10   35.11    2.38
   4  -3 -10   13.08    0.84
   4  -3 -10   13.15    1.00
   4  -3 -10   13.44    0.72
  -4   3  10   13.75    0.92
  -4   3  10   14.03    0.98
   3  -3 -10   13.84    0.83
   3  -3 -10   14.78    1.04
   3  -3 -10   13.67    0.88
   3  -3 -10   13.63    0.75
  -3   3  10   14.13    1.03
  -3   3  10   14.39    0.96
   2  -3 -10   45.37    3.29
   2  -3 -10   45.75    2.80
  -2   3  10   45.91    4.76
   1  -3 -10   19.07    1.33
  -1   3  10   22.74    2.36
   0  -3 -10   22.63    1.47
   0   3  10   21.15    1.90
   0   3  10   25.29    2.86
  -1  -3 -10    8.62    0.59
   1   3  10    9.15    0.94
   2   3  10    0.64    1.69
   2   3  10    0.29    0.47
  -3  -3 -10    2.43    0.19
   3   3  10    4.47    2.09
   3   3  10    1.93    0.55
  -4  -3 -10    4.34    0.31
   4   3  10    4.03    0.66
   4   3  10    4.10    2.15
   5   3  10   14.28    2.75
   6   3  10   42.57    5.55
  -7  -3 -10   19.16    1.17
  -7  -3 -10   17.96    1.16
  -8  -3 -10    0.10    0.06
  -8  -3 -10    0.11    0.04
  -8  -3 -10    0.03    0.12
   8   3  10    0.43    0.43
  -9  -3 -10   24.59    1.42
  -9  -3 -10   23.39    1.59
   9   3  10   18.91    1.70
 -10  -3 -10    6.07    0.39
  10   3  10    4.92    0.67
 -11  -3 -10    0.44    0.17
 -11  -3 -10    0.29    0.08
  11   3  10    0.07    0.34
   7  -4 -10    1.22    0.10
  -7   4  10    1.54    0.15
  -7   4  10    1.48    0.12
  -7   4  10    1.44    0.09
   6  -4 -10    0.09    0.04
  -6   4  10    0.07    0.06
  -6   4  10    0.13    0.09
  -6   4  10    0.08    0.03
   5  -4 -10    1.46    0.13
   5  -4 -10    1.57    0.10
   4  -4 -10   38.65    2.78
   4  -4 -10   37.51    2.36
   4  -4 -10   39.82    2.25
   4  -4 -10   39.33    2.02
  -4   4  10   39.18    2.52
  -4   4  10   38.82    2.65
  -4   4  10   35.84    3.30
  -4   4  10   38.40    2.17
   3  -4 -10   33.91    2.05
   3  -4 -10   33.20    1.75
   3  -4 -10   32.29    2.41
   3  -4 -10   32.16    1.95
  -3   4  10   33.80    2.86
  -3   4  10   33.73    2.20
  -3   4  10   34.26    2.32
   2  -4 -10    4.78    0.27
   2  -4 -10    5.42    0.39
  -2   4  10    4.46    0.87
   1  -4 -10   21.58    1.46
  -1   4  10   23.77    2.53
   0  -4 -10   13.82    0.92
   0   4  10   14.52    2.08
  -1  -4 -10    6.37    0.44
  -2  -4 -10  227.61   14.59
   2   4  10  230.10   23.35
  -3  -4 -10   52.01    3.18
   3   4  10   44.15    6.02
  -4  -4 -10    0.67    0.08
   4   4  10    1.50    2.10
   5   4  10    9.19    2.55
  -6  -4 -10   46.34    2.71
   6   4  10   37.92    5.74
  -7  -4 -10    4.21    0.26
  -7  -4 -10    3.66    0.26
   7   4  10    2.87    0.59
  -8  -4 -10   35.78    2.14
  -8  -4 -10   36.99    2.12
   8   4  10   28.22    2.42
  -9  -4 -10    9.08    0.56
   9   4  10    7.51    0.92
 -10  -4 -10    2.36    0.18
  10   4  10    2.26    0.49
 -11  -4 -10    6.16    0.38
  11   4  10    4.41    0.59
   7  -5 -10    1.89    0.11
  -7   5  10    1.76    0.16
  -7   5  10    1.81    0.11
  -7   5  10    1.77    0.14
   6  -5 -10    2.70    0.16
  -6   5  10    2.83    0.21
  -6   5  10    2.71    0.23
  -6   5  10    2.53    0.16
   5  -5 -10   12.73    0.59
  -5   5  10   11.60    0.75
  -5   5  10    9.55    0.96
  -5   5  10   10.07    0.63
  -5   5  10   11.05    0.80
   4  -5 -10    1.00    0.09
   4  -5 -10    0.88    0.12
   4  -5 -10    1.08    0.07
   4  -5 -10    0.81    0.09
  -4   5  10    0.86    0.07
  -4   5  10    0.69    0.10
  -4   5  10    0.95    0.16
  -4   5  10    0.69    0.12
  -4   5  10    0.71    0.14
   3  -5 -10    7.48    0.41
   3  -5 -10    7.91    0.57
   3  -5 -10    7.56    0.46
  -3   5  10    7.46    0.68
  -3   5  10    7.36    0.59
  -3   5  10    7.68    0.54
  -3   5  10    7.47    0.56
   2  -5 -10    5.84    0.33
   2  -5 -10    6.35    0.46
  -2   5  10    6.68    0.89
  -2   5  10    5.96    0.57
  -2   5  10    5.70    0.45
   1  -5 -10   38.38    2.50
   1  -5 -10   37.38    2.78
  -1   5  10   41.24    3.32
  -1   5  10   37.43    4.10
   0  -5 -10   10.10    0.67
   0   5  10    9.42    1.67
  -1  -5 -10    7.07    0.49
  -2  -5 -10    1.18    0.11
   2   5  10    1.84    1.65
  -3  -5 -10    4.96    0.35
   3   5  10    6.04    2.17
  -4  -5 -10    0.40    0.07
   4   5  10    0.56    2.20
   5   5  10    5.28    2.49
  -6  -5 -10    0.46    0.06
  -6  -5 -10    0.47    0.07
   6   5  10    1.71    2.23
  -7  -5 -10   19.66    1.16
  -7  -5 -10   18.91    1.15
   7   5  10   14.94    1.46
  -8  -5 -10    2.37    0.17
  -8  -5 -10    2.37    0.17
   8   5  10    1.71    0.51
  -9  -5 -10    2.08    0.16
   9   5  10    1.65    0.49
 -10  -5 -10    1.81    0.14
  10   5  10    1.54    0.44
 -11  -5 -10    4.87    0.30
  11   5  10    3.33    0.50
  -7   6  10    5.41    0.36
  -7   6  10    5.25    0.30
   6  -6 -10    1.96    0.12
  -6   6  10    2.07    0.17
  -6   6  10    2.18    0.13
   5  -6 -10   26.58    1.39
   5  -6 -10   26.21    1.91
   5  -6 -10   25.70    1.62
  -5   6  10   25.64    1.49
  -5   6  10   27.64    1.73
   4  -6 -10   28.03    1.97
   4  -6 -10   26.69    1.60
   4  -6 -10   28.77    1.44
  -4   6  10   26.37    1.54
  -4   6  10   25.68    1.94
  -4   6  10   29.05    1.80
  -4   6  10   26.11    2.34
   3  -6 -10   47.89    3.24
   3  -6 -10   45.76    2.36
  -3   6  10   46.17    2.53
  -3   6  10   46.64    2.95
  -3   6  10   41.66    3.18
  -3   6  10   41.51    3.85
   2  -6 -10    3.96    0.22
   2  -6 -10    3.87    0.31
  -2   6  10    4.23    0.32
  -2   6  10    3.99    0.32
  -2   6  10    4.11    0.40
   1  -6 -10    1.31    0.08
   1  -6 -10    1.28    0.12
  -1   6  10    1.31    0.21
  -1   6  10    0.95    0.13
  -1   6  10    1.65    0.51
   0  -6 -10    9.50    0.68
   0   6  10   10.10    1.59
   0   6  10   10.05    0.93
   0   6  10   10.69    0.74
   1   6  10    2.60    0.41
   1   6  10    2.08    1.17
  -2  -6 -10   43.73    3.02
   2   6  10   46.08    5.58
   2   6  10   50.52    4.05
  -3  -6 -10   31.29    2.07
   3   6  10   34.21    4.59
  -4  -6 -10    3.96    0.29
   4   6  10    5.62    2.33
  -5  -6 -10    1.11    0.09
   5   6  10    1.26    2.31
  -6  -6 -10    0.13    0.04
  -6  -6 -10    0.04    0.05
   6   6  10    0.24    0.39
  -7  -6 -10   42.55    2.61
  -7  -6 -10   41.16    2.58
  -8  -6 -10    1.69    0.14
  -8  -6 -10    1.85    0.13
   8   6  10    1.43    0.47
  -9  -6 -10    2.17    0.16
   9   6  10    1.92    0.47
 -10  -6 -10    0.02    0.05
  10   6  10   -0.05    0.33
 -11  -6 -10    0.12    0.05
  11   6  10    0.17    0.23
   6  -7 -10    3.62    0.24
   6  -7 -10    3.41    0.20
  -6   7  10    3.64    0.21
  -6   7  10    3.96    0.26
   5  -7 -10    3.07    0.21
   5  -7 -10    3.19    0.17
  -5   7  10    3.12    0.23
  -5   7  10    2.79    0.18
   4  -7 -10    6.87    0.35
   4  -7 -10    6.16    0.49
   4  -7 -10    6.54    0.40
  -4   7  10    6.73    0.46
  -4   7  10    6.48    0.59
  -4   7  10    6.46    0.38
   3  -7 -10   16.14    0.85
   3  -7 -10   16.77    1.17
  -3   7  10   15.04    1.40
  -3   7  10   16.50    0.92
  -3   7  10   17.34    1.08
  -3   7  10   14.68    1.16
   2  -7 -10   58.03    4.29
   2  -7 -10   56.46    3.14
  -2   7  10   59.34    5.11
  -2   7  10   64.51    3.48
  -2   7  10   62.58    3.90
  -2   7  10   56.37    4.22
  -2   7  10   61.01    3.36
   1  -7 -10   45.88    2.50
   1  -7 -10   46.08    3.42
  -1   7  10   46.40    4.08
  -1   7  10   47.80    3.37
  -1   7  10   52.22    2.77
  -1   7  10   46.82    3.12
   0  -7 -10   50.50    2.67
   0   7  10   53.95    3.59
   0   7  10   50.06    4.36
   0   7  10   48.19    5.34
  -1  -7 -10   82.73    5.58
   1   7  10   86.51    7.45
   1   7  10   92.92    9.09
  -2  -7 -10    2.53    0.50
  -2  -7 -10    2.77    0.23
   2   7  10    5.66    1.54
   2   7  10    3.42    0.41
  -3  -7 -10   12.94    0.89
   3   7  10   18.83    3.32
  -4  -7 -10   28.70    1.90
   4   7  10   34.29    2.83
   4   7  10   26.78    4.65
  -5  -7 -10    4.47    0.29
   5   7  10    3.68    0.51
  -6  -7 -10   47.09    2.83
  -6  -7 -10   50.91    2.87
   6   7  10   38.50    3.13
  -8  -7 -10    6.76    0.44
  -8  -7 -10    7.35    0.44
   8   7  10    5.90    0.73
   8   7  10    4.99    1.59
  -9  -7 -10    1.86    0.14
   9   7  10    3.20    1.22
   9   7  10    1.41    0.39
   6  -8 -10    0.28    0.03
  -6   8  10    0.27    0.03
  -6   8  10    0.24    0.05
  -5   8  10    0.40    0.04
   4  -8 -10    2.97    0.16
   4  -8 -10    2.87    0.23
  -4   8  10    2.86    0.28
  -4   8  10    2.82    0.18
  -4   8  10    3.03    0.23
   3  -8 -10   13.84    1.00
   3  -8 -10   13.07    0.73
  -3   8  10   13.94    0.92
  -3   8  10   13.73    0.78
  -3   8  10   13.89    1.20
   2  -8 -10   12.12    0.89
   2  -8 -10   11.69    0.65
  -2   8  10   11.62    0.89
  -2   8  10   12.33    1.08
  -2   8  10   12.56    0.70
  -2   8  10   12.78    0.84
  -2   8  10   12.56    0.72
   1  -8 -10    9.91    0.74
   1  -8 -10    9.67    0.54
  -1   8  10   10.22    0.91
  -1   8  10   10.59    0.60
  -1   8  10   10.11    0.71
  -1   8  10   10.22    0.75
   0  -8 -10   16.95    0.93
   0   8  10   18.63    2.41
   0   8  10   16.67    1.04
   0   8  10   18.41    1.56
   0   8  10   18.12    1.20
  -1  -8 -10    3.33    0.20
   1   8  10    4.66    0.49
   1   8  10    3.46    0.22
  -2  -8 -10   38.95    2.62
   2   8  10   30.39    2.96
  -3  -8 -10   11.42    0.60
  -3  -8 -10   10.76    0.72
  -3  -8 -10    9.82    1.00
   3   8  10   15.84    2.61
   3   8  10   12.81    1.23
   5   8  10   21.43    3.74
   5   8  10   26.03    2.35
   6   8  10    9.21    2.37
  -7  -8 -10   38.21    2.28
  -7  -8 -10   36.74    2.25
   7   8  10   34.11    2.50
  -8  -8 -10    3.27    0.21
  -8  -8 -10    2.99    0.21
   8   8  10    3.09    0.43
   8   8  10    1.07    1.30
  -9  -8 -10   10.45    0.65
   9   8  10    9.56    0.80
   9   8  10   10.97    1.98
 -10  -8 -10    2.03    0.14
  10   8  10    1.84    0.26
  -6   9  10    0.85    0.06
   5  -9 -10    6.63    0.37
   5  -9 -10    6.91    0.41
   5  -9 -10    7.20    0.43
  -5   9  10    6.67    0.39
  -5   9  10    7.09    0.47
   4  -9 -10   11.45    0.63
  -4   9  10   12.26    0.80
  -4   9  10   12.09    0.68
   3  -9 -10   11.86    0.89
   3  -9 -10   12.07    0.65
  -3   9  10   12.40    0.82
  -3   9  10   12.24    0.70
  -3   9  10   12.61    1.07
   2  -9 -10   43.06    2.30
   2  -9 -10   42.46    3.14
  -2   9  10   43.49    2.86
  -2   9  10   45.14    3.75
  -2   9  10   46.15    2.55
  -2   9  10   40.88    3.09
  -2   9  10   44.79    2.46
   1  -9 -10    9.15    0.72
   1  -9 -10    8.99    0.52
  -1   9  10   10.60    0.59
  -1   9  10    9.58    0.72
  -1   9  10   10.03    0.88
  -1   9  10   10.08    0.68
  -1   9  10   10.22    0.57
   0  -9 -10    2.39    0.15
   0   9  10    3.33    0.88
   0   9  10    2.68    0.17
   0   9  10    2.68    0.37
  -1  -9 -10    4.37    0.22
  -1  -9 -10    3.91    0.27
  -1  -9 -10    3.99    0.64
   1   9  10    3.72    0.50
   1   9  10    5.19    1.19
   1   9  10    3.92    0.25
  -2  -9 -10    0.59    0.07
  -2  -9 -10    0.68    0.40
  -2  -9 -10    0.71    0.06
   2   9  10    0.94    0.27
   2   9  10    0.14    1.27
  -3  -9 -10   26.19    1.59
  -3  -9 -10   20.79    1.94
  -3  -9 -10   27.66    1.33
  -4  -9 -10   39.27    2.16
  -4  -9 -10   29.83    2.55
   4   9  10   37.78    3.11
   4   9  10   28.88    4.82
   5   9  10   13.79    2.81
   5   9  10   15.14    1.57
   6   9  10   19.30    1.89
   6   9  10   18.05    3.00
  -7  -9 -10    3.57    0.24
  -7  -9 -10    3.42    0.24
   7   9  10    4.83    0.76
  -9  -9 -10    8.75    0.55
   9   9  10    8.94    1.78
   5 -10 -10    0.09    0.03
   5 -10 -10    0.12    0.02
   5 -10 -10    0.14    0.04
  -5  10  10    0.12    0.02
   4 -10 -10    4.14    0.23
  -4  10  10    4.24    0.25
   3 -10 -10    0.29    0.03
  -3  10  10    0.21    0.04
   2 -10 -10    0.13    0.05
   2 -10 -10    0.08    0.03
  -2  10  10    0.05    0.03
  -2  10  10    0.02    0.04
  -2  10  10    0.08    0.08
   1 -10 -10    0.66    0.39
   1 -10 -10    0.49    0.05
   1 -10 -10    0.44    0.07
   0 -10 -10    9.35    0.51
   0  10  10    9.47    1.46
   0  10  10    9.90    0.56
   0  10  10    9.91    0.88
   0  10  10    9.64    0.58
  -1 -10 -10    0.17    0.36
  -1 -10 -10    0.11    0.03
  -1 -10 -10    0.08    0.04
   1  10  10    0.11    0.05
   1  10  10    0.17    0.04
   1  10  10   -0.01    0.89
   1  10  10    0.21    0.17
  -2 -10 -10    3.18    0.17
  -2 -10 -10    2.78    0.21
  -2 -10 -10    3.41    0.53
   2  10  10    3.75    1.25
   2  10  10    3.02    0.46
  -3 -10 -10   15.35    0.78
  -3 -10 -10   12.14    1.20
  -3 -10 -10   14.91    0.94
   3  10  10   15.03    2.58
   3  10  10   16.09    1.39
   4  10  10    8.74    2.14
   4  10  10    6.62    0.89
  -5 -10 -10   33.61    2.01
   5  10  10   30.26    2.90
  -6 -10 -10    4.52    0.30
   6  10  10    4.41    0.75
   9  10  10    9.03    1.67
   4 -11 -10   12.52    0.66
   4 -11 -10   12.39    0.74
  -4  11  10   12.74    0.71
   3 -11 -10    8.32    0.46
  -3  11  10    9.01    0.50
   2 -11 -10   39.22    2.07
  -2  11  10   37.77    2.22
  -2  11  10   41.29    2.30
   1 -11 -10    7.97    0.44
   1 -11 -10    7.79    0.61
  -1  11  10    8.63    0.49
  -1  11  10    8.58    0.74
  -1  11  10    8.53    0.48
   0 -11 -10   17.17    0.92
   0  11  10   18.12    1.52
   0  11  10   17.25    0.99
   0  11  10   16.98    1.02
  -1 -11 -10    2.56    0.19
  -1 -11 -10    3.01    0.16
   1  11  10    2.83    0.19
   1  11  10    3.41    0.36
   1  11  10    2.82    0.18
   1  11  10    3.54    0.88
  -2 -11 -10    4.31    0.30
  -2 -11 -10    4.04    0.56
  -2 -11 -10    5.06    0.25
   2  11  10    4.81    1.17
   2  11  10    4.65    0.53
  -3 -11 -10    0.08    0.04
   3  11  10   -0.28    1.17
   3  11  10   -0.05    0.23
  -4 -11 -10   17.22    1.09
   4  11  10   19.15    2.78
   4  11  10   16.50    1.58
  -5 -11 -10    4.91    0.33
   5  11  10    7.90    1.88
   5  11  10    5.07    0.75
  -6 -11 -10   23.08    1.52
   6  11  10   26.53    3.51
  -7 -11 -10    2.44    0.18
  -7 -11 -10    2.73    0.17
   8  11  10   33.48    4.37
   4 -12 -10    9.81    0.58
   3 -12 -10   86.03    4.54
  -3  12  10   87.32    4.86
   2 -12 -10    0.14    0.02
  -2  12  10    0.18    0.03
  -2  12  10    0.14    0.03
   1 -12 -10    1.69    0.10
  -1  12  10    1.62    0.11
  -1  12  10    1.61    0.11
   0 -12 -10   21.39    1.06
   0  12  10   19.20    1.18
   0  12  10   19.69    1.14
  -1 -12 -10   12.87    0.63
  -1 -12 -10   10.88    0.75
   1  12  10   12.11    0.69
   1  12  10   12.19    0.70
   1  12  10   12.16    1.06
   1  12  10   11.14    1.66
  -2 -12 -10    1.00    0.06
  -2 -12 -10    0.77    0.08
   2  12  10    0.63    0.08
   2  12  10    0.82    0.10
   2  12  10    0.50    0.79
   2  12  10    1.06    0.18
  -3 -12 -10    0.11    0.04
   3  12  10    0.13    0.18
   3  12  10    0.23    0.95
  -4 -12 -10    9.85    0.63
   4  12  10    9.97    1.88
  -5 -12 -10    3.50    0.23
   5  12  10    1.97    1.18
   6  12  10    1.51    1.01
  -7 -12 -10    0.27    0.04
   7  12  10    0.51    0.86
   3 -13 -10    2.14    0.13
   2 -13 -10    1.35    0.08
  -2  13  10    1.32    0.09
   1 -13 -10   12.93    0.68
  -1  13  10   12.95    0.74
   0 -13 -10    0.30    0.03
   0  13  10    0.31    0.05
   0  13  10    0.22    0.03
  -1 -13 -10    0.24    0.03
  -1 -13 -10    0.21    0.04
   1  13  10    0.15    0.05
  -2 -13 -10    0.31    0.04
  -2 -13 -10    0.33    0.03
   2  13  10    0.39    0.57
   2  13  10    0.54    0.06
  -3 -13 -10   11.99    0.76
   3  13  10   12.05    0.68
   3  13  10   12.28    0.69
   3  13  10   11.68    1.71
  -4 -13 -10    0.24    0.04
   4  13  10    0.65    0.73
  -5 -13 -10    0.51    0.05
   5  13  10    0.85    0.77
  -6 -13 -10    0.42    0.04
   6  13  10    0.91    0.70
   1 -14 -10    9.45    0.49
  -1  14  10    9.13    0.53
   0 -14 -10    0.80    0.05
   0  14  10    0.75    0.06
  -1 -14 -10    0.05    0.03
  -1 -14 -10    0.09    0.02
   1  14  10    0.16    0.04
  -2 -14 -10    4.26    0.28
   2  14  10    4.33    0.25
  -3 -14 -10    4.52    0.30
   3  14  10    4.89    0.28
   3  14  10    4.87    0.78
  -4 -14 -10   34.22    2.17
   4  14  10   35.04    4.34
   4  14  10   35.07    1.92
   0  12 -11    2.77    0.18
   0  12 -11    2.62    0.19
   0 -12  11    2.81    0.22
  -1  12 -11    3.45    0.24
  -1  12 -11    3.20    0.21
  -1  12 -11    3.20    0.39
   1 -12  11    3.59    0.27
  -2  12 -11    0.10    0.08
  -2  12 -11    0.14    0.22
  -2  12 -11    0.13    0.05
   2 -12  11    0.15    0.03
   2 -12  11    0.27    0.06
  -3  12 -11    0.41    0.24
   3 -12  11    0.07    0.05
   3 -12  11    0.06    0.04
  -4  12 -11   17.80    1.40
  -4  12 -11   15.26    1.08
   4 -12  11   19.34    1.32
   4 -12  11   20.31    1.41
  -5  12 -11    0.69    0.22
  -5  12 -11    0.50    0.08
   5 -12  11    0.35    0.06
   5 -12  11    0.40    0.06
  -2 -11  11   15.04    1.09
   1  11 -11    0.36    0.10
  -1 -11  11    0.59    0.08
  -1 -11  11    0.43    0.11
  -1 -11  11    0.60    0.09
   0  11 -11   23.18    1.37
   0  11 -11   24.81    1.74
   0  11 -11   21.13    1.29
   0 -11  11   21.73    1.64
   0 -11  11   24.25    1.67
  -1  11 -11    7.27    0.64
  -1  11 -11    8.15    0.51
  -1  11 -11    7.71    0.48
  -1  11 -11    7.90    0.74
   1 -11  11    8.63    0.60
   1 -11  11    8.27    0.62
  -2  11 -11   16.56    1.02
  -2  11 -11   16.88    1.42
  -2  11 -11   17.40    1.09
   2 -11  11   19.13    1.32
   2 -11  11   19.98    1.40
  -3  11 -11    6.31    0.37
  -3  11 -11    5.95    0.41
  -3  11 -11    6.26    0.66
   3 -11  11    6.56    0.51
   3 -11  11    6.55    0.49
  -4  11 -11    5.67    0.40
  -4  11 -11    5.53    0.55
  -4  11 -11    6.28    0.65
  -4  11 -11    5.40    0.46
   4 -11  11    6.80    0.47
   4 -11  11    6.71    0.51
  -5  11 -11   13.60    0.91
  -5  11 -11   16.60    1.24
  -5  11 -11   13.30    1.05
  -5  11 -11   14.54    1.00
   5 -11  11   16.42    1.19
   5 -11  11   16.35    1.11
  -6  11 -11    5.66    0.52
  -6  11 -11    5.83    0.59
  -6  11 -11    5.87    0.44
   6 -11  11    6.20    0.45
   6 -11  11    6.06    0.49
   2  10 -11    3.37    0.33
  -2 -10  11    3.73    0.29
  -2 -10  11    4.00    0.28
  -2 -10  11    3.76    0.32
   1  10 -11    7.38    0.44
   1  10 -11    7.49    0.57
  -1 -10  11    6.48    0.52
  -1 -10  11    6.34    0.55
  -1 -10  11    7.04    0.53
   0  10 -11    5.41    0.43
   0  10 -11    4.80    0.33
   0  10 -11    5.59    0.57
   0 -10  11    4.53    0.41
   0 -10  11    4.54    0.38
  -1  10 -11    2.28    0.26
  -1  10 -11    2.40    0.19
  -1  10 -11    2.40    0.43
  -1  10 -11    2.60    0.21
   1 -10  11    2.46    0.21
   1 -10  11    2.64    0.22
  -2  10 -11    0.45    0.12
  -2  10 -11    0.31    0.10
  -2  10 -11    0.40    0.35
  -2  10 -11    0.31    0.08
   2 -10  11    0.38    0.09
   2 -10  11    0.26    0.08
  -3  10 -11    6.04    0.71
  -3  10 -11    5.76    0.37
  -3  10 -11    5.48    0.40
   3 -10  11    6.37    0.47
   3 -10  11    6.50    0.50
  -4  10 -11    1.40    0.34
  -4  10 -11    1.53    0.16
  -4  10 -11    1.71    0.22
  -4  10 -11    2.20    0.47
  -4  10 -11    1.52    0.13
   4 -10  11    1.49    0.19
  -5  10 -11    0.04    0.26
  -5  10 -11    0.48    0.38
  -5  10 -11    0.06    0.13
  -5  10 -11    0.29    0.09
   5 -10  11    0.12    0.10
  -6  10 -11    0.45    0.14
  -6  10 -11    0.20    0.26
  -6  10 -11    0.11    0.34
   6 -10  11    0.21    0.10
  -7  10 -11    0.05    0.23
  -7  10 -11    0.02    0.12
  -7  10 -11   -0.18    0.28
   3   9 -11    1.57    0.19
  -3  -9  11    1.43    0.14
  -3  -9  11    1.55    0.20
   2   9 -11    0.40    0.13
  -2  -9  11    0.51    0.09
  -2  -9  11    0.50    0.15
  -2  -9  11    0.58    0.10
   1   9 -11    1.06    0.18
   1   9 -11    1.41    0.15
   1   9 -11    1.28    0.14
   1   9 -11    1.16    0.34
  -1  -9  11    1.02    0.13
  -1  -9  11    0.91    0.17
   0   9 -11   10.58    0.78
   0   9 -11    9.30    0.60
   0   9 -11    9.76    0.64
   0   9 -11    9.54    0.88
   0  -9  11    8.74    0.71
  -1   9 -11    0.27    0.13
  -1   9 -11    0.31    0.10
  -1   9 -11    0.38    0.35
   1  -9  11    0.40    0.08
   1  -9  11    0.38    0.09
  -2   9 -11    0.78    0.16
  -2   9 -11    0.61    0.11
  -2   9 -11    0.82    0.42
  -2   9 -11    0.51    0.11
   2  -9  11    0.96    0.13
   2  -9  11    0.70    0.11
  -3   9 -11    2.49    0.55
  -3   9 -11    2.71    0.22
  -3   9 -11    2.78    0.21
   3  -9  11    2.91    0.29
  -4   9 -11    2.98    0.43
  -4   9 -11    3.22    0.59
  -4   9 -11    2.65    0.23
  -4   9 -11    2.77    0.28
  -4   9 -11    2.99    0.20
   4  -9  11    2.90    0.23
   4  -9  11    2.81    0.30
  -5   9 -11    0.65    0.07
  -5   9 -11    0.62    0.15
  -5   9 -11    0.48    0.29
  -5   9 -11    0.89    0.12
  -5   9 -11    0.56    0.43
   5  -9  11    0.38    0.15
   5  -9  11    0.53    0.07
  -6   9 -11   -0.08    0.25
  -6   9 -11    0.06    0.39
  -6   9 -11   -0.06    0.11
  -7   9 -11    1.99    0.32
  -7   9 -11    1.66    0.20
  -7   9 -11    1.71    0.42
  -8   9 -11   11.88    0.97
  -8   9 -11   10.85    0.76
  -8   9 -11   11.96    0.83
   4   8 -11   22.12    1.75
  -4  -8  11   24.29    1.66
   3   8 -11    4.72    0.35
   3   8 -11    5.21    0.44
  -3  -8  11    5.50    0.44
  -3  -8  11    5.22    0.40
   2   8 -11    0.85    0.14
   2   8 -11    1.09    0.18
  -2  -8  11    1.47    0.14
  -2  -8  11    1.40    0.21
  -2  -8  11    1.18    0.18
   1   8 -11   11.53    0.70
   1   8 -11   12.37    0.75
   1   8 -11   11.66    0.91
  -1  -8  11   10.89    0.85
  -1  -8  11   10.57    0.86
   0   8 -11    4.34    0.35
   0   8 -11    4.97    0.43
  -1   8 -11    3.52    0.26
  -1   8 -11    3.38    0.55
  -1   8 -11    3.57    0.29
  -1   8 -11    3.29    0.36
   1  -8  11    3.50    0.31
   1  -8  11    3.67    0.30
  -2   8 -11    4.72    0.34
  -2   8 -11    4.96    0.32
  -2   8 -11    4.73    0.71
  -2   8 -11    4.75    0.37
   2  -8  11    5.29    0.40
   2  -8  11    4.95    0.44
  -3   8 -11    7.54    0.48
  -3   8 -11    7.46    0.89
  -3   8 -11    7.42    0.45
   3  -8  11    7.40    0.64
  -4   8 -11    0.09    0.08
  -4   8 -11    0.54    0.47
  -4   8 -11    0.06    0.07
  -4   8 -11    0.10    0.29
  -4   8 -11    0.18    0.11
   4  -8  11    0.07    0.05
   4  -8  11    0.12    0.15
  -5   8 -11    3.13    0.41
  -5   8 -11    3.22    0.21
  -5   8 -11    4.03    0.62
  -5   8 -11    3.26    0.24
  -5   8 -11    3.16    0.27
   5  -8  11    2.79    0.25
  -6   8 -11    8.89    0.61
  -6   8 -11    8.54    0.50
   6  -8  11    9.33    0.66
  -7   8 -11    3.89    0.45
  -7   8 -11    3.87    0.32
  -7   8 -11    4.18    0.60
   7  -8  11    4.01    0.31
  -8   8 -11    8.29    0.57
  -9   8 -11    1.86    0.20
  -9   8 -11    2.24    0.29
  -9   8 -11    2.04    0.35
  -5  -7  11    0.87    0.14
   4   7 -11    4.90    0.43
  -4  -7  11    5.65    0.44
   3   7 -11    0.96    0.16
   3   7 -11    1.05    0.13
  -3  -7  11    1.03    0.10
  -3  -7  11    1.15    0.19
   2   7 -11   23.11    1.44
   2   7 -11   22.44    1.75
  -2  -7  11   22.07    1.67
  -2  -7  11   24.29    1.62
   1   7 -11   47.02    2.68
   1   7 -11   41.62    3.38
   1   7 -11   47.68    2.82
   1   7 -11   44.03    3.41
  -1  -7  11   47.25    3.19
  -1  -7  11   45.07    3.28
   0   7 -11   11.30    0.79
   0   7 -11    9.64    0.64
   0   7 -11    8.41    0.60
  -1   7 -11   20.24    1.68
  -1   7 -11   24.45    1.57
   1  -7  11   18.03    1.49
   1  -7  11   19.21    1.59
  -2   7 -11   17.47    1.03
  -2   7 -11   16.26    1.48
  -2   7 -11   17.03    1.09
   2  -7  11   16.89    1.36
  -3   7 -11    8.87    0.56
  -3   7 -11    8.19    0.95
  -3   7 -11    8.36    0.59
  -3   7 -11    9.72    0.53
   3  -7  11    8.29    0.75
  -4   7 -11    0.60    0.12
  -4   7 -11    0.54    0.09
  -4   7 -11    0.50    0.10
   4  -7  11    0.47    0.08
   4  -7  11    0.32    0.18
  -5   7 -11    1.34    0.13
  -5   7 -11    0.74    0.27
  -5   7 -11    1.07    0.46
  -5   7 -11    1.15    0.15
  -5   7 -11    1.05    0.11
   5  -7  11    0.92    0.12
  -6   7 -11   26.07    1.63
  -6   7 -11   23.55    1.67
  -6   7 -11   23.99    2.02
  -6   7 -11   25.41    1.42
   6  -7  11   27.28    1.85
  -7   7 -11   -0.01    0.09
  -7   7 -11    0.45    0.39
  -7   7 -11    0.25    0.22
  -8   7 -11    1.87    0.20
  -8   7 -11    2.51    0.31
  -8   7 -11    2.77    0.47
  -9   7 -11   12.47    0.84
  -9   7 -11   12.54    1.06
  -9   7 -11   13.59    0.89
  -5  -6  11    0.14    0.12
  -4  -6  11    0.91    0.17
   3   6 -11    3.00    0.27
   3   6 -11    2.68    0.21
  -3  -6  11    2.52    0.29
  -3  -6  11    1.97    0.19
   2   6 -11    3.73    0.26
   2   6 -11    3.70    0.36
   2   6 -11    3.54    0.28
  -2  -6  11    4.22    0.36
   1   6 -11   14.51    0.87
   1   6 -11   14.91    1.12
   1   6 -11   15.29    0.92
   1   6 -11   12.11    1.09
  -1  -6  11   14.92    1.08
   0   6 -11    0.43    0.11
   0   6 -11    0.35    0.38
   0   6 -11    0.46    0.68
   0   6 -11    0.52    0.15
   0   6 -11    0.31    0.09
   0  -6  11    0.27    0.09
  -1   6 -11    2.30    0.20
  -1   6 -11    2.38    0.18
  -1   6 -11    1.32    0.72
  -1   6 -11    1.67    0.52
  -1   6 -11    2.01    0.25
   1  -6  11    1.59    0.19
   1  -6  11    1.71    0.23
  -2   6 -11   10.43    0.69
  -2   6 -11   10.93    1.42
  -2   6 -11   10.84    0.65
  -2   6 -11    8.93    1.04
   2  -6  11   10.29    0.87
  -3   6 -11   17.08    0.96
  -3   6 -11   15.70    1.01
  -3   6 -11   14.26    1.41
  -3   6 -11   14.84    1.81
  -3   6 -11   17.06    0.90
   3  -6  11   14.07    1.28
  -4   6 -11    6.72    1.16
  -4   6 -11    5.32    0.78
  -4   6 -11    6.65    0.43
  -4   6 -11    5.70    0.41
   4  -6  11    6.42    0.48
  -5   6 -11    7.02    0.80
  -5   6 -11    6.05    0.56
  -5   6 -11    6.81    0.46
   5  -6  11    6.64    0.51
  -6   6 -11    5.33    0.70
  -6   6 -11    4.94    0.50
  -6   6 -11    6.35    0.40
  -6   6 -11    5.89    0.34
   6  -6  11    5.28    0.45
  -7   6 -11   11.54    0.81
  -7   6 -11   11.45    0.74
  -7   6 -11   11.50    0.63
  -7   6 -11   10.04    1.01
   7  -6  11   11.28    0.85
  -8   6 -11    6.80    0.73
  -8   6 -11    6.91    0.48
  -8   6 -11    6.95    0.55
   8  -6  11    7.25    0.54
  -9   6 -11    0.01    0.18
  -9   6 -11    0.09    0.09
  -9   6 -11    0.24    0.29
 -10   6 -11    1.34    0.23
 -10   6 -11    1.27    0.30
   5   5 -11   14.91    1.18
  -5  -5  11   16.15    1.14
   4   5 -11    3.17    0.31
   4   5 -11    3.12    0.24
  -4  -5  11    3.65    0.33
   3   5 -11    9.43    0.72
   3   5 -11    8.96    0.59
  -3  -5  11    8.08    0.63
  -3  -5  11   10.04    0.72
   2   5 -11    4.90    0.33
   2   5 -11    4.99    0.44
   2   5 -11    4.90    0.36
  -2  -5  11    5.30    0.44
   1   5 -11   53.33    4.08
   1   5 -11   56.44    3.37
   1   5 -11   53.82    3.20
  -1  -5  11   56.53    4.40
  -1  -5  11   53.22    3.82
   0   5 -11    0.28    0.12
   0   5 -11    0.17    0.08
   0   5 -11    0.15    0.09
   0  -5  11    0.44    0.42
  -1   5 -11    0.84    0.72
  -1   5 -11    0.30    0.12
  -1   5 -11    0.24    0.10
  -1   5 -11    0.28    0.08
   1  -5  11    0.59    0.49
  -2   5 -11    8.82    0.58
  -2   5 -11    7.56    0.94
  -2   5 -11    8.20    1.26
   2  -5  11    9.55    1.12
  -3   5 -11   38.02    2.96
  -3   5 -11   38.85    3.69
  -4   5 -11    0.53    0.10
  -4   5 -11    0.93    0.47
  -4   5 -11    0.67    0.09
  -4   5 -11    1.02    0.71
   4  -5  11    0.27    0.67
   4  -5  11    0.79    0.11
  -5   5 -11    2.72    0.34
  -5   5 -11    4.57    0.94
  -5   5 -11    3.35    0.56
  -5   5 -11    2.89    0.21
   5  -5  11    2.42    0.26
   5  -5  11    2.16    0.76
  -6   5 -11    3.50    0.38
  -6   5 -11    4.30    0.29
  -6   5 -11    3.77    0.59
   6  -5  11    3.50    0.84
   6  -5  11    3.96    0.36
  -7   5 -11    0.47    0.18
  -7   5 -11    0.71    0.10
  -7   5 -11    0.88    0.37
   7  -5  11    0.47    0.15
  -8   5 -11    1.02    0.13
  -8   5 -11    1.14    0.21
  -8   5 -11    1.15    0.36
   8  -5  11    1.23    0.18
  -9   5 -11    2.17    0.28
  -9   5 -11    2.26    0.19
  -9   5 -11    2.40    0.40
 -10   5 -11    0.31    0.26
 -10   5 -11    0.07    0.17
   5   4 -11   73.48    4.81
  -5  -4  11   55.77    4.53
   4   4 -11    9.49    0.62
   4   4 -11    9.49    0.76
  -4  -4  11    9.77    0.74
   3   4 -11    1.45    0.19
   3   4 -11    1.35    0.14
  -3  -4  11    0.82    0.19
   2   4 -11   17.75    1.05
   2   4 -11   16.98    1.11
  -2  -4  11   16.99    1.26
  -2  -4  11   18.76    1.55
   1   4 -11    0.61    0.11
   1   4 -11    0.49    0.15
   1   4 -11    0.53    0.09
  -1  -4  11    1.01    0.43
  -1  -4  11    0.78    0.21
   0   4 -11   45.76    2.84
   0   4 -11   46.24    3.44
  -1   4 -11   18.69    1.61
  -1   4 -11   21.71    1.33
   1  -4  11   24.70    1.93
  -2   4 -11   38.85    2.24
  -2   4 -11   32.50    3.45
  -3   4 -11   39.83    4.37
   3  -4  11   54.56    3.95
  -4   4 -11    6.45    0.43
  -4   4 -11    6.11    1.07
  -4   4 -11    5.66    0.77
   4  -4  11    7.40    1.10
   4  -4  11    6.55    0.50
  -5   4 -11   30.55    1.89
  -5   4 -11   27.35    2.31
  -5   4 -11   29.53    1.91
  -5   4 -11   26.87    2.99
   5  -4  11   31.66    2.68
   5  -4  11   33.03    2.20
  -6   4 -11   14.22    0.97
  -6   4 -11   15.23    0.93
  -6   4 -11   12.52    1.21
   6  -4  11   15.09    1.11
   6  -4  11   15.06    1.58
  -7   4 -11    0.07    0.13
  -7   4 -11    0.08    0.06
  -7   4 -11    0.18    0.30
   7  -4  11    0.19    0.16
  -8   4 -11    0.46    0.08
  -8   4 -11    0.90    0.33
  -8   4 -11    0.36    0.15
   8  -4  11    0.46    0.17
  -9   4 -11    5.67    0.37
  -9   4 -11    5.08    0.57
  -9   4 -11    6.11    0.43
   9  -4  11    4.51    0.45
 -10   4 -11    2.32    0.26
 -10   4 -11    2.23    0.35
 -11   4 -11    0.17    0.20
   6   3 -11    1.55    0.17
  -6  -3  11    1.52    0.15
  -5  -3  11    0.50    0.13
   4   3 -11    5.55    0.37
  -4  -3  11    5.46    0.46
  -4  -3  11    5.43    0.44
   3   3 -11    2.14    0.18
  -3  -3  11    2.05    0.27
  -3  -3  11    2.46    0.26
   2   3 -11    1.95    0.22
  -2  -3  11    1.40    0.23
  -2  -3  11    0.96    0.40
   1   3 -11   11.35    0.68
   1   3 -11   11.88    0.72
   1   3 -11    9.12    0.84
  -1  -3  11   13.02    1.14
   0   3 -11  135.65    7.31
   0  -3  11  102.28    9.44
   1  -3  11    2.90    0.71
  -2   3 -11   24.10    2.45
   3  -3  11    4.95    0.89
  -4   3 -11    3.76    0.82
   4  -3  11    2.65    0.80
   4  -3  11    3.06    0.28
  -5   3 -11   79.16    4.74
  -5   3 -11   88.95    5.60
   5  -3  11   64.60    5.49
   5  -3  11   72.74    6.18
  -6   3 -11   16.21    1.47
  -6   3 -11   17.97    1.18
  -6   3 -11   19.23    1.16
   6  -3  11   18.06    1.38
   6  -3  11   20.22    1.82
  -7   3 -11   67.92    3.98
  -7   3 -11   63.92    3.95
  -7   3 -11   60.49    4.67
   7  -3  11   56.08    4.62
   7  -3  11   70.90    5.20
  -8   3 -11    9.41    0.58
  -8   3 -11    8.08    0.80
  -8   3 -11    8.39    0.60
  -9   3 -11    3.49    0.27
  -9   3 -11    2.88    0.42
  -9   3 -11    2.76    0.21
   9  -3  11    2.22    0.29
 -10   3 -11    1.61    0.20
 -10   3 -11    1.54    0.31
 -11   3 -11    8.33    0.70
 -11   3 -11    8.72    0.59
   6   2 -11    0.10    0.08
  -6  -2  11    0.02    0.08
  -5  -2  11    3.13    0.28
   4   2 -11    1.70    0.15
  -4  -2  11    1.62    0.21
  -4  -2  11    1.98    0.23
   3   2 -11    4.09    0.28
   3   2 -11    3.73    0.36
  -3  -2  11    3.84    0.37
  -3  -2  11    4.16    0.37
   2   2 -11    1.86    0.15
   2   2 -11    1.78    0.16
   2   2 -11    1.60    0.21
  -2  -2  11    2.30    0.45
  -2  -2  11    1.88    0.24
  -2  -2  11    1.79    0.26
   1   2 -11    1.29    0.13
   1   2 -11    0.80    0.16
  -1  -2  11    0.85    0.43
   0   2 -11    0.24    0.07
   0  -2  11   -0.15    0.46
  -1   2 -11    8.78    1.29
  -1   2 -11    9.05    0.62
  -2   2 -11    5.35    1.08
  -2   2 -11    7.06    0.50
   2  -2  11    8.90    1.10
  -3   2 -11    0.93    0.55
  -3   2 -11    0.64    0.10
   3  -2  11    0.83    0.70
  -4   2 -11    1.82    0.57
   4  -2  11   -0.05    0.68
   5  -2  11    3.43    0.82
   5  -2  11    3.02    0.32
  -6   2 -11    2.10    0.42
  -6   2 -11    2.58    0.17
  -6   2 -11    2.13    0.22
   6  -2  11    1.59    0.28
   6  -2  11    2.31    0.70
  -7   2 -11    0.42    0.12
  -7   2 -11    0.68    0.30
  -7   2 -11    0.44    0.07
   7  -2  11    0.38    0.20
   7  -2  11    0.33    0.59
  -8   2 -11    4.32    0.51
  -8   2 -11    4.60    0.32
  -8   2 -11    4.27    0.29
   8  -2  11    3.13    0.39
  -9   2 -11    3.04    0.28
  -9   2 -11    3.92    0.25
  -9   2 -11    2.47    0.41
 -10   2 -11   15.67    0.96
 -10   2 -11   13.89    1.16
 -11   2 -11    3.22    0.38
 -11   2 -11    4.01    0.30
   6   1 -11    2.43    0.23
  -6  -1  11    2.65    0.23
  -5  -1  11    0.06    0.11
   4   1 -11   24.50    1.52
  -4  -1  11   24.32    1.71
   3   1 -11    0.70    0.08
   3   1 -11    0.69    0.10
   3   1 -11    0.52    0.14
  -3  -1  11    0.98    0.32
  -3  -1  11    0.90    0.19
   2   1 -11   16.18    0.97
   2   1 -11   16.18    1.35
   2   1 -11   19.47    1.15
   2   1 -11   18.80    1.09
  -2  -1  11   19.22    1.33
  -2  -1  11   21.33    1.61
  -2  -1  11   18.10    1.29
   1   1 -11   41.68    3.44
   1   1 -11   49.58    2.94
  -1  -1  11   52.73    3.89
   0   1 -11   35.17    2.31
   0  -1  11   36.51    2.97
  -1   1 -11    4.99    0.38
  -1   1 -11    7.95    1.11
   1  -1  11    7.57    0.95
  -2   1 -11   11.64    1.68
  -2   1 -11   15.76    1.04
   2  -1  11   20.01    1.65
  -3   1 -11   11.86    0.80
   3  -1  11   11.63    1.34
  -4   1 -11    0.66    0.46
  -4   1 -11    0.33    0.08
   4  -1  11    0.58    0.63
   5  -1  11    1.50    0.23
   5  -1  11    1.98    0.68
  -6   1 -11   41.90    2.41
  -6   1 -11   40.14    2.39
   6  -1  11   39.44    3.23
   6  -1  11   32.24    2.81
  -7   1 -11    0.05    0.05
  -7   1 -11    0.15    0.09
  -7   1 -11    0.01    0.28
   7  -1  11    0.00    0.17
   7  -1  11    0.17    0.55
  -8   1 -11    8.87    0.59
  -8   1 -11    8.64    0.61
  -8   1 -11   10.57    0.82
  -9   1 -11    2.28    0.20
  -9   1 -11    2.47    0.35
  -9   1 -11    1.84    0.15
   9  -1  11    1.27    0.24
 -10   1 -11    4.28    0.32
 -10   1 -11    4.18    0.45
 -11   1 -11    2.38    0.22
  -7   0  11    5.59    0.41
  -6   0  11    0.22    0.10
   5   0 -11   10.01    0.52
   5   0 -11    9.04    0.61
  -5   0  11    9.57    0.71
   4   0 -11   25.13    1.29
   4   0 -11   23.80    1.51
  -4   0  11   24.21    1.71
   3   0 -11    2.60    0.16
   3   0 -11    2.41    0.26
   3   0 -11    2.33    0.19
   3   0 -11    2.54    0.18
  -3   0  11    2.40    0.29
  -3   0  11    2.81    0.43
   2   0 -11    0.11    0.07
   2   0 -11    0.25    0.05
   2   0 -11    0.05    0.05
   2   0 -11    0.13    0.11
  -2   0  11    0.17    0.31
  -2   0  11    0.09    0.17
   1   0 -11   49.97    4.01
   1   0 -11   56.33    3.43
  -1   0  11   62.01    4.51
   0   0 -11    0.94    0.69
   0   0 -11    0.14    0.06
   0   0  11    0.28    0.43
  -1   0 -11   19.52    1.38
   1   0  11   23.81    1.91
  -2   0 -11    1.04    0.11
   2   0  11    0.66    0.64
  -3   0 -11    6.54    0.46
   3   0  11    8.84    2.12
   3   0  11    6.53    1.06
  -4   0 -11    5.62    0.41
   4   0  11    6.11    0.92
   4   0  11    6.76    2.25
  -5   0 -11    1.12    0.13
   5   0  11   -0.09    2.11
   5   0  11    0.80    0.62
  -6   0 -11   10.70    0.70
  -6   0 -11   11.15    0.71
   6   0  11   14.95    2.75
   6   0  11   10.23    1.20
  -7   0 -11   20.38    1.29
  -7   0 -11   21.07    1.29
   7   0  11   19.73    1.85
  -8   0 -11    6.97    0.44
  -8   0 -11    6.37    0.42
   8   0  11    4.49    0.67
  -9   0 -11    1.07    0.10
  -9   0 -11    1.97    0.29
  -9   0 -11    1.19    0.14
   9   0  11    0.73    0.39
   9   0  11    0.55    0.18
 -10   0 -11    0.23    0.20
 -10   0 -11    0.09    0.09
  10   0  11    0.06    0.31
 -11   0 -11    0.25    0.18
 -11   0 -11    0.23    0.10
  11   0  11    0.17    0.25
  -7   1  11    0.21    0.07
   6  -1 -11    1.28    0.29
  -6   1  11    1.17    0.12
  -6   1  11    1.45    0.16
   5  -1 -11    0.12    0.06
   5  -1 -11    0.17    0.06
  -5   1  11   -0.04    0.11
  -5   1  11    0.04    0.06
   4  -1 -11    9.08    0.52
  -4   1  11    6.83    0.61
   3  -1 -11   13.61    0.89
   3  -1 -11   13.78    0.84
   3  -1 -11   13.77    0.76
  -3   1  11   14.54    0.96
  -3   1  11   14.38    1.04
  -3   1  11   15.29    1.25
   2  -1 -11    0.29    0.07
   2  -1 -11    0.36    0.05
   2  -1 -11    0.42    0.06
  -2   1  11    0.22    0.10
  -2   1  11    0.55    0.36
  -2   1  11    0.42    0.31
  -2   1  11    0.25    0.17
   1  -1 -11   22.28    1.43
  -1   1  11   23.28    2.56
  -1   1  11   24.40    1.97
   0   1  11    1.81    0.63
   0   1  11    0.85    0.41
   1   1  11    4.19    1.20
  -2  -1 -11    6.77    0.49
  -2  -1 -11    7.51    1.06
   2   1  11   11.26    1.90
   2   1  11    7.56    0.98
  -3  -1 -11    5.01    0.89
  -3  -1 -11    5.26    0.37
   3   1  11    4.53    0.80
   3   1  11    6.80    2.08
  -4  -1 -11    2.92    0.70
  -4  -1 -11    4.58    0.31
   4   1  11    3.54    0.76
   4   1  11    3.35    2.17
  -5  -1 -11   11.88    1.40
  -5  -1 -11   13.82    0.87
   5   1  11   13.93    1.37
   5   1  11    8.20    2.65
  -6  -1 -11    8.31    0.52
  -6  -1 -11    8.42    0.53
   6   1  11    6.30    0.98
   7   1  11    0.29    0.52
   7   1  11    0.34    0.41
   7   1  11    0.30    0.18
  -8  -1 -11    9.08    0.55
  -8  -1 -11    8.52    0.55
   8   1  11    6.12    0.83
  -9  -1 -11    3.25    0.22
  -9  -1 -11    3.37    0.25
   9   1  11    2.05    0.48
 -10  -1 -11    1.46    0.26
 -10  -1 -11    1.72    0.16
  10   1  11    1.30    0.39
 -11  -1 -11   13.17    0.98
  11   1  11   12.20    0.96
  -7   2  11    2.32    0.19
   6  -2 -11    0.02    0.05
  -6   2  11    0.03    0.05
  -6   2  11    0.00    0.09
  -5   2  11   10.98    0.78
  -5   2  11   10.35    0.72
   4  -2 -11   13.93    0.71
   4  -2 -11   13.08    0.84
  -4   2  11   13.65    0.97
  -4   2  11   12.60    0.90
   3  -2 -11    7.32    0.40
   3  -2 -11    7.36    0.45
   3  -2 -11    7.34    0.48
  -3   2  11    7.34    0.53
  -3   2  11    7.51    0.59
  -3   2  11    7.91    0.74
   2  -2 -11   94.68    5.79
   2  -2 -11   90.90    5.51
   2  -2 -11   95.26    4.97
  -2   2  11   97.48    7.50
  -2   2  11   94.25    6.17
  -2   2  11   96.07    6.46
   1  -2 -11    2.53    0.18
   1  -2 -11    2.32    0.14
  -1   2  11    3.32    0.64
  -1   2  11    3.00    0.46
   0  -2 -11    6.09    0.44
   0   2  11    6.37    0.74
   0   2  11    8.18    1.31
   1   2  11    3.89    1.23
   1   2  11    1.86    0.52
  -2  -2 -11    2.15    0.17
   2   2  11    3.23    1.61
   2   2  11    1.73    0.58
  -3  -2 -11    0.03    0.05
   3   2  11    0.07    1.89
   3   2  11    0.08    0.56
  -4  -2 -11    1.10    0.11
   4   2  11    0.95    0.60
   4   2  11    1.30    2.13
   5   2  11   -1.40    2.12
   5   2  11    1.14    0.59
  -6  -2 -11   45.96    2.75
   6   2  11   41.63    3.60
  -7  -2 -11   24.55    1.53
  -7  -2 -11   26.08    1.55
   7   2  11   22.48    2.13
  -8  -2 -11    5.55    0.35
  -8  -2 -11    5.15    0.35
   8   2  11    3.74    0.61
  -9  -2 -11    1.90    0.14
  -9  -2 -11    1.74    0.16
   9   2  11    1.19    0.44
 -10  -2 -11    4.49    0.30
  10   2  11    3.05    0.51
 -11  -2 -11    0.15    0.08
  11   2  11    0.12    0.28
  -7   3  11   23.09    1.52
  -7   3  11   21.58    1.45
   6  -3 -11    1.03    0.09
  -6   3  11    1.19    0.14
  -6   3  11    0.95    0.11
  -6   3  11    1.02    0.07
   5  -3 -11    7.27    0.53
   5  -3 -11    9.49    0.46
   4  -3 -11    2.47    0.18
  -4   3  11    2.40    0.25
  -4   3  11    2.34    0.21
   3  -3 -11   72.19    4.36
   3  -3 -11   75.82    3.93
   3  -3 -11   75.34    4.58
  -3   3  11   77.68    5.11
  -3   3  11   73.37    4.88
   2  -3 -11   10.67    0.64
   2  -3 -11    9.57    0.61
   2  -3 -11    9.97    0.54
  -2   3  11   10.33    0.78
  -2   3  11   10.18    0.71
   1  -3 -11    0.74    0.06
   1  -3 -11    0.75    0.09
  -1   3  11    0.80    0.48
   0  -3 -11   51.64    3.33
   0   3  11   52.16    5.49
  -1  -3 -11    9.40    0.65
   1   3  11   13.71    2.38
  -2  -3 -11   21.21    1.40
   2   3  11   23.02    3.60
  -3  -3 -11   19.56    1.28
   3   3  11   20.30    3.76
  -4  -3 -11    6.92    0.48
   4   3  11    9.73    2.53
   5   3  11   40.10    5.60
  -6  -3 -11    4.82    0.32
   6   3  11    2.50    2.35
  -7  -3 -11   23.54    1.41
  -7  -3 -11   21.23    1.39
  -8  -3 -11   30.07    1.85
  -8  -3 -11   29.07    1.83
  -9  -3 -11    6.20    0.40
  -9  -3 -11    6.36    0.41
   9   3  11    4.84    0.66
 -10  -3 -11    0.38    0.08
  10   3  11    0.44    0.37
 -11  -3 -11    0.10    0.07
  11   3  11    0.12    0.28
   6  -4 -11    0.20    0.04
  -6   4  11    0.18    0.06
  -6   4  11    0.11    0.08
  -6   4  11    0.13    0.03
   5  -4 -11   14.99    0.76
   5  -4 -11   13.75    0.89
  -5   4  11   14.43    0.95
  -5   4  11   13.46    0.81
  -5   4  11   14.96    1.01
   4  -4 -11    7.38    0.48
   4  -4 -11    7.46    0.46
   4  -4 -11    7.36    0.41
  -4   4  11    7.73    0.57
  -4   4  11    7.96    0.53
   3  -4 -11    6.80    0.41
   3  -4 -11    6.62    0.37
   3  -4 -11    6.88    0.44
  -3   4  11    6.83    0.54
  -3   4  11    6.93    0.49
   2  -4 -11   50.11    2.67
   2  -4 -11   49.02    2.96
   2  -4 -11   51.81    3.12
  -2   4  11   51.20    3.49
  -2   4  11   51.96    3.33
   1  -4 -11   25.74    1.60
   1  -4 -11   25.84    1.37
  -1   4  11   26.23    2.86
   0  -4 -11    4.73    0.36
   0  -4 -11    5.34    0.34
   0   4  11    5.97    0.98
  -1  -4 -11    1.04    0.11
   1   4  11    2.15    1.18
  -2  -4 -11   64.45    4.33
   2   4  11   71.91    7.43
  -3  -4 -11   56.44    3.57
   3   4  11   53.89    6.47
  -4  -4 -11  110.58    6.76
   4   4  11   99.04   11.35
  -5  -4 -11   18.88    1.20
   5   4  11   20.24    3.43
  -6  -4 -11    2.22    0.16
   6   4  11    1.69    0.46
  -7  -4 -11    6.51    0.43
  -7  -4 -11    6.81    0.42
   7   4  11    5.39    0.71
  -8  -4 -11    1.13    0.11
  -8  -4 -11    1.26    0.10
   8   4  11    0.59    0.42
  -9  -4 -11    7.78    0.50
  -9  -4 -11    7.92    0.49
   9   4  11    6.23    0.79
 -10  -4 -11    0.02    0.06
  10   4  11    0.05    0.34
 -11  -4 -11    0.67    0.08
  11   4  11    0.33    0.26
  11   4  11    0.54    0.27
   6  -5 -11   17.90    0.95
  -6   5  11   17.10    1.01
  -6   5  11   17.74    1.23
  -6   5  11   19.05    1.18
  -5   5  11    1.15    0.08
   4  -5 -11   22.95    1.40
   4  -5 -11   22.92    1.20
   4  -5 -11   23.08    1.33
   4  -5 -11   21.99    1.66
  -4   5  11   22.53    1.58
  -4   5  11   22.82    1.50
   3  -5 -11   34.17    2.06
   3  -5 -11   33.29    1.96
   3  -5 -11   33.34    1.77
   3  -5 -11   32.51    2.43
  -3   5  11   32.48    2.32
  -3   5  11   35.47    2.21
   2  -5 -11   13.40    0.80
   2  -5 -11   12.43    0.76
   2  -5 -11   12.65    0.68
  -2   5  11   11.92    0.93
  -2   5  11   13.27    0.88
   1  -5 -11   38.37    2.21
   1  -5 -11   37.15    1.98
  -1   5  11   38.34    2.49
  -1   5  11   36.99    2.61
   0  -5 -11   47.75    2.43
   0   5  11   44.20    4.89
   1   5  11    1.26    1.05
  -2  -5 -11  209.39   14.02
   2   5  11  231.07   22.44
  -3  -5 -11    8.73    0.59
  -4  -5 -11   16.09    1.01
  -5  -5 -11   65.02    3.91
   5   5  11   58.02    7.55
  -6  -5 -11    1.45    0.11
   6   5  11    0.80    0.41
  -7  -5 -11    7.21    0.43
  -7  -5 -11    6.41    0.43
   7   5  11    5.03    0.76
  -8  -5 -11    3.78    0.26
  -8  -5 -11    3.85    0.25
   8   5  11    3.86    0.57
  -9  -5 -11    0.19    0.06
   9   5  11   -0.11    0.37
 -10  -5 -11    0.29    0.06
  10   5  11    0.37    0.33
  11   5  11    1.74    0.27
   6  -6 -11   17.60    0.93
  -6   6  11   16.76    1.00
  -6   6  11   18.77    1.16
   5  -6 -11   28.75    1.46
   5  -6 -11   27.28    1.71
  -5   6  11   26.00    1.57
  -5   6  11   29.27    1.82
   4  -6 -11   72.78    4.31
   4  -6 -11   68.98    3.70
   4  -6 -11   69.84    4.10
   4  -6 -11   67.14    5.07
  -4   6  11   69.49    3.96
  -4   6  11   74.71    4.59
   3  -6 -11    4.65    0.29
   3  -6 -11    4.22    0.27
   3  -6 -11    4.26    0.34
   3  -6 -11    4.35    0.24
  -3   6  11    4.21    0.41
  -3   6  11    4.65    0.33
   2  -6 -11    2.19    0.19
   2  -6 -11    2.07    0.15
  -2   6  11    2.18    0.20
  -2   6  11    1.79    0.23
   1  -6 -11    2.46    0.14
  -1   6  11    2.54    0.24
  -1   6  11    2.52    0.29
   0  -6 -11    4.55    0.25
   0   6  11    5.98    1.06
   0   6  11    4.06    0.36
  -1  -6 -11   74.01    3.96
   1   6  11   77.45    7.95
  -2  -6 -11    5.41    0.29
  -3  -6 -11   44.17    2.92
   3   6  11   52.37    5.63
  -4  -6 -11   43.29    2.69
   4   6  11   42.60    5.70
  -5  -6 -11    2.44    0.17
   5   6  11    2.21    0.40
  -6  -6 -11    1.07    0.09
   6   6  11    1.07    0.38
  -7  -6 -11   40.04    2.34
  -7  -6 -11   37.95    2.31
   7   6  11   33.29    2.59
  -8  -6 -11    1.76    0.13
  -8  -6 -11    1.84    0.14
   8   6  11    1.74    0.44
  -9  -6 -11    0.77    0.09
   9   6  11    0.76    0.36
 -10  -6 -11    0.15    0.05
  10   6  11    0.09    0.27
  -6   7  11    2.62    0.19
   5  -7 -11    1.80    0.10
   5  -7 -11    1.91    0.13
  -5   7  11    1.75    0.15
  -5   7  11    1.61    0.11
   4  -7 -11    0.56    0.07
   4  -7 -11    0.52    0.05
   4  -7 -11    0.47    0.05
  -4   7  11    0.38    0.05
  -4   7  11    0.49    0.08
   3  -7 -11   10.26    0.63
   3  -7 -11    9.56    0.78
   3  -7 -11   10.83    0.56
  -3   7  11   11.47    0.72
  -3   7  11   10.96    0.60
  -3   7  11   10.27    0.93
   2  -7 -11    2.52    0.15
   2  -7 -11    2.62    0.22
  -2   7  11    2.54    0.22
  -2   7  11    2.48    0.27
  -2   7  11    2.75    0.23
   1  -7 -11  105.99    5.71
  -1   7  11  113.32    7.08
  -1   7  11  107.48    9.29
   0  -7 -11   75.11    3.92
   0   7  11   74.72    6.39
   0   7  11   76.00    9.27
   0   7  11   73.29    4.88
  -1  -7 -11   25.26    1.24
   1   7  11   24.04    2.05
   1   7  11   20.92    1.56
   1   7  11   23.44    3.10
  -2  -7 -11  106.71    7.03
  -2  -7 -11  123.93    5.93
   2   7  11  100.25    7.36
   2   7  11  121.60    9.67
  -3  -7 -11   11.83    0.73
   3   7  11   11.16    0.83
  -4  -7 -11    0.28    0.05
   4   7  11    0.36    0.22
  -5  -7 -11   52.40    3.21
   5   7  11   50.34    3.43
  -6  -7 -11   11.03    0.70
   6   7  11   10.89    0.91
  -7  -7 -11    0.31    0.06
  -7  -7 -11    0.36    0.05
   7   7  11    0.38    0.33
  -8  -7 -11   15.28    0.94
  -8  -7 -11   14.78    0.94
   8   7  11   14.96    1.15
  -9  -7 -11    0.39    0.06
   9   7  11    0.91    0.30
  10   7  11    1.61    0.25
   5  -8 -11    2.52    0.17
   5  -8 -11    2.51    0.14
  -5   8  11    2.24    0.18
   4  -8 -11    2.57    0.14
   4  -8 -11    2.74    0.18
   4  -8 -11    2.55    0.16
  -4   8  11    2.30    0.15
  -4   8  11    2.67    0.20
   3  -8 -11    1.11    0.08
   3  -8 -11    1.06    0.12
   3  -8 -11    1.18    0.09
  -3   8  11    1.17    0.08
  -3   8  11    1.33    0.15
  -3   8  11    1.18    0.13
   2  -8 -11   32.13    1.67
   2  -8 -11   31.29    2.30
  -2   8  11   29.76    2.73
  -2   8  11   34.19    2.09
   1  -8 -11    8.14    0.45
  -1   8  11    8.68    0.59
  -1   8  11    8.88    0.76
  -1   8  11    8.08    0.62
  -1  -8 -11    0.56    0.05
   1   8  11    0.39    0.12
   1   8  11    0.63    0.17
   1   8  11    0.41    0.85
  -2  -8 -11   13.84    0.67
  -2  -8 -11   12.16    0.80
   2   8  11   12.15    2.10
   2   8  11   12.80    1.16
   2   8  11   11.66    0.87
  -3  -8 -11   33.26    2.15
   3   8  11   35.82    4.64
   3   8  11   37.89    3.01
   3   8  11   31.50    2.29
  -6  -8 -11    7.13    0.46
   6   8  11    7.47    0.64
  -8  -8 -11    8.09    0.52
  -8  -8 -11    7.89    0.52
   8   8  11    8.73    0.67
  -9  -8 -11    5.15    0.33
   9   8  11    5.21    0.45
  -5   9  11    0.53    0.04
   4  -9 -11    8.11    0.48
   4  -9 -11    8.44    0.50
   4  -9 -11    8.18    0.43
  -4   9  11    8.13    0.54
  -4   9  11    7.42    0.46
   3  -9 -11    1.99    0.13
   3  -9 -11    1.78    0.11
  -3   9  11    1.97    0.16
  -3   9  11    1.78    0.12
   2  -9 -11    2.65    0.22
   2  -9 -11    2.66    0.15
  -2   9  11    2.88    0.17
  -2   9  11    2.80    0.27
  -2   9  11    2.68    0.22
   1  -9 -11    4.59    0.25
  -1   9  11    4.66    0.44
  -1   9  11    4.59    0.35
   0  -9 -11   21.29    1.12
   0   9  11   21.16    1.42
   0   9  11   21.44    1.85
  -1  -9 -11   13.50    1.23
  -1  -9 -11   15.14    0.75
   1   9  11   14.40    1.27
   1   9  11   14.27    2.00
   1   9  11   13.39    0.97
  -2  -9 -11    1.78    0.10
  -2  -9 -11    1.59    0.13
  -2  -9 -11    1.59    0.40
   2   9  11    2.37    1.02
   2   9  11    1.41    0.19
   2   9  11    2.05    0.35
  -3  -9 -11    6.13    0.39
   3   9  11    5.71    0.46
   4   9  11   10.38    1.02
  -5  -9 -11    0.11    0.04
   5   9  11    0.39    0.35
   5   9  11    0.18    0.16
   5   9  11    1.22    1.41
  -6  -9 -11    3.35    0.22
   6   9  11    2.39    1.43
   6   9  11    2.92    0.33
   6   9  11    3.60    0.56
  -7  -9 -11    1.63    0.12
   7   9  11    1.78    0.25
   7   9  11    1.15    1.27
  -9  -9 -11    0.50    0.06
   9   9  11    0.24    0.86
   4 -10 -11   26.38    1.39
   4 -10 -11   26.48    1.62
   4 -10 -11   26.45    1.54
   3 -10 -11    3.65    0.20
   3 -10 -11    3.80    0.22
  -3  10  11    3.37    0.21
   2 -10 -11    0.46    0.04
  -2  10  11    0.44    0.05
   1 -10 -11    2.89    0.17
  -1  10  11    3.19    0.31
  -1  10  11    3.14    0.19
   0 -10 -11    1.51    0.09
   0  10  11    1.62    0.22
  -1 -10 -11   13.60    0.70
   1  10  11   13.36    1.18
   1  10  11   12.76    1.84
  -2 -10 -11    2.87    0.21
  -2 -10 -11    3.35    0.17
   2  10  11    2.94    0.40
   2  10  11    4.08    1.01
  -3 -10 -11    0.17    0.04
   3  10  11    0.31    0.20
   3  10  11    0.18    1.05
  -4 -10 -11   15.81    0.98
   4  10  11   14.21    2.53
   4  10  11   15.96    1.42
   5  10  11    0.22    0.29
   5  10  11    1.93    1.27
  -7 -10 -11   20.00    1.25
   7  10  11   20.04    2.95
  -8 -10 -11    3.36    0.22
  -8 -10 -11    3.39    0.23
   8  10  11    5.52    1.36
   3 -11 -11    5.63    0.33
   3 -11 -11    5.44    0.35
   3 -11 -11    5.53    0.30
   2 -11 -11    3.55    0.19
  -2  11  11    3.36    0.20
   1 -11 -11    4.15    0.22
  -1  11  11    4.06    0.24
   0  11  11    0.37    0.05
  -1 -11 -11   34.15    1.79
   1  11  11   34.01    2.93
   1  11  11   33.88    4.28
  -2 -11 -11   15.65    0.81
  -2 -11 -11   13.78    0.97
   2  11  11   16.78    2.12
   2  11  11   16.06    1.36
   3  11  11    2.93    0.98
  -4 -11 -11    7.39    0.48
   4  11  11    8.81    1.71
  -5 -11 -11   12.21    0.81
   5  11  11   15.07    2.16
   6  11  11    2.86    1.10
  -7 -11 -11   13.09    0.83
   7  11  11   13.54    2.08
   3 -12 -11   32.16    1.87
   2 -12 -11    0.64    0.04
   2 -12 -11    0.67    0.06
  -2  12  11    0.56    0.05
   1 -12 -11    0.07    0.02
  -1  12  11    0.01    0.03
   0 -12 -11    3.26    0.18
   0  12  11    3.26    0.20
  -1 -12 -11    3.21    0.18
  -2 -12 -11    1.12    0.09
   2  12  11    1.43    0.61
  -3 -12 -11    2.45    0.16
   3  12  11    1.85    0.78
  -4 -12 -11    5.54    0.35
   4  12  11    4.91    1.12
  -5 -12 -11    1.58    0.11
   5  12  11    1.52    0.84
  -6 -12 -11    3.15    0.21
   6  12  11    4.52    1.09
   1 -13 -11    9.54    0.49
   1 -13 -11    9.34    0.55
  -1  13  11    9.09    0.53
   0 -13 -11   13.28    0.66
   0  13  11   11.68    0.71
  -1 -13 -11    9.33    0.51
   1  13  11    9.86    0.55
  -2 -13 -11    1.55    0.11
  -3 -13 -11    4.60    0.29
   3  13  11    4.18    0.80
   4  13  11   -0.23    0.53
   5  13  11    0.12    0.51
  -3 -14 -11    2.15    0.14
  -3  12 -12    2.91    0.20
   0  11 -12    1.61    0.13
   0  11 -12    1.42    0.12
   0 -11  12    1.83    0.16
   0 -11  12    1.93    0.15
  -1  11 -12    3.42    0.23
  -1  11 -12    3.73    0.25
  -1  11 -12    3.52    0.40
   1 -11  12    3.77    0.29
   1 -11  12    3.88    0.30
  -2  11 -12    5.87    0.57
  -2  11 -12    6.25    0.37
  -2  11 -12    6.29    0.40
   2 -11  12    6.53    0.47
  -3  11 -12    0.39    0.05
  -3  11 -12    0.34    0.08
  -3  11 -12    0.07    0.22
   3 -11  12    0.15    0.06
   3 -11  12    0.18    0.04
  -4  11 -12    1.54    0.30
  -4  11 -12    1.31    0.14
   4 -11  12    1.93    0.16
   4 -11  12    1.93    0.16
  -5  11 -12   12.36    1.13
   5 -11  12   15.65    1.14
   5 -11  12   15.57    1.07
   6 -11  12    1.98    0.17
   1  10 -12   10.57    0.88
  -1 -10  12   11.34    0.84
  -1 -10  12   11.46    0.84
  -1 -10  12   12.37    0.81
   0  10 -12    4.81    0.31
   0  10 -12    5.12    0.32
   0  10 -12    5.21    0.41
   0 -10  12    5.09    0.38
   0 -10  12    4.62    0.39
  -1  10 -12    9.07    0.53
  -1  10 -12    8.02    0.67
  -1  10 -12    8.70    0.75
  -1  10 -12    8.21    0.50
  -2  10 -12    5.48    0.38
  -2  10 -12    5.52    0.58
  -2  10 -12    5.28    0.35
   2 -10  12    6.25    0.46
   2 -10  12    6.32    0.45
  -3  10 -12    0.28    0.29
  -3  10 -12    0.13    0.08
  -3  10 -12    0.20    0.07
   3 -10  12    0.28    0.07
   3 -10  12    0.31    0.08
  -4  10 -12   11.06    0.72
  -4  10 -12   11.76    0.66
  -4  10 -12   10.69    0.99
   4 -10  12   12.37    0.92
   4 -10  12   12.29    0.86
  -5  10 -12    6.01    0.40
  -5  10 -12    5.28    0.53
  -5  10 -12    6.62    0.65
  -5  10 -12    6.06    0.46
   5 -10  12    7.25    0.48
  -6  10 -12    1.46    0.32
  -6  10 -12    1.02    0.24
  -6  10 -12    0.90    0.15
   6 -10  12    1.23    0.14
  -7  10 -12    7.32    0.53
  -7  10 -12    7.20    0.67
   7 -10  12    8.54    0.62
   2   9 -12    4.22    0.38
  -2  -9  12    4.62    0.37
  -2  -9  12    4.63    0.34
   1   9 -12    1.00    0.16
   1   9 -12    0.95    0.12
  -1  -9  12    1.22    0.16
  -1  -9  12    1.27    0.19
  -1  -9  12    1.25    0.12
   0   9 -12    3.00    0.27
   0   9 -12    2.94    0.40
   0   9 -12    2.84    0.21
   0  -9  12    2.48    0.27
   0  -9  12    2.67    0.23
  -1   9 -12    3.00    0.31
  -1   9 -12    2.72    0.43
  -1   9 -12    3.49    0.24
  -1   9 -12    3.39    0.23
   1  -9  12    3.64    0.28
  -2   9 -12    2.79    0.21
  -2   9 -12    2.10    0.42
  -2   9 -12    2.66    0.20
   2  -9  12    2.77    0.24
   2  -9  12    2.79    0.24
  -3   9 -12    8.69    0.56
  -3   9 -12    7.86    0.84
  -3   9 -12    8.64    0.53
   3  -9  12    9.54    0.67
   3  -9  12    9.65    0.72
  -4   9 -12    0.64    0.37
  -4   9 -12    0.62    0.10
  -4   9 -12    0.82    0.10
  -4   9 -12    0.65    0.14
   4  -9  12    0.74    0.13
  -5   9 -12    8.28    0.53
  -5   9 -12    9.22    0.84
  -5   9 -12    7.38    0.67
  -5   9 -12    9.04    0.48
  -5   9 -12    8.55    0.59
   5  -9  12    8.32    0.70
  -6   9 -12    1.35    0.18
  -6   9 -12    1.58    0.39
  -6   9 -12    0.86    0.26
   6  -9  12    1.30    0.18
  -7   9 -12    0.68    0.31
  -7   9 -12    0.58    0.22
  -7   9 -12    0.83    0.14
   7  -9  12    0.65    0.12
  -8   9 -12    0.10    0.10
  -8   9 -12    0.10    0.22
   3   8 -12    3.96    0.35
  -3  -8  12    4.16    0.35
   2   8 -12   11.78    0.97
   2   8 -12   12.14    0.80
  -2  -8  12   12.56    0.87
  -2  -8  12   13.77    0.93
   1   8 -12    2.30    0.18
   1   8 -12    2.44    0.20
   1   8 -12    2.72    0.26
  -1  -8  12    2.14    0.20
  -1  -8  12    2.53    0.25
   0   8 -12   17.49    0.98
   0   8 -12   15.51    1.23
   0   8 -12   17.16    1.18
   0   8 -12   15.28    0.92
   0  -8  12   12.82    1.11
   0  -8  12   13.34    1.11
  -1   8 -12    0.88    0.12
  -1   8 -12    1.25    0.15
   1  -8  12    0.78    0.12
  -2   8 -12    0.42    0.09
  -2   8 -12    0.72    0.11
  -2   8 -12    0.25    0.08
   2  -8  12    0.14    0.07
   2  -8  12    0.09    0.08
  -3   8 -12    7.96    0.49
  -3   8 -12    7.71    0.83
  -3   8 -12    8.51    0.52
   3  -8  12    8.25    0.67
  -4   8 -12    0.06    0.10
  -4   8 -12    0.10    0.06
  -4   8 -12    0.56    0.40
  -4   8 -12    0.13    0.08
   4  -8  12   -0.01    0.12
  -5   8 -12   10.27    0.67
  -5   8 -12    9.19    0.61
  -5   8 -12   10.63    0.98
  -5   8 -12   11.20    0.57
  -5   8 -12    8.81    0.77
   5  -8  12    9.24    0.82
   5  -8  12    9.96    0.73
  -6   8 -12   45.75    2.58
  -6   8 -12   42.93    3.07
  -6   8 -12   37.64    2.59
   6  -8  12   36.70    3.16
  -7   8 -12    0.55    0.23
  -7   8 -12    0.33    0.11
  -7   8 -12    0.46    0.36
   7  -8  12    0.17    0.12
  -8   8 -12    0.16    0.20
  -8   8 -12    0.71    0.30
  -8   8 -12    0.07    0.10
   8  -8  12    0.13    0.10
   4   7 -12   11.91    0.99
  -4  -7  12   14.20    0.95
   3   7 -12   12.17    0.94
   3   7 -12   10.93    0.77
  -3  -7  12   13.57    0.91
   2   7 -12    3.60    0.33
   2   7 -12    3.43    0.27
  -2  -7  12    3.94    0.35
  -2  -7  12    3.60    0.29
   1   7 -12    4.58    0.41
   1   7 -12    4.96    0.34
   1   7 -12    4.69    0.32
  -1  -7  12    5.01    0.41
   0   7 -12   22.12    1.29
   0   7 -12   21.86    1.68
   0   7 -12   22.09    1.64
   0   7 -12   23.18    1.36
   0  -7  12   18.20    1.55
  -1   7 -12    2.94    0.48
  -1   7 -12    3.30    0.31
  -1   7 -12    3.32    0.23
  -1   7 -12    3.67    0.26
   1  -7  12    2.99    0.27
   1  -7  12    2.74    0.26
  -2   7 -12    0.41    0.37
  -2   7 -12    0.34    0.10
  -2   7 -12    0.25    0.09
   2  -7  12    0.26    0.10
   2  -7  12    0.26    0.08
  -3   7 -12   11.30    1.09
  -3   7 -12   11.32    0.68
  -3   7 -12   12.74    0.73
  -3   7 -12   11.91    0.77
   3  -7  12   11.60    0.96
  -4   7 -12    4.25    0.30
  -4   7 -12    5.38    0.68
  -4   7 -12    4.61    0.33
  -4   7 -12    4.40    0.28
   4  -7  12    4.14    0.43
  -5   7 -12    1.61    0.13
  -5   7 -12    1.90    0.17
   5  -7  12    1.27    0.13
   5  -7  12    1.09    0.22
  -6   7 -12    5.87    0.42
  -6   7 -12    6.16    0.35
  -6   7 -12    5.82    0.53
  -6   7 -12    7.19    0.74
   6  -7  12    5.71    0.45
  -7   7 -12    1.06    0.24
  -7   7 -12    1.07    0.14
  -7   7 -12    1.13    0.40
   7  -7  12    0.86    0.18
  -8   7 -12    4.80    0.56
  -8   7 -12    4.08    0.42
  -8   7 -12    4.59    0.33
  -9   7 -12    8.06    0.56
  -9   7 -12    8.00    0.51
  -9   7 -12    8.09    0.68
   9  -7  12    6.16    0.61
   4   6 -12    1.02    0.13
  -4  -6  12    0.58    0.14
   3   6 -12    4.04    0.30
   3   6 -12    4.29    0.38
  -3  -6  12    5.17    0.39
   2   6 -12    4.36    0.38
   2   6 -12    3.90    0.28
   2   6 -12    3.56    0.30
  -2  -6  12    5.17    0.41
  -2  -6  12    4.90    0.34
   1   6 -12   11.49    0.74
   1   6 -12   11.39    0.91
   1   6 -12   11.29    0.70
  -1  -6  12   12.07    0.87
   0   6 -12   12.47    0.98
   0   6 -12   12.26    0.76
   0   6 -12   12.96    0.81
  -1   6 -12    2.46    0.18
  -1   6 -12    2.27    0.24
  -1   6 -12    2.35    0.20
   1  -6  12    1.78    0.20
  -2   6 -12    4.20    0.30
  -2   6 -12    4.54    0.29
  -2   6 -12    3.26    0.59
   2  -6  12    3.59    0.33
   2  -6  12    4.08    0.38
  -3   6 -12    3.19    0.23
  -3   6 -12    3.13    0.21
  -3   6 -12    2.82    0.56
  -3   6 -12    3.05    0.25
   3  -6  12    2.96    0.35
  -4   6 -12    6.18    0.36
  -4   6 -12    6.55    0.42
  -4   6 -12    4.96    0.75
  -4   6 -12    6.15    0.40
   4  -6  12    5.29    0.55
  -5   6 -12   11.34    0.63
  -5   6 -12    9.71    1.04
  -5   6 -12   10.93    0.72
   5  -6  12   11.06    0.81
  -6   6 -12   15.80    1.20
  -6   6 -12   16.15    1.49
  -6   6 -12   18.95    1.15
  -6   6 -12   19.33    1.01
   6  -6  12   18.26    1.31
  -7   6 -12    8.38    0.47
  -7   6 -12    7.46    0.84
  -7   6 -12    7.55    0.62
  -7   6 -12    8.55    0.56
   7  -6  12    8.80    0.63
  -8   6 -12    7.26    0.75
  -8   6 -12    7.36    0.57
  -8   6 -12    7.83    0.51
  -9   6 -12    0.52    0.29
  -9   6 -12    0.54    0.10
  -9   6 -12    0.46    0.19
   4   5 -12    1.96    0.21
   4   5 -12    1.90    0.16
  -4  -5  12    2.24    0.23
   2   5 -12    0.85    0.11
   2   5 -12    1.08    0.15
   2   5 -12    1.08    0.13
  -2  -5  12    0.95    0.13
   1   5 -12    2.43    0.20
   1   5 -12    2.31    0.25
   1   5 -12    2.41    0.19
  -1  -5  12    2.64    0.32
   0   5 -12    7.46    0.48
   0   5 -12    7.71    0.62
   0   5 -12    7.78    0.51
  -1   5 -12    2.49    0.22
  -1   5 -12    2.28    0.27
  -1   5 -12    2.49    0.20
   1  -5  12    2.95    0.55
  -2   5 -12    7.37    0.51
  -2   5 -12    7.66    0.48
   2  -5  12    7.36    0.97
  -3   5 -12    0.12    0.43
  -3   5 -12    0.28    0.08
  -3   5 -12    0.60    0.61
   3  -5  12    0.12    0.17
   3  -5  12    0.35    0.64
  -4   5 -12   21.05    1.27
  -4   5 -12   21.99    1.35
  -4   5 -12   20.15    1.75
  -5   5 -12    2.01    0.48
  -6   5 -12    0.15    0.18
  -6   5 -12    0.22    0.07
  -6   5 -12    0.15    0.37
   6  -5  12    0.24    0.09
  -7   5 -12    6.60    0.42
  -7   5 -12    6.07    0.35
  -7   5 -12    5.35    0.48
  -7   5 -12    5.56    0.69
   7  -5  12    6.21    0.48
  -8   5 -12    9.27    0.58
  -8   5 -12    8.39    0.82
  -8   5 -12    7.94    0.62
   8  -5  12    8.81    0.66
  -9   5 -12    1.05    0.13
  -9   5 -12    0.91    0.31
  -9   5 -12    0.93    0.19
 -10   5 -12   15.85    1.00
 -10   5 -12   14.53    1.18
  -5  -4  12    1.64    0.19
   4   4 -12    0.12    0.09
   4   4 -12    0.18    0.07
  -4  -4  12    0.17    0.11
   3   4 -12    3.33    0.25
   3   4 -12    3.51    0.31
  -3  -4  12    3.18    0.32
   2   4 -12    0.28    0.11
   2   4 -12    0.18    0.08
   2   4 -12    0.26    0.07
  -2  -4  12    0.14    0.09
   1   4 -12    2.22    0.19
   1   4 -12    2.32    0.24
   1   4 -12    2.09    0.17
  -1  -4  12    1.75    0.26
   0   4 -12   67.53    3.87
   0   4 -12   67.03    4.68
   0   4 -12   62.58    3.67
   0  -4  12   53.27    5.04
  -1   4 -12   19.08    1.18
  -1   4 -12   18.93    1.24
   1  -4  12   22.05    1.79
  -2   4 -12   20.52    1.14
  -2   4 -12   18.99    1.20
   2  -4  12   15.88    1.50
   2  -4  12   22.23    1.83
   3  -4  12    0.26    0.18
   3  -4  12    0.65    0.71
  -4   4 -12    3.80    0.28
  -4   4 -12    4.21    0.28
   4  -4  12    4.72    0.86
  -5   4 -12    3.18    0.24
  -5   4 -12    3.89    0.59
   5  -4  12    3.37    0.28
   5  -4  12    3.74    0.83
  -6   4 -12    1.42    0.22
  -6   4 -12    0.91    0.41
  -6   4 -12    1.43    0.13
   6  -4  12    1.37    0.18
  -7   4 -12    9.42    0.57
  -7   4 -12    7.88    0.83
  -7   4 -12    8.10    0.62
   7  -4  12    8.68    0.84
   7  -4  12    8.70    0.68
  -8   4 -12    1.36    0.36
  -8   4 -12    1.51    0.13
  -8   4 -12    1.21    0.19
   8  -4  12    0.82    0.16
   8  -4  12    0.79    0.38
  -9   4 -12    4.09    0.51
  -9   4 -12    4.57    0.36
  -9   4 -12    4.35    0.30
   9  -4  12    3.74    0.52
 -10   4 -12    1.38    0.20
 -10   4 -12    1.37    0.13
 -10   4 -12    1.13    0.27
  10  -4  12    1.12    0.27
  -5  -3  12    1.59    0.16
   4   3 -12    5.10    0.43
   4   3 -12    4.80    0.35
  -4  -3  12    5.65    0.43
  -4  -3  12    5.23    0.41
   3   3 -12    1.21    0.17
   3   3 -12    1.16    0.12
  -3  -3  12    0.92    0.16
  -3  -3  12    1.09    0.17
   2   3 -12    5.47    0.37
   2   3 -12    5.38    0.34
  -2  -3  12    4.86    0.40
  -2  -3  12    5.86    0.46
   1   3 -12   14.38    0.91
   1   3 -12   14.93    0.96
  -1  -3  12   16.10    1.37
  -1  -3  12   15.23    1.12
  -1  -3  12   15.60    1.11
   0   3 -12   20.63    1.24
   0   3 -12   22.60    1.31
   0  -3  12   18.40    1.83
  -1   3 -12   12.79    0.76
  -1   3 -12   12.62    0.80
   1  -3  12   11.13    0.94
   1  -3  12   14.58    1.31
  -2   3 -12   11.38    0.75
  -2   3 -12   13.38    0.71
   2  -3  12    9.65    0.88
  -3   3 -12    8.33    0.51
   3  -3  12    7.25    1.24
  -4   3 -12   28.20    1.82
   4  -3  12   26.83    2.09
   4  -3  12   33.91    2.64
  -5   3 -12    2.81    0.20
   5  -3  12    2.65    0.26
   5  -3  12    3.03    0.48
   5  -3  12    2.93    0.82
  -6   3 -12    4.22    0.36
  -6   3 -12    5.05    0.62
   6  -3  12    4.50    0.63
   6  -3  12    4.84    0.93
   6  -3  12    4.20    0.38
  -7   3 -12    3.25    0.23
  -7   3 -12    2.91    0.47
  -7   3 -12    2.95    0.29
   7  -3  12    3.22    0.31
   7  -3  12    3.23    0.56
  -8   3 -12    1.85    0.23
  -8   3 -12    1.94    0.37
  -8   3 -12    2.33    0.17
   8  -3  12    1.91    0.24
   8  -3  12    1.78    0.47
  -9   3 -12    3.18    0.28
  -9   3 -12    2.99    0.43
  -9   3 -12    2.96    0.22
   9  -3  12    2.66    0.49
 -10   3 -12    1.23    0.27
 -10   3 -12    1.42    0.18
 -10   3 -12    1.16    0.12
  10  -3  12    1.24    0.33
   5   2 -12   16.55    1.27
  -5  -2  12   16.98    1.17
   4   2 -12    0.17    0.07
  -4  -2  12    0.10    0.10
   3   2 -12    2.67    0.21
  -3  -2  12    2.80    0.28
   2   2 -12    1.56    0.13
   2   2 -12    1.45    0.15
  -2  -2  12    1.62    0.23
   1   2 -12   10.91    0.60
   1   2 -12   10.27    0.57
  -1  -2  12    7.85    0.71
  -1  -2  12    8.38    0.94
  -1  -2  12    7.76    0.72
   0   2 -12    1.60    0.15
   0   2 -12    1.41    0.13
   0  -2  12    1.13    0.25
   0  -2  12    1.58    0.50
  -1   2 -12    1.62    0.16
  -1   2 -12    1.79    0.14
   1  -2  12    3.09    0.65
  -2   2 -12   20.04    1.25
   3  -2  12    4.83    0.90
   4  -2  12    0.40    0.68
  -5   2 -12   28.07    1.70
   5  -2  12   28.57    2.49
   5  -2  12   24.38    2.01
  -6   2 -12    6.61    0.39
   6  -2  12    4.56    0.70
   6  -2  12    5.38    0.49
   6  -2  12    5.78    0.96
  -7   2 -12   15.36    0.99
  -7   2 -12   14.52    1.25
  -7   2 -12   16.97    0.98
   7  -2  12   13.94    1.16
  -8   2 -12    4.62    0.30
  -8   2 -12    4.05    0.50
  -8   2 -12    4.34    0.33
   8  -2  12    3.80    0.39
  -9   2 -12    3.57    0.28
  -9   2 -12    3.25    0.43
  -9   2 -12    3.20    0.23
 -10   2 -12    0.37    0.07
 -10   2 -12    0.42    0.13
 -10   2 -12    0.40    0.22
  11  -2  12   -0.02    0.22
  -6  -1  12    0.29    0.07
  -5  -1  12    0.11    0.09
   4   1 -12    1.22    0.12
  -4  -1  12    1.33    0.18
   3   1 -12   23.26    1.44
   3   1 -12   23.06    1.36
  -3  -1  12   23.14    1.63
   2   1 -12    2.57    0.20
   2   1 -12    2.62    0.18
   2   1 -12    2.09    0.25
  -2  -1  12    2.68    0.29
   1   1 -12   44.93    2.79
   1   1 -12   46.49    2.94
  -1  -1  12   47.04    3.30
  -1  -1  12   49.70    3.32
  -1  -1  12   51.07    3.87
   0   1 -12   76.50    4.30
   0   1 -12   72.41    4.09
   0  -1  12   60.67    5.61
  -1   1 -12    2.08    0.18
   1  -1  12    3.46    0.66
   2  -1  12    7.63    1.15
   3  -1  12   28.73    2.58
  -4   1 -12   25.48    1.69
   4  -1  12   29.60    2.45
  -5   1 -12    1.84    0.14
   5  -1  12    1.18    0.44
   5  -1  12    1.16    0.73
   6  -1  12    0.11    0.40
   6  -1  12    0.06    0.68
  -7   1 -12   10.44    0.68
  -7   1 -12   11.71    0.66
   7  -1  12    8.47    0.80
  -8   1 -12   11.90    0.76
  -8   1 -12   12.99    0.74
  -8   1 -12   11.29    0.97
   8  -1  12    9.79    0.89
  -9   1 -12    1.38    0.12
  -9   1 -12    1.52    0.17
  -9   1 -12    1.98    0.31
   9  -1  12    1.24    0.20
 -10   1 -12    0.23    0.20
 -10   1 -12    0.01    0.10
 -11   1 -12    0.37    0.11
  11  -1  12    0.16    0.26
   5   0 -12    6.28    0.42
  -5   0  12    6.69    0.49
   4   0 -12    5.86    0.39
  -4   0  12    5.85    0.46
   3   0 -12    2.59    0.16
   3   0 -12    2.45    0.19
   3   0 -12    2.37    0.17
  -3   0  12    2.58    0.27
   2   0 -12    0.25    0.05
   2   0 -12    0.30    0.08
   2   0 -12    0.32    0.06
   2   0 -12    0.13    0.11
  -2   0  12    0.30    0.16
   1   0 -12  132.88    8.07
   1   0 -12  130.43    7.68
  -1   0  12  127.42    8.97
  -1   0  12  131.78    9.07
  -1   0  12  137.56   10.42
   0   0 -12    7.67    0.47
   0   0 -12    8.43    0.50
   0   0  12    6.21    0.86
  -1   0 -12    9.22    0.61
   1   0  12   10.39    1.08
   2   0  12   35.45    3.02
   3   0  12   20.36    1.95
  -4   0 -12   15.31    1.00
   4   0  12   17.50    1.66
  -5   0 -12   50.39    2.90
   5   0  12   39.10    3.30
   5   0  12   49.34    3.90
  -6   0 -12   32.35    1.93
   6   0  12   28.53    2.70
  -7   0 -12    5.59    0.39
  -7   0 -12    5.88    0.37
   7   0  12    3.90    0.58
  -8   0 -12   39.12    2.44
  -8   0 -12   39.60    2.46
  -9   0 -12    0.42    0.06
  -9   0 -12    0.43    0.10
   9   0  12    0.18    0.31
 -10   0 -12    0.07    0.19
 -10   0 -12    0.00    0.09
  10   0  12   -0.01    0.26
 -11   0 -12    4.05    0.29
  11   0  12    3.29    0.46
  -6   1  12    2.01    0.18
  -5   1  12    1.89    0.15
  -5   1  12    1.86    0.20
   4  -1 -12    3.02    0.18
   4  -1 -12    2.92    0.21
  -4   1  12    2.91    0.27
  -4   1  12    2.62    0.22
   3  -1 -12   16.22    1.01
   3  -1 -12   17.36    0.91
   3  -1 -12   16.82    1.06
  -3   1  12   17.64    1.22
  -3   1  12   17.10    1.14
   2  -1 -12    7.26    0.42
   2  -1 -12    7.99    0.48
   2  -1 -12    6.78    0.61
   2  -1 -12    8.02    0.51
  -2   1  12    8.26    0.55
  -2   1  12    8.87    0.63
   1  -1 -12   15.71    0.98
   1  -1 -12   16.93    1.03
   1  -1 -12   15.97    0.87
  -1   1  12   16.45    1.44
  -1   1  12   16.49    1.20
  -1   1  12   17.52    1.12
  -1  -1 -12   29.09    1.80
   1   1  12   30.37    3.29
   1   1  12   28.45    2.47
   2   1  12    0.20    0.58
   2   1  12    2.92    1.31
   3   1  12   29.26    2.58
   3   1  12   30.19    4.20
  -4  -1 -12   20.99    1.41
   4   1  12   26.21    4.04
   4   1  12   24.17    2.08
  -5  -1 -12   47.13    2.80
   5   1  12   48.26    3.76
   5   1  12   41.22    3.20
   5   1  12   40.05    5.89
   6   1  12   10.19    1.04
   6   1  12   13.80    1.39
   6   1  12   12.16    0.98
  -7  -1 -12   16.68    1.05
  -7  -1 -12   16.47    1.05
  -8  -1 -12    1.00    0.09
  -8  -1 -12    1.05    0.13
   8   1  12    0.68    0.36
  -9  -1 -12    4.46    0.30
  -9  -1 -12    4.07    0.28
   9   1  12    3.37    0.50
 -10  -1 -12    0.35    0.09
  10   1  12    0.05    0.27
 -11  -1 -12    0.23    0.09
  11   1  12    0.12    0.28
  11   1  12    0.17    0.18
  -6   2  12    1.65    0.13
  -6   2  12    1.84    0.16
   5  -2 -12    4.28    0.29
   4  -2 -12    8.27    0.45
   4  -2 -12    8.11    0.53
  -4   2  12    8.12    0.57
  -4   2  12    8.49    0.62
   3  -2 -12    1.18    0.12
   3  -2 -12    1.45    0.10
   3  -2 -12    1.12    0.10
  -3   2  12    1.23    0.15
  -3   2  12    1.46    0.20
   2  -2 -12   12.59    0.79
   2  -2 -12   12.15    0.74
   2  -2 -12   12.31    0.66
  -2   2  12   12.04    0.85
  -2   2  12   13.35    0.93
   1  -2 -12   36.57    2.22
   1  -2 -12   35.74    1.90
   1  -2 -12   36.12    2.11
  -1   2  12   36.70    2.38
  -1   2  12   33.64    2.92
  -1   2  12   37.19    2.51
   0  -2 -12   10.64    0.56
   0  -2 -12   10.75    0.63
   0  -2 -12   11.45    0.66
   0   2  12    8.56    0.80
   0   2  12   10.89    1.45
   0   2  12    9.77    1.01
  -1  -2 -12    3.66    0.26
   1   2  12    6.84    1.26
   1   2  12    4.13    0.63
   2   2  12   25.65    2.33
   2   2  12   29.60    3.53
   3   2  12   31.21    4.07
   3   2  12   29.81    2.61
  -4  -2 -12    2.15    0.15
   4   2  12    3.56    2.13
   4   2  12    2.10    0.67
  -5  -2 -12    8.45    0.52
   5   2  12    7.58    0.71
   5   2  12    7.38    0.82
   5   2  12    7.95    1.11
  -6  -2 -12    5.25    0.31
   6   2  12    3.62    0.80
   6   2  12    3.87    0.53
   6   2  12    3.44    0.62
  -7  -2 -12    7.81    0.49
  -7  -2 -12    8.08    0.50
   7   2  12    5.26    0.74
  -8  -2 -12    0.16    0.05
  -8  -2 -12    0.08    0.07
   8   2  12   -0.09    0.33
  -9  -2 -12    3.49    0.25
  -9  -2 -12    3.41    0.23
   9   2  12    3.09    0.48
 -10  -2 -12    0.36    0.09
  10   2  12    0.34    0.29
  11   2  12    0.66    0.21
  11   2  12    0.68    0.28
  -6   3  12    2.34    0.19
  -6   3  12    2.31    0.17
   5  -3 -12   10.06    0.59
  -5   3  12    9.03    0.63
  -5   3  12    8.93    0.67
   4  -3 -12    8.23    0.43
   4  -3 -12    7.61    0.50
  -4   3  12    7.54    0.54
  -4   3  12    7.93    0.59
   3  -3 -12    0.39    0.07
   3  -3 -12    0.48    0.05
   3  -3 -12    0.36    0.06
  -3   3  12    0.28    0.09
  -3   3  12    0.17    0.13
   2  -3 -12    1.67    0.13
   2  -3 -12    2.03    0.12
   2  -3 -12    1.81    0.15
  -2   3  12    1.63    0.24
  -2   3  12    1.76    0.19
   1  -3 -12   38.13    2.29
   1  -3 -12   36.93    1.96
   1  -3 -12   37.00    2.18
  -1   3  12   37.65    2.59
  -1   3  12   36.65    2.46
   0  -3 -12   58.61    3.24
   0  -3 -12   59.96    2.92
   0  -3 -12   60.23    3.41
   0   3  12   48.82    3.64
   0   3  12   49.62    3.82
  -1  -3 -12  256.33   16.85
   1   3  12  297.11   27.97
   2   3  12   29.02    3.70
  -3  -3 -12   60.59    4.11
   3   3  12   74.95    7.39
  -4  -3 -12    0.64    0.07
   4   3  12    1.32    2.10
  -5  -3 -12    3.24    0.22
   5   3  12    3.24    0.53
   5   3  12    3.30    0.43
  -6  -3 -12    7.28    0.44
   6   3  12    5.57    0.67
   6   3  12    6.09    0.77
  -7  -3 -12   21.35    1.26
  -7  -3 -12   21.58    1.27
   7   3  12   15.54    1.56
  -8  -3 -12    0.36    0.07
  -8  -3 -12    0.35    0.05
   8   3  12    0.12    0.35
  -9  -3 -12    0.18    0.07
  -9  -3 -12    0.18    0.04
   9   3  12    0.13    0.34
 -10  -3 -12   18.69    1.06
  10   3  12   14.80    1.28
  10   3  12   15.85    1.23
  11   3  12    0.15    0.18
  -6   4  12    1.22    0.10
  -5   4  12    2.52    0.20
   4  -4 -12    5.68    0.35
   4  -4 -12    5.78    0.38
   4  -4 -12    5.86    0.32
  -4   4  12    5.87    0.45
  -4   4  12    5.87    0.41
   3  -4 -12    0.30    0.07
   3  -4 -12    0.40    0.05
   3  -4 -12    0.30    0.05
  -3   4  12    0.28    0.12
  -3   4  12    0.28    0.09
   2  -4 -12    6.32    0.34
   2  -4 -12    6.08    0.38
   2  -4 -12    6.41    0.41
  -2   4  12    6.35    0.46
  -2   4  12    6.24    0.51
   1  -4 -12   23.65    1.21
   1  -4 -12   22.47    1.42
   1  -4 -12   23.60    1.35
  -1   4  12   22.54    1.53
  -1   4  12   22.33    1.63
   0  -4 -12   45.35    2.57
   0  -4 -12   47.47    2.31
   0  -4 -12   47.66    2.69
   0   4  12   40.09    2.88
   0   4  12   38.22    3.02
  -1  -4 -12    2.31    0.14
  -1  -4 -12    2.81    0.17
  -1  -4 -12    2.29    0.17
   1   4  12    2.02    0.30
   1   4  12    1.86    0.24
   1   4  12    3.80    0.85
   2   4  12   54.43    6.04
   3   4  12    4.48    1.82
  -4  -4 -12   11.17    0.70
   4   4  12   11.00    0.83
   4   4  12   10.74    0.90
   5   4  12    0.28    0.33
   5   4  12    0.57    0.28
  -6  -4 -12    5.12    0.33
   6   4  12    4.86    0.61
   6   4  12    4.39    0.64
  -7  -4 -12   29.95    1.70
   7   4  12   26.12    1.94
   7   4  12   24.28    2.03
  -8  -4 -12   14.12    0.85
  -8  -4 -12   15.16    0.86
   8   4  12   11.74    1.09
   8   4  12   10.66    1.11
  -9  -4 -12    5.37    0.36
  -9  -4 -12    5.63    0.35
   9   4  12    4.57    0.60
   9   4  12    5.20    0.63
 -10  -4 -12    0.54    0.08
  10   4  12    0.40    0.28
  10   4  12    1.00    0.30
   5  -5 -12   32.90    1.72
   5  -5 -12   30.90    2.00
  -5   5  12   34.83    2.13
  -5   5  12   32.18    2.23
   4  -5 -12    9.37    0.57
   4  -5 -12    9.98    0.51
   4  -5 -12    9.65    0.60
  -4   5  12    8.73    0.68
  -4   5  12    9.88    0.65
   3  -5 -12    1.08    0.11
   3  -5 -12    1.09    0.08
   3  -5 -12    1.04    0.09
  -3   5  12    0.95    0.15
  -3   5  12    1.09    0.14
   2  -5 -12    5.96    0.38
   2  -5 -12    5.65    0.36
   2  -5 -12    6.23    0.32
  -2   5  12    5.84    0.43
  -2   5  12    5.30    0.46
   1  -5 -12   14.30    0.88
   1  -5 -12   14.44    0.75
   1  -5 -12   14.09    0.84
  -1   5  12   13.11    1.02
  -1   5  12   14.54    0.96
   0  -5 -12    4.19    0.22
   0  -5 -12    4.02    0.27
   0  -5 -12    4.03    0.25
   0   5  12    3.90    0.34
   0   5  12    3.25    0.37
  -1  -5 -12   66.30    3.30
  -1  -5 -12   66.30    3.66
   1   5  12   60.06    4.10
   1   5  12   58.14    4.30
  -2  -5 -12   17.19    0.97
   2   5  12   16.63    1.13
   2   5  12   15.36    1.19
  -3  -5 -12   10.03    0.61
   3   5  12    8.95    0.72
  -4  -5 -12   30.46    1.89
   4   5  12   29.85    2.04
   5   5  12    1.03    0.29
  -6  -5 -12    5.21    0.35
   6   5  12    5.91    0.61
   6   5  12    5.09    0.61
  -7  -5 -12    0.69    0.07
   7   5  12    0.86    0.35
   7   5  12    0.82    0.36
  -8  -5 -12    0.70    0.09
   8   5  12    0.61    0.34
   8   5  12    0.64    0.36
  -9  -5 -12    0.55    0.06
  -9  -5 -12    0.62    0.08
   9   5  12    0.64    0.32
  10   5  12   36.78    2.46
   5  -6 -12    5.38    0.35
   5  -6 -12    5.63    0.30
  -5   6  12    5.66    0.38
   4  -6 -12    1.99    0.12
   4  -6 -12    1.86    0.13
   4  -6 -12    1.94    0.14
  -4   6  12    1.85    0.16
   3  -6 -12    6.66    0.43
   3  -6 -12    6.62    0.36
   3  -6 -12    6.53    0.40
  -3   6  12    6.77    0.47
   2  -6 -12    0.88    0.07
   2  -6 -12    0.82    0.10
   2  -6 -12    1.06    0.09
  -2   6  12    0.80    0.12
   1  -6 -12    0.23    0.05
   1  -6 -12    0.28    0.04
  -1   6  12    0.11    0.09
   0  -6 -12    2.71    0.16
   0  -6 -12    2.95    0.20
   0  -6 -12    2.73    0.19
   0   6  12    2.63    0.26
  -1  -6 -12    2.07    0.12
  -1  -6 -12    2.11    0.15
   1   6  12    1.86    0.22
  -2  -6 -12   40.15    2.31
   2   6  12   38.90    2.61
  -3  -6 -12    0.40    0.05
   3   6  12    0.41    0.17
  -4  -6 -12    0.40    0.05
   4   6  12    0.25    0.19
  -5  -6 -12   16.45    1.05
   5   6  12   16.88    1.20
  -6  -6 -12    0.03    0.03
   6   6  12   -0.03    0.26
  -7  -6 -12    9.29    0.60
   7   6  12    9.68    0.81
  -8  -6 -12   29.14    1.86
  -8  -6 -12   28.04    1.84
   8   6  12   32.86    2.07
  -9  -6 -12    2.51    0.19
  -9  -6 -12    2.65    0.17
   9   6  12    2.63    0.36
 -10  -6 -12    1.12    0.11
  10   6  12    1.40    0.23
   5  -7 -12   23.04    1.22
  -5   7  12   23.31    1.51
   4  -7 -12    0.86    0.07
   4  -7 -12    0.96    0.07
   4  -7 -12    0.98    0.09
  -4   7  12    1.03    0.10
   3  -7 -12    0.36    0.05
   3  -7 -12    0.60    0.07
   3  -7 -12    0.39    0.04
  -3   7  12    0.41    0.08
   2  -7 -12    3.30    0.23
   2  -7 -12    3.57    0.22
   2  -7 -12    3.54    0.19
  -2   7  12    3.40    0.27
   1  -7 -12    3.61    0.23
   1  -7 -12    3.44    0.20
   1  -7 -12    3.73    0.24
  -1   7  12    3.36    0.29
   0  -7 -12   39.12    2.43
   0  -7 -12   40.29    2.31
   0  -7 -12   40.96    2.08
   0   7  12   37.64    2.60
  -1  -7 -12    3.34    0.18
  -1  -7 -12    3.60    0.21
   1   7  12    2.58    0.28
   2   7  12    8.49    0.62
  -3  -7 -12    0.30    0.05
   3   7  12    0.36    0.15
  -4  -7 -12   15.61    1.00
   4   7  12   16.11    1.11
   5   7  12    0.77    0.22
  -6  -7 -12    2.17    0.16
   6   7  12    2.44    0.33
  -7  -7 -12    5.12    0.34
   7   7  12    5.23    0.53
  -8  -7 -12    0.17    0.03
  -8  -7 -12    0.16    0.05
   8   7  12    0.14    0.23
  -9  -7 -12    1.54    0.11
  -9  -7 -12    1.20    0.09
   9   7  12    1.35    0.24
  10   7  12    0.56    0.14
  -4   8  12    0.17    0.05
   3  -8 -12    0.42    0.06
   3  -8 -12    0.38    0.04
   3  -8 -12    0.44    0.05
  -3   8  12    0.36    0.07
   2  -8 -12    0.06    0.04
   2  -8 -12    0.07    0.03
   2  -8 -12    0.20    0.05
  -2   8  12    0.02    0.07
   1  -8 -12   10.59    0.65
   1  -8 -12   10.42    0.62
   1  -8 -12   10.44    0.55
  -1   8  12   10.60    0.71
  -1   8  12    9.64    0.91
   0  -8 -12   24.88    1.43
   0  -8 -12   24.79    1.28
   0   8  12   24.93    1.61
   0   8  12   22.73    2.10
  -1  -8 -12    2.98    0.17
  -1  -8 -12    2.88    0.20
   1   8  12    3.10    0.27
   1   8  12    3.71    0.79
   1   8  12    3.33    0.34
  -2  -8 -12    2.95    0.16
   2   8  12    4.36    0.91
   2   8  12    2.70    0.27
  -3  -8 -12    0.92    0.08
   3   8  12    2.18    0.96
   3   8  12    0.51    0.15
  -4  -8 -12    0.75    0.07
   4   8  12    0.56    1.13
   4   8  12    0.90    0.17
  -5  -8 -12    0.92    0.08
   5   8  12    1.41    1.20
   5   8  12    0.55    0.19
  -6  -8 -12   26.04    1.63
   6   8  12   25.64    1.76
   6   8  12   26.38    3.63
  -7  -8 -12    1.41    0.11
   7   8  12    1.52    0.25
  -8  -8 -12   29.11    1.83
  -8  -8 -12   27.80    1.85
   8   8  12   32.57    1.99
  -9  -8 -12    0.16    0.05
   9   8  12    0.17    0.13
   4  -9 -12    3.74    0.22
   4  -9 -12    3.60    0.20
   4  -9 -12    3.52    0.23
  -4   9  12    3.57    0.25
   3  -9 -12    0.08    0.03
   3  -9 -12    0.15    0.04
   3  -9 -12    0.05    0.02
  -3   9  12    0.04    0.05
   2  -9 -12   10.68    0.68
   2  -9 -12   11.07    0.58
   2  -9 -12   11.17    0.64
  -2   9  12   10.50    0.73
   1  -9 -12    0.61    0.06
   1  -9 -12    0.50    0.05
  -1   9  12    0.56    0.09
   0  -9 -12    2.53    0.16
   0  -9 -12    2.39    0.13
   0   9  12    2.12    0.20
   0   9  12    2.30    0.25
  -1  -9 -12   11.92    0.71
  -1  -9 -12   12.53    0.63
   1   9  12   11.66    1.05
   1   9  12   11.49    0.81
  -2  -9 -12    0.98    0.09
   2   9  12    1.49    0.24
   2   9  12    1.04    0.15
   2   9  12    1.40    0.72
   3   9  12    0.24    0.15
   3   9  12    0.09    0.10
   3   9  12    0.53    0.83
  -4  -9 -12   19.97    1.26
   4   9  12   18.49    1.35
   4   9  12   22.94    2.88
  -5  -9 -12    0.47    0.05
   5   9  12    0.00    1.07
   5   9  12    0.35    0.14
  -6  -9 -12    2.43    0.16
   6   9  12    0.16    1.11
   6   9  12    2.11    0.25
  -7  -9 -12    1.52    0.11
   7   9  12    1.51    0.20
   7   9  12    1.97    1.02
   3 -10 -12    2.67    0.14
   3 -10 -12    2.63    0.17
   3 -10 -12    2.73    0.16
  -3  10  12    2.47    0.15
   2 -10 -12    4.91    0.26
   2 -10 -12    4.91    0.29
   2 -10 -12    4.54    0.30
  -2  10  12    4.67    0.33
   1 -10 -12    3.35    0.20
   1 -10 -12    2.85    0.21
   1 -10 -12    3.14    0.17
  -1  10  12    3.04    0.23
   0 -10 -12   22.64    1.18
   0 -10 -12   22.52    1.31
   0  10  12   21.89    1.47
  -1 -10 -12    0.41    0.04
  -1 -10 -12    0.41    0.05
   1  10  12    0.36    0.09
  -2 -10 -12    1.01    0.08
   2  10  12    0.68    0.63
   2  10  12    0.84    0.13
   2  10  12    1.23    0.17
  -3 -10 -12    0.77    0.07
   3  10  12    1.40    0.76
  -4 -10 -12   23.45    1.55
   4  10  12   26.53    3.29
  -5 -10 -12   11.65    0.72
   5  10  12   10.67    1.91
  -6 -10 -12    1.59    0.11
   6  10  12    0.86    0.94
  -7 -10 -12    4.47    0.29
   7  10  12    4.78    1.23
   2 -11 -12    0.11    0.03
   2 -11 -12    0.06    0.04
   2 -11 -12    0.08    0.02
   1 -11 -12    1.95    0.12
   1 -11 -12    1.88    0.10
   1 -11 -12    1.70    0.13
   0 -11 -12    1.06    0.06
   0 -11 -12    0.97    0.08
  -1 -11 -12   56.69    2.98
  -1 -11 -12   57.14    3.31
  -2 -11 -12    0.58    0.06
   2  11  12    0.73    0.56
  -3 -11 -12    2.95    0.20
   3  11  12    3.03    0.79
  -4 -11 -12    0.61    0.06
   4  11  12    1.57    0.72
  -5 -11 -12    2.43    0.16
   6  11  12    1.28    0.73
  -7 -11 -12    0.11    0.03
   1 -12 -12    0.72    0.06
   1 -12 -12    0.72    0.05
   0 -12 -12    5.57    0.32
   0 -12 -12    5.18    0.29
  -2 -12 -12    0.33    0.04
  -3 -12 -12   16.75    1.17
   3  12  12   21.21    2.41
  -4 -12 -12    0.19    0.03
   4  12  12    0.47    0.51
  -5 -12 -12    2.15    0.14
   5  12  12    1.13    0.60
  -6 -12 -12    3.39    0.22
  -3 -13 -12    4.56    0.29
  -4 -13 -12    2.78    0.18
  -1  10 -13    0.13    0.05
  -1  10 -13    0.10    0.06
   1 -10  13    0.11    0.05
   1 -10  13    0.13    0.08
  -2  10 -13    0.77    0.09
  -2  10 -13    0.87    0.10
  -2  10 -13    0.97    0.23
  -3  10 -13    0.17    0.07
  -3  10 -13    0.25    0.05
  -3  10 -13    0.10    0.20
   3 -10  13    0.21    0.04
   3 -10  13    0.23    0.06
  -4  10 -13    5.18    0.35
  -4  10 -13    5.41    0.53
   4 -10  13    5.79    0.44
   4 -10  13    5.93    0.42
  -5  10 -13    2.86    0.22
  -5  10 -13    2.71    0.37
   5 -10  13    3.64    0.26
   5 -10  13    3.75    0.28
   6 -10  13    0.28    0.05
   1   9 -13    1.97    0.19
  -1  -9  13    2.17    0.21
   0   9 -13    0.59    0.10
   0   9 -13    0.58    0.08
   0  -9  13    0.57    0.10
   0  -9  13    0.57    0.08
  -1   9 -13    7.57    0.66
  -1   9 -13    8.01    0.50
  -1   9 -13    7.52    0.72
  -1   9 -13    9.25    0.53
   1  -9  13    9.25    0.64
   1  -9  13    9.59    0.64
  -2   9 -13    0.29    0.24
  -2   9 -13    0.36    0.07
  -2   9 -13    0.46    0.08
   2  -9  13    0.47    0.08
  -3   9 -13   11.02    0.63
  -3   9 -13    8.80    0.91
  -3   9 -13   11.24    0.67
   3  -9  13   11.91    0.82
   3  -9  13   11.54    0.86
  -4   9 -13    0.82    0.08
  -4   9 -13    0.58    0.09
  -4   9 -13    0.62    0.28
   4  -9  13    0.51    0.08
   4  -9  13    0.54    0.09
  -5   9 -13    3.27    0.25
  -5   9 -13    3.65    0.46
  -5   9 -13    3.14    0.28
   5  -9  13    4.27    0.32
   5  -9  13    3.91    0.29
  -6   9 -13    0.06    0.09
  -6   9 -13    0.02    0.25
   6  -9  13    0.05    0.07
   7  -9  13    3.27    0.28
   2   8 -13   10.01    0.83
  -2  -8  13   11.81    0.80
   1   8 -13    0.06    0.05
   1   8 -13    0.02    0.07
  -1  -8  13    0.21    0.12
  -1  -8  13    0.05    0.06
   0   8 -13    2.94    0.28
   0   8 -13    3.29    0.23
   0   8 -13    3.01    0.21
   0  -8  13    2.76    0.28
  -1   8 -13    6.05    0.52
  -1   8 -13    6.81    0.41
  -1   8 -13    6.52    0.44
  -1   8 -13    6.38    0.61
   1  -8  13    6.72    0.53
   1  -8  13    6.67    0.49
  -2   8 -13    1.17    0.30
  -2   8 -13    0.98    0.11
  -2   8 -13    1.21    0.12
   2  -8  13    1.07    0.12
  -3   8 -13   13.46    1.09
  -3   8 -13   11.58    0.74
  -3   8 -13   13.08    0.79
   3  -8  13   13.77    1.02
   3  -8  13   13.08    0.95
  -4   8 -13    8.31    0.47
  -4   8 -13    6.50    0.76
  -4   8 -13    7.76    0.50
   4  -8  13    8.65    0.65
   4  -8  13    7.95    0.60
  -5   8 -13    3.32    0.20
  -5   8 -13    3.25    0.22
  -5   8 -13    2.69    0.25
  -5   8 -13    4.27    0.52
   5  -8  13    3.03    0.30
  -6   8 -13   -0.02    0.30
  -6   8 -13    0.01    0.20
  -6   8 -13    0.12    0.09
   6  -8  13    0.17    0.11
  -7   8 -13    2.22    0.21
  -7   8 -13    2.38    0.29
  -7   8 -13    2.79    0.39
   8  -8  13    1.58    0.17
   2   7 -13    4.95    0.34
   2   7 -13    4.94    0.41
  -2  -7  13    5.35    0.41
   1   7 -13    6.31    0.54
   1   7 -13    6.71    0.45
   1   7 -13    6.26    0.42
  -1  -7  13    7.33    0.54
  -1  -7  13    7.38    0.50
   0   7 -13   21.74    1.25
   0   7 -13   19.74    1.18
   0   7 -13   20.13    1.51
   0  -7  13   17.69    1.41
  -1   7 -13    1.09    0.16
  -1   7 -13    0.92    0.12
  -1   7 -13    0.90    0.12
   1  -7  13    1.03    0.19
  -2   7 -13    0.14    0.08
  -2   7 -13    0.05    0.07
  -2   7 -13    0.58    0.29
   2  -7  13    0.12    0.06
   2  -7  13    0.05    0.06
  -3   7 -13    7.96    0.44
  -3   7 -13    6.69    0.41
  -3   7 -13    5.46    0.69
   3  -7  13    6.29    0.51
   3  -7  13    6.95    0.56
  -4   7 -13    9.41    0.83
  -4   7 -13    7.88    0.48
  -4   7 -13    8.11    0.51
   4  -7  13    8.11    0.68
  -5   7 -13   12.12    1.18
  -5   7 -13   13.70    0.84
  -5   7 -13   13.32    0.91
  -5   7 -13   15.34    0.79
   5  -7  13   14.60    1.13
  -6   7 -13   12.04    0.76
  -6   7 -13   11.46    1.02
  -6   7 -13   10.17    0.82
  -6   7 -13   13.39    0.65
   6  -7  13   10.21    0.94
  -7   7 -13    6.02    0.51
  -7   7 -13    6.92    0.44
  -7   7 -13    7.25    0.68
   7  -7  13    5.72    0.55
  -8   7 -13   15.71    1.10
  -8   7 -13   16.96    1.32
  -8   7 -13   18.55    1.08
   8  -7  13   15.84    1.32
   3   6 -13    1.39    0.16
   3   6 -13    1.39    0.13
  -3  -6  13    1.81    0.19
   2   6 -13    1.69    0.15
   2   6 -13    1.57    0.19
  -2  -6  13    1.96    0.22
   1   6 -13    0.08    0.07
   1   6 -13    0.14    0.09
   1   6 -13    0.15    0.06
  -1  -6  13    0.02    0.10
   0   6 -13    7.77    0.47
   0   6 -13    8.10    0.50
   0   6 -13    7.64    0.61
   0  -6  13    6.47    0.60
  -1   6 -13    3.54    0.24
  -1   6 -13    3.86    0.26
  -1   6 -13    3.06    0.31
  -2   6 -13    1.56    0.16
  -2   6 -13    1.84    0.15
   2  -6  13    1.59    0.17
  -3   6 -13    0.90    0.11
  -3   6 -13    0.37    0.36
  -3   6 -13    0.72    0.09
  -3   6 -13    0.91    0.12
   3  -6  13    0.64    0.14
  -4   6 -13    6.21    0.75
  -4   6 -13    6.61    0.40
  -4   6 -13    6.70    0.43
   4  -6  13    7.26    0.59
  -5   6 -13    1.53    0.12
  -5   6 -13    1.49    0.42
  -5   6 -13    1.36    0.15
   5  -6  13    1.54    0.23
  -6   6 -13    2.13    0.19
  -6   6 -13    2.00    0.45
  -6   6 -13    2.39    0.15
   6  -6  13    2.01    0.29
  -7   6 -13    0.02    0.07
  -7   6 -13    0.10    0.18
  -7   6 -13    0.21    0.32
   7  -6  13    0.01    0.14
  -8   6 -13    0.02    0.07
  -8   6 -13    0.01    0.28
  -8   6 -13    0.02    0.17
   8  -6  13    0.08    0.12
  -9   6 -13    0.54    0.09
  -9   6 -13    0.61    0.25
   9  -6  13    0.49    0.12
   3   5 -13    3.10    0.28
   3   5 -13    3.11    0.22
  -3  -5  13    3.25    0.29
   2   5 -13   10.53    0.65
   2   5 -13   10.74    0.84
   2   5 -13   10.44    0.69
  -2  -5  13   12.01    0.83
   1   5 -13    7.31    0.48
   1   5 -13    7.41    0.62
   1   5 -13    7.91    0.51
  -1  -5  13    8.71    0.59
   0   5 -13    3.27    0.23
   0   5 -13    2.87    0.21
   0   5 -13    2.92    0.28
   0  -5  13    2.25    0.32
  -1   5 -13    6.86    0.44
  -1   5 -13    7.03    0.41
  -1   5 -13    5.56    0.52
  -2   5 -13    6.34    0.42
  -2   5 -13    7.11    0.40
   2  -5  13    5.21    0.50
  -3   5 -13    0.55    0.09
   3  -5  13    0.59    0.15
  -4   5 -13    2.43    0.19
  -4   5 -13    2.56    0.20
   4  -5  13    2.32    0.31
  -5   5 -13    1.11    0.40
  -5   5 -13    0.31    0.07
   5  -5  13    0.25    0.17
  -6   5 -13    1.77    0.43
  -6   5 -13    1.80    0.15
   6  -5  13    1.44    0.24
  -7   5 -13    1.70    0.26
  -7   5 -13    1.86    0.42
  -7   5 -13    2.24    0.18
  -7   5 -13    2.34    0.14
  -8   5 -13    1.74    0.15
  -8   5 -13    1.30    0.22
  -8   5 -13    1.57    0.36
  -9   5 -13    2.30    0.19
  -9   5 -13    2.74    0.37
  -9   5 -13    2.15    0.27
   4   4 -13    8.61    0.67
   3   4 -13    9.38    0.71
   3   4 -13    9.26    0.58
  -3  -4  13    8.72    0.69
   2   4 -13    6.87    0.43
   2   4 -13    7.83    0.47
   2   4 -13    7.18    0.57
  -2  -4  13    6.08    0.55
   1   4 -13   36.02    2.89
   1   4 -13   37.53    2.27
   1   4 -13   38.61    2.39
  -1  -4  13   42.39    2.69
   0   4 -13    1.84    0.16
   0   4 -13    1.68    0.14
   0   4 -13    1.71    0.20
   0  -4  13    1.36    0.23
  -1   4 -13   64.50    3.76
  -1   4 -13   64.06    3.95
  -2   4 -13    0.71    0.11
  -2   4 -13    0.88    0.11
  -3   4 -13    1.02    0.11
   3  -4  13    0.69    0.17
  -4   4 -13    2.74    0.20
  -4   4 -13    2.66    0.20
   4  -4  13    2.40    0.33
  -5   4 -13    1.93    0.15
   5  -4  13    1.48    0.26
  -6   4 -13    0.24    0.37
   6  -4  13    0.15    0.25
  -7   4 -13   13.57    1.27
  -7   4 -13   16.16    0.98
  -7   4 -13   14.22    1.02
   7  -4  13   16.00    1.18
   7  -4  13   16.21    1.13
  -8   4 -13    6.64    0.35
  -8   4 -13    5.09    0.63
  -8   4 -13    6.70    0.42
  -8   4 -13    5.44    0.46
   8  -4  13    6.00    0.58
  -9   4 -13   11.47    0.72
  -9   4 -13   11.14    0.75
  -9   4 -13    9.86    0.91
   9  -4  13   11.65    0.85
   4   3 -13    0.33    0.09
   4   3 -13    0.37    0.07
  -4  -3  13    0.34    0.08
   3   3 -13    2.54    0.24
   3   3 -13    2.40    0.19
  -3  -3  13    2.62    0.25
  -3  -3  13    2.32    0.23
   2   3 -13    2.59    0.26
   2   3 -13    2.63    0.19
   2   3 -13    2.81    0.21
   1   3 -13    8.42    0.72
   1   3 -13    9.31    0.59
   1   3 -13    8.53    0.56
  -1  -3  13    9.71    0.70
  -1  -3  13    9.92    0.68
   0   3 -13   47.90    3.69
   0   3 -13   48.79    2.90
   0   3 -13   51.66    3.05
  -1   3 -13    0.33    0.07
  -1   3 -13    0.16    0.08
   1  -3  13    0.11    0.17
  -2   3 -13   19.59    1.13
  -2   3 -13   17.43    1.19
   2  -3  13   17.30    1.36
   2  -3  13   23.14    1.79
   3  -3  13    0.22    0.15
   3  -3  13    0.62    0.20
   3  -3  13    0.95    0.63
  -4   3 -13    0.19    0.05
  -4   3 -13    0.19    0.07
   4  -3  13    0.04    0.17
   4  -3  13    0.04    0.21
  -5   3 -13    2.78    0.19
   5  -3  13    1.92    0.37
  -6   3 -13    0.07    0.05
   6  -3  13    0.02    0.28
  -7   3 -13    0.52    0.16
  -7   3 -13    0.50    0.34
  -7   3 -13    0.47    0.07
   7  -3  13    0.44    0.33
  -8   3 -13    1.41    0.19
  -8   3 -13    1.50    0.13
  -8   3 -13    1.24    0.34
   8  -3  13    1.38    0.36
  -9   3 -13    9.04    0.57
  -9   3 -13    8.45    0.77
  -9   3 -13    8.80    0.60
   9  -3  13    8.69    0.75
 -10   3 -13    1.05    0.16
  10  -3  13    1.32    0.23
   4   2 -13    1.63    0.17
   4   2 -13    1.47    0.13
  -4  -2  13    1.68    0.17
   3   2 -13    0.19    0.09
   3   2 -13    0.09    0.07
  -3  -2  13    0.18    0.10
   2   2 -13    8.67    0.56
   2   2 -13    9.52    0.59
  -2  -2  13    9.49    0.69
   1   2 -13    8.06    0.48
   1   2 -13    8.49    0.51
  -1  -2  13    7.25    0.58
  -1  -2  13    7.44    0.62
   0   2 -13    4.46    0.30
   0   2 -13    4.34    0.27
   0  -2  13    3.30    0.39
  -1   2 -13    0.16    0.07
  -1   2 -13    0.04    0.06
   1  -2  13    0.63    0.45
   1  -2  13    0.06    0.18
  -2   2 -13   23.76    1.53
  -2   2 -13   26.19    1.45
   2  -2  13   23.51    1.75
  -3   2 -13    0.15    0.06
   3  -2  13    0.08    0.14
   3  -2  13    0.33    0.66
   3  -2  13    0.32    0.20
  -4   2 -13    7.98    0.46
   4  -2  13    5.84    0.63
   4  -2  13    9.10    1.18
   4  -2  13    6.49    0.63
  -5   2 -13   21.18    1.30
   5  -2  13   20.06    1.55
  -6   2 -13    1.86    0.15
   6  -2  13    2.09    0.43
  -7   2 -13    4.07    0.27
  -7   2 -13    3.92    0.33
   7  -2  13    3.91    0.57
  -8   2 -13    0.31    0.06
  -8   2 -13    0.28    0.12
   8  -2  13    0.48    0.37
  -9   2 -13    2.75    0.20
  -9   2 -13    2.78    0.25
  -9   2 -13    2.59    0.39
   9  -2  13    3.14    0.46
 -10   2 -13    2.37    0.22
 -10   2 -13    2.13    0.31
 -10   2 -13    2.22    0.17
  10  -2  13    2.77    0.37
  -5  -1  13    3.73    0.29
   4   1 -13    5.13    0.35
  -4  -1  13    5.73    0.42
   3   1 -13   27.51    1.71
   3   1 -13   27.05    1.62
  -3  -1  13   28.29    1.91
   2   1 -13    3.90    0.25
   2   1 -13    4.01    0.28
  -2  -1  13    3.84    0.36
   1   1 -13    2.10    0.15
   1   1 -13    2.21    0.17
  -1  -1  13    1.73    0.26
   0   1 -13   14.86    0.89
   0   1 -13   15.02    0.94
  -1   1 -13    0.44    0.08
   1  -1  13    0.78    0.45
   1  -1  13    0.13    0.18
  -2   1 -13   27.80    1.74
  -2   1 -13   29.99    1.65
   2  -1  13   25.98    1.98
  -3   1 -13   21.59    1.15
   3  -1  13   17.60    1.52
   3  -1  13   18.59    1.41
  -4   1 -13    0.54    0.06
   4  -1  13    0.18    0.17
   4  -1  13    0.40    0.68
   4  -1  13    0.52    0.26
  -5   1 -13   15.28    0.94
   5  -1  13   13.28    1.16
   5  -1  13   16.19    1.61
  -6   1 -13    0.23    0.05
   6  -1  13    0.33    0.35
  -7   1 -13   31.04    1.98
  -7   1 -13   33.01    1.98
   7  -1  13   30.24    2.32
  -8   1 -13    0.75    0.08
  -8   1 -13    0.69    0.13
   8  -1  13    0.37    0.39
  -9   1 -13    1.49    0.12
  -9   1 -13    1.40    0.18
   9  -1  13    1.67    0.41
 -10   1 -13    2.77    0.23
 -10   1 -13    2.55    0.19
  10  -1  13    2.97    0.41
   5   0 -13    1.83    0.17
  -5   0  13    1.60    0.16
   4   0 -13   23.62    1.55
  -4   0  13   26.76    1.74
   3   0 -13   12.40    0.77
   3   0 -13   12.73    0.81
  -3   0  13   13.75    0.93
   2   0 -13    7.84    0.50
   2   0 -13    7.41    0.47
  -2   0  13    7.87    0.60
   1   0 -13   21.67    1.39
   1   0 -13   21.99    1.32
  -1   0  13   23.95    1.61
   0   0 -13   35.64    2.01
   0   0 -13   34.55    1.91
   0   0  13   26.39    2.67
  -1   0 -13    3.98    0.26
   1   0  13    2.64    0.38
   1   0  13    4.31    0.62
  -2   0 -13   44.50    2.51
   2   0  13   48.58    3.57
   2   0  13   36.28    2.97
  -3   0 -13    9.97    0.60
   3   0  13    8.91    0.79
   3   0  13   12.59    1.28
  -4   0 -13    2.59    0.17
   4   0  13    2.53    0.72
   4   0  13    2.21    0.37
   4   0  13    1.72    0.27
  -5   0 -13    9.16    0.59
   5   0  13    9.02    0.83
   5   0  13   10.23    1.24
  -6   0 -13    4.76    0.31
   6   0  13    3.99    0.61
  -7   0 -13   67.40    3.93
   7   0  13   58.00    4.42
  -8   0 -13    9.78    0.62
  -8   0 -13    9.32    0.59
   8   0  13    7.94    0.88
  -9   0 -13    5.45    0.36
  -9   0 -13    4.93    0.33
   9   0  13    4.58    0.63
 -10   0 -13    0.04    0.04
 -10   0 -13    0.04    0.09
  10   0  13    0.03    0.28
  -5   1  13    2.86    0.24
   4  -1 -13    2.80    0.20
  -4   1  13    2.92    0.26
   3  -1 -13   56.42    3.49
   3  -1 -13   55.39    3.32
  -3   1  13   56.76    3.71
  -3   1  13   59.44    3.89
   2  -1 -13   18.97    1.19
   2  -1 -13   17.54    1.13
  -2   1  13   20.79    1.37
  -2   1  13   19.42    1.27
   1  -1 -13    2.94    0.20
   1  -1 -13    2.73    0.21
  -1   1  13    2.97    0.33
  -1   1  13    2.85    0.25
   0  -1 -13    1.69    0.14
   0  -1 -13    1.71    0.13
   0   1  13    0.86    0.23
   0   1  13    1.33    0.18
   0   1  13    1.43    0.38
   1   1  13    2.37    0.24
   1   1  13    2.10    0.49
  -2  -1 -13    0.11    0.05
   2   1  13    0.20    0.19
   2   1  13    0.27    0.12
   2   1  13    0.66    0.50
  -3  -1 -13    4.49    0.29
   3   1  13    4.53    0.39
   3   1  13    4.49    0.46
  -4  -1 -13    6.64    0.43
   4   1  13    8.19    1.07
   4   1  13    6.85    0.54
   4   1  13    6.29    0.62
  -5  -1 -13   38.33    2.52
   5   1  13   41.39    2.88
   5   1  13   39.98    2.70
   5   1  13   42.75    3.41
  -6  -1 -13    9.98    0.62
   6   1  13    9.76    0.78
   6   1  13    9.13    0.88
  -7  -1 -13    1.98    0.15
   7   1  13    2.08    0.34
   7   1  13    1.62    0.45
  -8  -1 -13    6.25    0.39
  -8  -1 -13    6.10    0.41
   8   1  13    5.71    0.70
   8   1  13    5.35    0.58
  -9  -1 -13    0.00    0.04
  -9  -1 -13    0.25    0.09
   9   1  13   -0.03    0.22
   9   1  13   -0.14    0.33
 -10  -1 -13    0.76    0.11
 -10  -1 -13    0.72    0.07
  10   1  13    0.57    0.31
  10   1  13    0.75    0.20
  -5   2  13    6.95    0.48
  -5   2  13    6.37    0.44
   4  -2 -13    0.04    0.06
  -4   2  13    0.03    0.05
  -4   2  13    0.07    0.09
   3  -2 -13    6.50    0.40
   3  -2 -13    8.03    0.48
   3  -2 -13    7.12    0.45
  -3   2  13    8.00    0.56
  -3   2  13    7.65    0.51
   2  -2 -13    3.46    0.22
   2  -2 -13    4.03    0.26
   2  -2 -13    4.09    0.28
  -2   2  13    4.19    0.30
  -2   2  13    4.42    0.37
   1  -2 -13    0.26    0.07
   1  -2 -13    0.21    0.05
  -1   2  13    0.12    0.15
  -1   2  13    0.15    0.09
   0  -2 -13   17.53    0.93
   0  -2 -13   17.43    0.98
   0   2  13   14.07    1.05
   0   2  13   14.04    1.35
   0   2  13   13.95    1.14
  -1  -2 -13   27.97    1.54
  -1  -2 -13   25.76    1.62
   1   2  13   26.58    2.19
   1   2  13   25.17    1.75
   1   2  13   25.63    1.86
  -2  -2 -13   11.35    0.66
   2   2  13   12.87    1.15
   2   2  13   10.30    0.84
   2   2  13   10.34    0.77
   3   2  13    3.62    0.34
   3   2  13    3.65    0.40
  -4  -2 -13    7.99    0.51
   4   2  13    8.75    1.13
   4   2  13    7.64    0.62
   4   2  13    8.09    0.70
   5   2  13   -0.17    0.59
   5   2  13    0.12    0.20
   5   2  13    0.30    0.30
  -6  -2 -13    0.16    0.04
   6   2  13    0.10    0.23
   6   2  13    0.09    0.33
  -7  -2 -13    8.78    0.52
   7   2  13    6.99    0.70
   7   2  13    7.44    0.80
  -8  -2 -13    1.32    0.11
  -8  -2 -13    1.20    0.14
   8   2  13    1.62    0.32
   8   2  13    1.16    0.40
  -9  -2 -13    5.04    0.33
  -9  -2 -13    5.08    0.35
   9   2  13    4.76    0.60
   9   2  13    4.87    0.50
 -10  -2 -13    0.79    0.07
 -10  -2 -13    1.04    0.12
  10   2  13    0.79    0.21
  10   2  13    0.99    0.30
  -5   3  13    0.10    0.07
  -5   3  13    0.06    0.04
   4  -3 -13   10.07    0.58
   4  -3 -13   10.91    0.68
  -4   3  13   11.78    0.78
  -4   3  13   10.92    0.73
   3  -3 -13    0.19    0.05
   3  -3 -13    0.18    0.05
   3  -3 -13    0.26    0.06
  -3   3  13    0.00    0.10
  -3   3  13    0.04    0.06
   2  -3 -13    4.27    0.28
   2  -3 -13    3.71    0.22
   2  -3 -13    3.98    0.25
  -2   3  13    4.02    0.30
  -2   3  13    4.05    0.35
   1  -3 -13    0.07    0.06
   1  -3 -13    0.12    0.04
   1  -3 -13    0.14    0.05
  -1   3  13    0.07    0.09
  -1   3  13    0.04    0.14
   0  -3 -13    2.06    0.15
   0  -3 -13    2.50    0.17
   0   3  13    1.69    0.26
   0   3  13    1.90    0.21
  -1  -3 -13    1.34    0.12
   1   3  13    1.19    0.24
   1   3  13    1.43    0.18
  -2  -3 -13   15.31    0.86
   2   3  13   13.96    1.00
   2   3  13   14.06    1.08
   3   3  13   26.29    1.76
   3   3  13   26.15    1.86
  -4  -3 -13   18.14    1.16
   4   3  13   18.32    1.28
   4   3  13   19.02    1.37
  -5  -3 -13    3.13    0.19
   5   3  13    1.93    0.31
   5   3  13    2.02    0.39
  -6  -3 -13    6.78    0.41
   6   3  13    5.90    0.58
   6   3  13    5.66    0.65
  -7  -3 -13    7.94    0.50
   7   3  13    7.39    0.77
   7   3  13    7.59    0.68
  -8  -3 -13    4.14    0.27
  -8  -3 -13    4.15    0.29
   8   3  13    4.00    0.55
   8   3  13    3.90    0.50
  -9  -3 -13   11.72    0.77
  -9  -3 -13   11.87    0.76
   9   3  13   12.97    0.92
   9   3  13   12.16    0.99
 -10  -3 -13    0.58    0.09
  10   3  13    0.83    0.20
  10   3  13    0.48    0.25
  -5   4  13    0.46    0.06
  -5   4  13    0.42    0.08
   4  -4 -13    1.06    0.08
   4  -4 -13    1.16    0.09
   4  -4 -13    1.13    0.10
  -4   4  13    1.12    0.14
  -4   4  13    1.25    0.12
   3  -4 -13    1.84    0.14
   3  -4 -13    1.75    0.13
   3  -4 -13    1.79    0.11
  -3   4  13    1.64    0.16
  -3   4  13    1.60    0.19
   2  -4 -13   29.19    1.54
   2  -4 -13   29.89    1.72
   2  -4 -13   29.76    1.81
  -2   4  13   29.09    1.93
  -2   4  13   28.41    2.03
   1  -4 -13    0.92    0.10
   1  -4 -13    0.83    0.07
   1  -4 -13    0.94    0.09
  -1   4  13    0.85    0.17
  -1   4  13    0.77    0.13
   0  -4 -13   39.73    2.13
   0  -4 -13   37.22    1.91
   0  -4 -13   39.97    2.24
   0   4  13   30.71    2.51
   0   4  13   33.65    2.39
  -1  -4 -13    3.88    0.22
  -1  -4 -13    3.06    0.23
   1   4  13    2.89    0.29
   1   4  13    2.91    0.35
  -2  -4 -13    4.92    0.30
   2   4  13    4.69    0.38
   2   4  13    4.55    0.44
   3   4  13    0.03    0.13
   3   4  13    0.04    0.18
  -4  -4 -13   61.59    3.73
   4   4  13   57.73    4.13
   4   4  13   60.32    3.94
  -5  -4 -13    1.97    0.13
   5   4  13    1.47    0.27
   5   4  13    1.53    0.31
  -6  -4 -13    0.32    0.05
   6   4  13    0.23    0.27
   6   4  13    0.35    0.23
  -7  -4 -13    1.55    0.12
   7   4  13    1.21    0.31
   7   4  13    1.53    0.36
  -8  -4 -13   16.36    0.98
  -8  -4 -13   15.56    0.98
   8   4  13   14.43    1.20
   8   4  13   15.61    1.14
  -9  -4 -13    8.99    0.60
  -9  -4 -13    9.46    0.59
   9   4  13   10.04    0.75
   9   4  13    9.14    0.78
 -10  -4 -13   32.92    2.17
  10   4  13   35.17    2.43
  10   4  13   37.59    2.33
  -5   5  13    1.54    0.12
   4  -5 -13    3.06    0.20
   4  -5 -13    2.81    0.19
   4  -5 -13    2.95    0.17
  -4   5  13    2.85    0.24
  -4   5  13    3.20    0.22
   3  -5 -13   16.48    0.87
   3  -5 -13   17.05    1.03
   3  -5 -13   16.07    0.97
  -3   5  13   17.25    1.10
  -3   5  13   15.74    1.15
   2  -5 -13    2.46    0.14
   2  -5 -13    2.42    0.18
   2  -5 -13    2.36    0.16
  -2   5  13    2.16    0.23
  -2   5  13    2.43    0.21
   1  -5 -13   18.84    1.07
   1  -5 -13   17.39    0.96
   1  -5 -13   18.31    1.12
  -1   5  13   16.99    1.28
  -1   5  13   18.87    1.21
   0  -5 -13    1.39    0.11
   0  -5 -13    1.18    0.11
   0  -5 -13    1.33    0.08
   0   5  13    0.97    0.19
   0   5  13    1.02    0.16
  -1  -5 -13    3.23    0.20
   1   5  13    2.82    0.31
   1   5  13    2.82    0.28
  -2  -5 -13    4.80    0.29
   2   5  13    4.43    0.42
   2   5  13    4.69    0.38
  -3  -5 -13   54.94    3.32
   3   5  13   53.62    3.50
   3   5  13   51.07    3.66
  -4  -5 -13    0.17    0.04
   4   5  13    0.21    0.16
   4   5  13    0.20    0.18
  -5  -5 -13    1.41    0.11
   5   5  13    1.34    0.27
   5   5  13    1.49    0.25
  -6  -5 -13   17.00    1.06
   6   5  13   16.02    1.26
   6   5  13   17.75    1.21
  -7  -5 -13    6.73    0.44
   7   5  13    6.58    0.62
   7   5  13    7.78    0.62
  -8  -5 -13    0.83    0.07
   8   5  13    0.98    0.27
   8   5  13    0.77    0.26
  -9  -5 -13   17.16    1.13
  -9  -5 -13   17.23    1.13
   9   5  13   20.56    1.27
  10   5  13   10.46    0.74
   4  -6 -13   33.46    1.83
   4  -6 -13   33.91    2.03
   4  -6 -13   35.44    2.13
  -4   6  13   36.43    2.27
   3  -6 -13   17.00    1.02
   3  -6 -13   17.23    1.07
   3  -6 -13   17.22    0.91
  -3   6  13   17.85    1.14
   2  -6 -13    1.19    0.08
   2  -6 -13    1.06    0.09
   2  -6 -13    1.08    0.10
  -2   6  13    1.09    0.13
   1  -6 -13    8.69    0.52
   1  -6 -13    8.74    0.55
   1  -6 -13    8.60    0.46
  -1   6  13    8.59    0.60
   0  -6 -13   44.89    2.58
   0  -6 -13   44.13    2.71
   0  -6 -13   44.24    2.32
   0   6  13   43.73    2.90
  -1  -6 -13    2.15    0.15
   1   6  13    2.43    0.24
  -2  -6 -13   30.50    1.80
   2   6  13   31.04    2.04
  -3  -6 -13    0.50    0.06
   3   6  13    0.57    0.15
  -4  -6 -13    2.60    0.17
   4   6  13    1.77    0.26
  -5  -6 -13    1.04    0.09
   5   6  13    1.12    0.22
  -6  -6 -13    2.25    0.16
   6   6  13    2.09    0.29
  -7  -6 -13    0.06    0.03
   7   6  13    0.19    0.21
  -8  -6 -13    2.35    0.16
   8   6  13    2.61    0.34
  -9  -6 -13    4.76    0.31
  -9  -6 -13    4.47    0.31
   9   6  13    5.57    0.42
   4  -7 -13    0.41    0.04
  -4   7  13    0.34    0.05
   3  -7 -13   18.57    1.00
   3  -7 -13   18.99    1.11
   3  -7 -13   18.37    1.16
  -3   7  13   19.66    1.24
   2  -7 -13   13.57    0.86
   2  -7 -13   13.63    0.73
   2  -7 -13   13.98    0.82
  -2   7  13   14.35    0.93
   1  -7 -13    0.13    0.05
   1  -7 -13    0.13    0.03
   1  -7 -13    0.09    0.04
  -1   7  13    0.21    0.08
   0  -7 -13    8.77    0.53
   0  -7 -13    8.34    0.50
   0  -7 -13    8.41    0.44
   0   7  13    7.68    0.58
  -1  -7 -13    2.12    0.15
   1   7  13    2.15    0.22
  -2  -7 -13    1.86    0.13
   2   7  13    1.74    0.21
  -3  -7 -13    8.57    0.57
   3   7  13    9.48    0.65
  -4  -7 -13    6.18    0.41
   4   7  13    6.54    0.49
  -5  -7 -13   54.40    3.53
   5   7  13   59.18    3.73
  -6  -7 -13    6.53    0.42
   6   7  13    6.73    0.53
  -7  -7 -13    0.10    0.03
   7   7  13    0.06    0.17
  -8  -7 -13    1.55    0.11
   8   7  13    1.85    0.25
   9   7  13    0.47    0.14
   3  -8 -13    1.40    0.11
   3  -8 -13    1.48    0.10
   3  -8 -13    1.36    0.09
  -3   8  13    1.49    0.12
   2  -8 -13    8.81    0.48
   2  -8 -13    8.98    0.56
   2  -8 -13    9.10    0.54
  -2   8  13    9.24    0.61
   1  -8 -13    5.74    0.38
   1  -8 -13    6.08    0.36
   1  -8 -13    6.02    0.32
  -1   8  13    6.27    0.42
   0  -8 -13    3.28    0.21
   0  -8 -13    3.25    0.22
   0  -8 -13    3.22    0.18
   0   8  13    3.21    0.26
  -1  -8 -13   14.76    0.91
   1   8  13   16.08    1.04
   2   8  13   20.43    1.37
  -3  -8 -13    3.88    0.26
   3   8  13    3.97    0.32
  -4  -8 -13    0.57    0.06
   4   8  13    0.79    0.15
  -5  -8 -13    2.06    0.14
   5   8  13    1.75    0.24
  -6  -8 -13    6.23    0.39
   6   8  13    5.74    0.47
  -7  -8 -13    2.47    0.17
   7   8  13    2.74    0.27
  -8  -8 -13    2.63    0.18
   8   8  13    2.97    0.26
   3  -9 -13    6.09    0.35
  -3   9  13    5.67    0.39
   2  -9 -13    0.10    0.03
   2  -9 -13    0.04    0.02
   2  -9 -13    0.09    0.04
  -2   9  13    0.07    0.05
   1  -9 -13    7.29    0.41
   1  -9 -13    6.33    0.43
   1  -9 -13    6.90    0.37
  -1   9  13    6.90    0.47
   0  -9 -13    4.72    0.25
   0  -9 -13    4.81    0.29
   0  -9 -13    4.67    0.30
   0   9  13    4.65    0.34
  -1  -9 -13    6.61    0.41
   1   9  13    7.02    0.48
   2   9  13   24.16    1.60
  -3  -9 -13    7.86    0.56
   3   9  13    9.24    0.62
   3   9  13   10.32    1.31
  -4  -9 -13    1.06    0.08
   4   9  13    0.94    0.68
   4   9  13    1.06    0.14
   5   9  13    2.17    0.77
  -6  -9 -13    5.08    0.30
   6   9  13    4.04    0.36
  -7  -9 -13    4.94    0.32
   7   9  13    5.10    0.37
  -8  -9 -13    0.53    0.05
   8   9  13    0.69    0.10
   2 -10 -13    5.37    0.32
   1 -10 -13    0.80    0.05
   1 -10 -13    0.73    0.07
   1 -10 -13    0.76    0.07
  -1  10  13    0.85    0.09
   0 -10 -13    1.02    0.06
   0 -10 -13    1.10    0.08
   0  10  13    1.02    0.11
  -1 -10 -13   20.29    1.22
   1  10  13   21.59    1.38
   2  10  13    0.20    0.08
  -3 -10 -13    0.25    0.04
   3  10  13    0.01    0.49
   3  10  13    0.40    0.09
  -4 -10 -13    6.74    0.46
   4  10  13    7.68    0.51
   4  10  13    7.88    1.12
  -5 -10 -13    4.49    0.29
   5  10  13    4.59    0.33
   5  10  13    4.47    0.89
  -6 -10 -13    3.53    0.23
  -7 -10 -13    1.31    0.09
   1 -11 -13   11.77    0.69
   0 -11 -13    9.85    0.58
  -1 -11 -13    7.79    0.46
  -3 -11 -13    0.07    0.03
  -4 -11 -13   15.40    0.97
   4  11  13   15.46    1.99
   5  11  13    0.33    0.44
  -6 -11 -13    5.76    0.37
  -4 -12 -13    0.05    0.02
  -1   9 -14    0.14    0.05
  -2   9 -14   18.04    1.06
  -2   9 -14   17.99    1.01
  -3   9 -14    0.16    0.05
  -3   9 -14    0.16    0.06
  -3   9 -14    0.15    0.18
   3  -9  14    0.24    0.05
  -4   9 -14    0.07    0.18
  -4   9 -14    0.05    0.05
  -4   9 -14    0.06    0.03
   4  -9  14    0.05    0.04
   5  -9  14    0.23    0.05
   0   8 -14    6.34    0.39
   0  -8  14    6.24    0.46
   0  -8  14    6.55    0.49
  -1   8 -14   11.28    0.71
   1  -8  14   12.52    0.85
  -2   8 -14    0.54    0.07
  -2   8 -14    0.71    0.09
   2  -8  14    0.45    0.13
  -3   8 -14    5.62    0.56
  -3   8 -14    6.43    0.37
  -3   8 -14    6.29    0.39
   3  -8  14    6.34    0.47
  -4   8 -14    0.17    0.05
  -4   8 -14    0.26    0.06
   4  -8  14    0.05    0.05
   4  -8  14    0.05    0.05
  -5   8 -14    4.73    0.32
  -5   8 -14    5.27    0.29
  -5   8 -14    4.85    0.51
   5  -8  14    5.52    0.42
   5  -8  14    5.04    0.39
  -6   8 -14   -0.05    0.07
  -6   8 -14    0.39    0.23
   6  -8  14    0.08    0.05
   6  -8  14   -0.03    0.06
   7  -8  14    1.06    0.12
   1   7 -14    1.08    0.10
   1   7 -14    1.27    0.12
   1   7 -14    1.24    0.14
  -1  -7  14    1.42    0.17
   0   7 -14    1.78    0.16
   0   7 -14    1.55    0.13
   0   7 -14    1.38    0.12
   0  -7  14    1.05    0.16
  -1   7 -14    2.99    0.23
  -1   7 -14    3.20    0.22
   1  -7  14    3.26    0.30
  -2   7 -14    5.19    0.31
  -2   7 -14    4.38    0.29
   2  -7  14    5.01    0.42
  -3   7 -14    0.62    0.08
  -3   7 -14    0.62    0.08
   3  -7  14    0.67    0.09
  -4   7 -14   11.22    1.01
  -4   7 -14   12.21    0.70
  -4   7 -14   11.38    0.74
   4  -7  14   12.61    0.90
   4  -7  14   13.83    0.97
  -5   7 -14    6.46    0.39
  -5   7 -14    6.99    0.42
  -5   7 -14    7.24    0.65
   5  -7  14    6.66    0.55
  -6   7 -14    0.98    0.13
  -6   7 -14    1.24    0.31
   6  -7  14    0.98    0.16
  -7   7 -14    2.26    0.20
  -7   7 -14    2.35    0.36
   7  -7  14    2.76    0.25
   2   6 -14    1.86    0.14
   2   6 -14    1.69    0.17
   1   6 -14    0.34    0.08
   1   6 -14    0.27    0.07
   1   6 -14    0.23    0.06
  -1  -6  14    0.22    0.12
   0   6 -14    0.24    0.07
   0   6 -14    0.19    0.06
   0   6 -14    0.15    0.08
   0  -6  14    0.15    0.10
  -1   6 -14    4.34    0.28
  -1   6 -14    4.40    0.30
   1  -6  14    4.13    0.38
  -2   6 -14    3.31    0.25
  -2   6 -14    3.65    0.24
  -3   6 -14    0.10    0.05
  -3   6 -14    0.09    0.06
   3  -6  14    0.09    0.06
  -4   6 -14    0.07    0.06
  -4   6 -14    0.10    0.05
   4  -6  14    0.20    0.09
  -5   6 -14    8.14    0.45
  -5   6 -14    7.22    0.74
  -5   6 -14    7.08    0.52
   5  -6  14    8.74    0.65
  -6   6 -14    0.43    0.05
  -6   6 -14    0.44    0.08
  -6   6 -14    0.17    0.30
   6  -6  14    0.36    0.14
  -7   6 -14    0.08    0.07
  -7   6 -14    0.10    0.27
   7  -6  14    0.05    0.12
  -8   6 -14   -0.02    0.06
   8  -6  14   -0.07    0.09
   2   5 -14   13.09    0.83
   2   5 -14   12.64    1.00
   2   5 -14   12.57    0.78
  -2  -5  14   14.67    0.96
   1   5 -14    1.03    0.11
   1   5 -14    0.77    0.13
   1   5 -14    0.89    0.09
  -1  -5  14    1.25    0.17
   0   5 -14    5.79    0.47
   0   5 -14    5.84    0.37
   0   5 -14    6.07    0.39
   0  -5  14    5.61    0.46
  -1   5 -14    0.63    0.09
  -1   5 -14    0.53    0.08
   1  -5  14    0.51    0.16
  -2   5 -14    1.55    0.15
  -2   5 -14    1.90    0.15
  -3   5 -14    0.06    0.06
   3  -5  14    0.04    0.06
  -4   5 -14    0.14    0.05
  -4   5 -14    0.10    0.06
   4  -5  14    0.12    0.11
  -5   5 -14    9.28    0.63
  -5   5 -14    9.41    0.56
   5  -5  14   10.77    0.81
  -6   5 -14    1.38    0.13
  -6   5 -14    1.61    0.38
  -6   5 -14    1.57    0.11
   6  -5  14    1.46    0.22
  -7   5 -14    1.07    0.08
  -7   5 -14    0.89    0.11
  -7   5 -14    0.56    0.31
  -8   5 -14    3.28    0.23
  -8   5 -14    2.71    0.30
  -8   5 -14    2.77    0.41
   8  -5  14    3.02    0.31
   9  -5  14    3.23    0.29
   3   4 -14    3.25    0.27
   3   4 -14    3.22    0.22
   2   4 -14    0.72    0.08
   2   4 -14    0.79    0.12
   2   4 -14    0.86    0.10
  -2  -4  14    0.78    0.13
   1   4 -14    2.75    0.20
   1   4 -14    2.84    0.27
   1   4 -14    3.03    0.22
  -1  -4  14    3.18    0.28
   0   4 -14   40.69    2.39
   0   4 -14   38.32    2.89
   0   4 -14   40.00    2.27
   0  -4  14   35.70    2.69
  -1   4 -14   13.68    0.89
  -1   4 -14   14.49    0.84
  -2   4 -14    4.19    0.27
  -2   4 -14    4.12    0.29
  -3   4 -14    2.32    0.17
  -4   4 -14   35.40    2.11
   4  -4  14   36.29    2.78
   5  -4  14    0.71    0.17
  -6   4 -14    8.15    0.54
   6  -4  14    8.82    0.66
   6  -4  14    8.23    0.72
  -7   4 -14    0.29    0.05
  -7   4 -14    0.29    0.06
   7  -4  14    0.30    0.16
   7  -4  14    0.15    0.18
  -8   4 -14    4.70    0.55
  -8   4 -14    4.70    0.41
  -8   4 -14    5.95    0.36
   8  -4  14    5.17    0.48
  -9   4 -14    1.17    0.11
   9  -4  14    0.99    0.16
   3   3 -14    4.76    0.31
   3   3 -14    4.64    0.38
  -3  -3  14    4.83    0.35
   2   3 -14    8.85    0.70
   2   3 -14    9.90    0.58
   2   3 -14    8.86    0.54
  -2  -3  14    8.54    0.65
   1   3 -14    5.87    0.51
   1   3 -14    6.61    0.42
   1   3 -14    6.55    0.40
  -1  -3  14    6.91    0.50
  -1  -3  14    6.05    0.50
   0   3 -14    8.01    0.48
   0   3 -14    7.27    0.58
   0   3 -14    7.87    0.45
   0  -3  14    6.97    0.56
   0  -3  14    6.00    0.56
  -1   3 -14    9.20    0.62
  -1   3 -14    9.55    0.59
   1  -3  14   10.65    0.74
  -2   3 -14   12.69    0.89
  -2   3 -14   14.85    0.85
   2  -3  14   15.21    1.05
  -3   3 -14    1.42    0.13
   3  -3  14    1.89    0.26
  -4   3 -14   32.97    1.94
   4  -3  14   33.77    2.56
   4  -3  14   32.02    2.30
  -5   3 -14   48.42    3.08
   5  -3  14   50.14    3.41
   5  -3  14   49.76    3.83
  -6   3 -14    0.90    0.09
   6  -3  14    1.19    0.25
   6  -3  14    0.79    0.19
  -7   3 -14    3.34    0.22
   7  -3  14    3.23    0.38
   7  -3  14    2.42    0.34
  -8   3 -14    8.91    0.68
  -8   3 -14   10.46    0.64
   8  -3  14   10.44    0.78
  -9   3 -14   22.28    1.53
  -9   3 -14   25.32    1.53
   9  -3  14   25.40    1.70
   3   2 -14    1.20    0.15
   3   2 -14    1.28    0.12
  -3  -2  14    1.38    0.15
   2   2 -14    1.05    0.14
   2   2 -14    1.05    0.11
   2   2 -14    0.98    0.09
  -2  -2  14    1.11    0.15
   1   2 -14    0.12    0.05
   1   2 -14    0.05    0.08
   1   2 -14    0.06    0.07
  -1  -2  14    0.12    0.12
   0   2 -14   29.45    1.66
   0   2 -14   31.55    1.75
   0   2 -14   29.52    2.12
   0  -2  14   24.80    1.96
   0  -2  14   25.32    1.97
  -1   2 -14   11.54    0.70
  -1   2 -14   11.04    0.74
   1  -2  14   12.42    0.88
  -2   2 -14    2.05    0.17
  -2   2 -14    2.13    0.16
   2  -2  14    2.26    0.29
  -3   2 -14    3.33    0.22
   3  -2  14    3.06    0.35
   4  -2  14    1.29    0.22
   4  -2  14    1.77    0.27
  -5   2 -14    2.47    0.18
   5  -2  14    2.45    0.35
   5  -2  14    2.35    0.30
  -6   2 -14    5.21    0.33
   6  -2  14    4.23    0.47
   6  -2  14    5.44    0.51
  -7   2 -14    0.06    0.04
   7  -2  14    0.02    0.24
  -8   2 -14    2.46    0.26
  -8   2 -14    2.56    0.18
   8  -2  14    2.89    0.38
  -9   2 -14    0.06    0.04
  -9   2 -14    0.14    0.12
   9  -2  14   -0.01    0.20
  -4  -1  14    2.01    0.17
   3   1 -14   53.25    4.13
   3   1 -14   55.04    3.41
  -3  -1  14   58.48    3.78
   2   1 -14    0.57    0.07
   2   1 -14    0.78    0.09
  -2  -1  14    0.57    0.13
  -1  -1  14    3.22    0.31
   0   1 -14    5.11    0.30
   0   1 -14    5.39    0.33
   0  -1  14    4.05    0.38
   0  -1  14    4.07    0.42
  -1   1 -14    2.55    0.18
  -1   1 -14    2.36    0.19
   1  -1  14    2.78    0.31
  -2   1 -14   13.14    0.86
  -2   1 -14   14.08    0.82
   2  -1  14   13.77    1.02
  -3   1 -14    0.25    0.06
   3  -1  14    0.39    0.20
   4  -1  14   19.75    1.61
   4  -1  14   21.74    1.50
  -5   1 -14    4.68    0.30
   5  -1  14    4.13    0.43
   5  -1  14    4.56    0.47
  -6   1 -14    0.11    0.04
   6  -1  14    0.14    0.25
   6  -1  14    0.05    0.15
  -7   1 -14    7.04    0.47
   7  -1  14    7.85    0.68
  -8   1 -14    8.96    0.63
  -8   1 -14    9.32    0.61
   8  -1  14   10.83    0.82
  -9   1 -14   10.70    0.76
  -9   1 -14   11.63    0.75
   9  -1  14   13.55    0.92
  10  -1  14    0.03    0.16
   4   0 -14   14.56    1.17
  -4   0  14   16.58    1.08
   3   0 -14   10.83    0.68
   3   0 -14   11.40    0.72
  -3   0  14   12.13    0.81
   2   0 -14    1.62    0.13
   2   0 -14    1.72    0.14
  -2   0  14    1.95    0.21
   1   0 -14    2.11    0.16
   1   0 -14    2.25    0.17
  -1   0  14    2.20    0.26
   0   0 -14   29.62    1.71
   0   0 -14   30.33    1.63
   0   0  14   22.37    1.93
  -1   0 -14   41.69    2.34
  -1   0 -14   36.28    2.45
   1   0  14   41.80    2.77
  -2   0 -14   52.89    3.07
   2   0  14   52.01    3.62
  -3   0 -14    2.18    0.15
   3   0  14    1.86    0.29
  -4   0 -14    0.82    0.08
   4   0  14    1.26    0.25
  -5   0 -14   33.72    2.09
   5   0  14   33.14    2.37
  -6   0 -14    0.12    0.04
   6   0  14    0.06    0.14
   6   0  14    0.14    0.27
  -7   0 -14    0.06    0.04
   7   0  14   -0.11    0.27
  -8   0 -14    0.00    0.04
   8   0  14    0.10    0.27
  -9   0 -14   10.74    0.71
  -9   0 -14   11.15    0.73
   9   0  14   12.45    0.90
  10   0  14    0.03    0.17
  -4   1  14   11.33    0.79
   3  -1 -14   14.23    0.91
   3  -1 -14   15.85    0.96
  -3   1  14   16.52    1.09
   2  -1 -14   13.68    0.86
   2  -1 -14   12.93    0.81
  -2   1  14   14.64    0.98
   1  -1 -14    1.61    0.15
   1  -1 -14    1.73    0.13
  -1   1  14    1.98    0.24
   0  -1 -14    0.53    0.07
   0  -1 -14    0.51    0.08
   0   1  14    0.42    0.17
  -1  -1 -14    5.53    0.34
  -1  -1 -14    5.20    0.36
   1   1  14    5.50    0.48
  -2  -1 -14    0.06    0.05
   2   1  14    0.00    0.17
  -3  -1 -14    2.89    0.19
   3   1  14    2.74    0.34
  -4  -1 -14   20.19    1.26
   4   1  14   19.49    1.46
   4   1  14   20.68    1.36
  -5  -1 -14    0.40    0.05
   5   1  14    0.34    0.15
   5   1  14    0.29    0.24
  -6  -1 -14    3.32    0.20
   6   1  14    2.21    0.31
   6   1  14    2.40    0.39
  -7  -1 -14    1.99    0.14
   7   1  14    1.76    0.25
   7   1  14    1.84    0.37
  -8  -1 -14   11.51    0.75
   8   1  14   12.71    0.97
   8   1  14   11.87    0.85
  -9  -1 -14    1.24    0.14
  -9  -1 -14    1.02    0.09
   9   1  14    1.49    0.29
   9   1  14    1.21    0.19
  10   1  14    0.01    0.18
  -4   2  14    0.73    0.11
   3  -2 -14    3.62    0.25
   3  -2 -14    3.62    0.24
  -3   2  14    3.70    0.27
  -3   2  14    4.26    0.31
   2  -2 -14    4.62    0.31
   2  -2 -14    4.34    0.29
  -2   2  14    5.00    0.38
  -2   2  14    4.75    0.33
   1  -2 -14    7.64    0.49
   1  -2 -14    7.63    0.46
  -1   2  14    8.05    0.59
  -1   2  14    7.19    0.53
   0  -2 -14    3.37    0.23
   0  -2 -14    3.53    0.21
   0   2  14    2.59    0.26
   0   2  14    2.91    0.33
  -1  -2 -14   10.60    0.60
  -1  -2 -14    9.33    0.63
   1   2  14   10.04    0.69
   1   2  14    9.83    0.77
  -2  -2 -14    0.42    0.06
   2   2  14    0.32    0.11
   2   2  14    0.29    0.19
  -3  -2 -14    0.11    0.05
   3   2  14    0.01    0.18
   3   2  14    0.05    0.11
  -4  -2 -14    2.49    0.18
   4   2  14    2.68    0.34
   4   2  14    2.68    0.27
  -5  -2 -14    1.98    0.14
   5   2  14    1.49    0.23
   5   2  14    1.71    0.31
  -6  -2 -14    4.98    0.33
   6   2  14    5.18    0.44
   6   2  14    5.46    0.53
  -7  -2 -14    0.92    0.08
   7   2  14    0.84    0.21
   7   2  14    1.09    0.31
  -8  -2 -14    9.46    0.61
   8   2  14    9.52    0.71
   8   2  14   10.33    0.81
  -9  -2 -14    1.36    0.15
  -9  -2 -14    1.54    0.11
   9   2  14    1.71    0.21
   9   2  14    1.62    0.29
  10   2  14    0.61    0.18
  -4   3  14    0.25    0.07
  -4   3  14    0.31    0.05
   3  -3 -14   17.90    1.05
   3  -3 -14   18.52    1.10
  -3   3  14   17.07    1.17
  -3   3  14   17.59    1.23
   2  -3 -14   34.64    2.10
   2  -3 -14   34.37    2.00
  -2   3  14   35.26    2.35
  -2   3  14   32.57    2.24
   1  -3 -14    3.53    0.25
   1  -3 -14    3.68    0.23
  -1   3  14    3.68    0.33
  -1   3  14    3.42    0.28
   0  -3 -14    2.38    0.15
   0  -3 -14    2.29    0.17
   0   3  14    1.80    0.26
   0   3  14    1.71    0.20
  -1  -3 -14    5.58    0.33
  -1  -3 -14    4.89    0.35
   1   3  14    5.26    0.40
   1   3  14    5.71    0.47
   2   3  14    0.95    0.15
   2   3  14    1.04    0.22
   3   3  14    0.81    0.15
   3   3  14    0.96    0.21
  -4  -3 -14    2.22    0.16
   4   3  14    2.37    0.31
   4   3  14    2.23    0.25
  -5  -3 -14   12.05    0.71
   5   3  14   10.60    0.87
   5   3  14   10.42    0.80
  -6  -3 -14   11.70    0.74
   6   3  14   11.22    0.84
   6   3  14   12.46    0.93
  -7  -3 -14    2.97    0.20
   7   3  14    2.72    0.32
   7   3  14    2.76    0.40
  -8  -3 -14    8.45    0.54
   8   3  14    8.75    0.72
   8   3  14    8.46    0.64
  -9  -3 -14    8.22    0.56
   9   3  14    9.09    0.64
   9   3  14    9.50    0.70
  -4   4  14    0.47    0.06
  -4   4  14    0.47    0.08
   3  -4 -14    0.06    0.05
   3  -4 -14    0.07    0.04
  -3   4  14    0.12    0.05
  -3   4  14    0.12    0.08
  -2   4  14    0.24    0.10
   1  -4 -14    7.97    0.50
   1  -4 -14    7.85    0.47
  -1   4  14    7.73    0.54
  -1   4  14    7.55    0.59
   0  -4 -14   19.07    1.11
   0  -4 -14   19.68    1.06
   0   4  14   16.56    1.20
   0   4  14   15.99    1.27
  -1  -4 -14    3.65    0.26
  -1  -4 -14    3.94    0.25
   1   4  14    3.99    0.32
   1   4  14    4.27    0.37
  -2  -4 -14    3.07    0.20
   2   4  14    3.27    0.33
   2   4  14    2.92    0.27
   3   4  14    7.54    0.58
   3   4  14    6.64    0.52
  -4  -4 -14    1.66    0.12
   4   4  14    1.97    0.23
   4   4  14    1.97    0.27
  -5  -4 -14    2.99    0.21
   5   4  14    3.25    0.36
   5   4  14    3.34    0.32
  -6  -4 -14    6.74    0.43
   6   4  14    7.13    0.54
   6   4  14    6.46    0.58
  -7  -4 -14    2.54    0.17
   7   4  14    2.39    0.30
   7   4  14    2.36    0.34
  -8  -4 -14   13.41    0.86
   8   4  14   14.60    0.97
   8   4  14   13.22    1.02
  -9  -4 -14    4.82    0.33
   9   4  14    5.51    0.44
   9   4  14    5.36    0.41
   3  -5 -14    0.15    0.04
   3  -5 -14    0.23    0.05
  -3   5  14    0.12    0.07
  -3   5  14    0.12    0.05
   2  -5 -14    0.16    0.04
   2  -5 -14    0.08    0.05
  -2   5  14    0.06    0.06
  -2   5  14    0.05    0.08
   1  -5 -14   14.21    0.80
   1  -5 -14   13.43    0.84
  -1   5  14   11.90    0.95
  -1   5  14   14.24    0.91
   0  -5 -14    2.12    0.14
   0  -5 -14    2.04    0.15
   0   5  14    1.61    0.22
   0   5  14    1.71    0.19
  -1  -5 -14    2.09    0.14
   1   5  14    1.82    0.23
   1   5  14    1.81    0.20
  -2  -5 -14    3.24    0.21
   2   5  14    3.32    0.29
   2   5  14    3.52    0.33
   3   5  14    3.79    0.32
   3   5  14    3.43    0.35
  -4  -5 -14   13.77    0.92
   4   5  14   15.71    1.02
   4   5  14   14.83    1.07
  -5  -5 -14   13.03    0.86
   5   5  14   14.85    0.96
   5   5  14   13.41    1.01
  -6  -5 -14    2.36    0.16
   6   5  14    1.96    0.28
   6   5  14    2.40    0.29
  -7  -5 -14   11.38    0.74
   7   5  14   12.53    0.84
   7   5  14   11.62    0.88
  -8  -5 -14    2.95    0.20
   8   5  14    3.55    0.32
   8   5  14    3.07    0.32
  -9  -5 -14   16.04    1.08
   9   5  14   18.69    1.16
   3  -6 -14    2.54    0.16
   3  -6 -14    2.50    0.17
  -3   6  14    2.60    0.19
   2  -6 -14    7.93    0.48
   2  -6 -14    7.88    0.51
  -2   6  14    8.51    0.55
   1  -6 -14   10.04    0.58
   1  -6 -14    9.32    0.61
  -1   6  14    9.74    0.66
   0  -6 -14    8.23    0.53
   0  -6 -14    8.93    0.51
   0   6  14    8.20    0.59
  -1  -6 -14   42.38    2.60
   1   6  14   46.95    2.92
  -2  -6 -14   15.33    0.95
   2   6  14   17.04    1.09
   3   6  14   31.09    2.06
  -4  -6 -14    0.75    0.07
   4   6  14    0.51    0.15
   5   6  14    0.20    0.14
  -6  -6 -14    1.18    0.09
   6   6  14    1.56    0.21
  -7  -6 -14    0.24    0.04
   7   6  14    0.38    0.16
  -8  -6 -14    2.96    0.20
   8   6  14    3.49    0.29
   9   6  14    2.59    0.23
  -3   7  14    1.55    0.12
   2  -7 -14    8.93    0.58
   2  -7 -14    9.30    0.55
  -2   7  14    9.56    0.62
   1  -7 -14    0.48    0.06
   1  -7 -14    0.55    0.07
  -1   7  14    0.33    0.08
   0  -7 -14    7.09    0.41
   0  -7 -14    7.06    0.43
   0   7  14    6.05    0.47
  -1  -7 -14    2.12    0.15
   1   7  14    2.74    0.22
  -2  -7 -14    5.03    0.32
   2   7  14    5.49    0.40
   3   7  14    0.45    0.12
  -4  -7 -14   16.81    1.13
   4   7  14   19.57    1.22
  -5  -7 -14    0.70    0.06
   5   7  14    0.37    0.14
  -6  -7 -14    5.62    0.38
   6   7  14    6.44    0.46
  -7  -7 -14    9.43    0.64
   7   7  14   10.98    0.71
  -8  -7 -14    4.00    0.27
   8   7  14    4.61    0.33
   2  -8 -14    2.60    0.17
   2  -8 -14    2.50    0.16
  -2   8  14    2.64    0.19
   1  -8 -14    0.06    0.04
   1  -8 -14    0.04    0.03
  -1   8  14    0.07    0.06
   0  -8 -14    0.51    0.06
   0  -8 -14    0.44    0.06
   0   8  14    0.33    0.08
  -1  -8 -14    1.88    0.13
   1   8  14    2.28    0.19
   2   8  14    2.89    0.25
   3   8  14   18.92    1.26
  -4  -8 -14    0.93    0.08
   4   8  14    1.02    0.14
  -5  -8 -14    5.52    0.36
   5   8  14    5.90    0.42
  -6  -8 -14    0.50    0.05
   6   8  14    0.46    0.12
  -7  -8 -14    2.00    0.14
   7   8  14    2.18    0.20
   8   8  14    2.81    0.22
   1  -9 -14    0.28    0.04
   1  -9 -14    0.26    0.04
  -1   9  14    0.25    0.05
   0  -9 -14   16.80    0.96
   0   9  14   15.73    1.07
   1   9  14    0.07    0.07
   2   9  14    0.06    0.08
   3   9  14    0.25    0.09
  -4  -9 -14   16.13    1.14
   4   9  14   20.52    1.21
  -5  -9 -14    8.26    0.54
   5   9  14    9.05    0.59
  -6  -9 -14    1.99    0.14
   6   9  14    2.20    0.18
  -7  -9 -14    0.21    0.03
   7   9  14    0.29    0.08
   0 -10 -14    9.57    0.54
   0  10  14    8.79    0.61
  -1 -10 -14   15.07    0.93
   1  10  14   16.64    1.04
   3  10  14    0.52    0.09
  -4 -10 -14    9.71    0.69
   4  10  14   12.52    0.74
  -5 -10 -14    0.12    0.03
   5  10  14    0.09    0.07
  -6 -10 -14    0.93    0.07
  -2   8 -15    1.04    0.09
  -3   8 -15    1.11    0.09
  -3   8 -15    1.31    0.10
  -4   8 -15    1.49    0.10
  -1   7 -15    7.67    0.47
   1  -7  15    8.04    0.56
  -2   7 -15    3.72    0.26
  -2   7 -15    4.33    0.27
   2  -7  15    5.05    0.35
  -3   7 -15    0.13    0.05
  -3   7 -15    0.12    0.05
   3  -7  15    0.19    0.11
  -4   7 -15    1.08    0.09
  -4   7 -15    1.04    0.09
  -5   7 -15    0.23    0.04
   0   6 -15    0.17    0.05
   0   6 -15    0.25    0.06
   0  -6  15    0.32    0.10
  -1   6 -15    0.57    0.07
  -1   6 -15    0.37    0.07
   1  -6  15    0.49    0.10
  -2   6 -15    1.23    0.11
   2  -6  15    1.71    0.20
  -3   6 -15    1.04    0.09
  -3   6 -15    0.78    0.08
  -4   6 -15    2.26    0.16
  -4   6 -15    2.09    0.14
  -5   6 -15    9.40    0.56
   5  -6  15   10.30    0.77
   6  -6  15    0.36    0.07
   7  -6  15    0.66    0.10
   1   5 -15    1.25    0.11
   1   5 -15    1.31    0.10
   0   5 -15   39.77    2.96
   0   5 -15   41.48    2.45
   0   5 -15   40.65    2.33
   0  -5  15   37.25    2.79
  -1   5 -15    0.93    0.10
  -1   5 -15    0.91    0.09
   1  -5  15    1.07    0.15
  -2   5 -15    0.08    0.05
  -2   5 -15    0.11    0.06
   2  -5  15    0.15    0.13
  -3   5 -15    2.45    0.17
  -4   5 -15    2.12    0.15
  -4   5 -15    2.40    0.16
  -5   5 -15    4.04    0.23
   5  -5  15    3.68    0.32
  -6   5 -15    0.57    0.06
  -6   5 -15    0.62    0.08
   6  -5  15    0.49    0.11
  -7   5 -15    0.98    0.11
   7  -5  15    1.06    0.15
   1   4 -15    7.41    0.46
   1   4 -15    6.78    0.55
   1   4 -15    7.26    0.43
   0   4 -15    0.66    0.09
   0   4 -15    0.64    0.08
   0   4 -15    0.76    0.11
   0  -4  15    0.63    0.12
  -1   4 -15   16.37    0.92
  -1   4 -15   14.41    0.96
  -2   4 -15   22.28    1.21
  -2   4 -15   18.79    1.27
  -3   4 -15    4.13    0.27
  -4   4 -15    2.97    0.19
  -4   4 -15    3.20    0.21
  -5   4 -15   37.75    2.33
   5  -4  15   36.86    2.87
  -6   4 -15    0.11    0.04
  -6   4 -15    0.04    0.05
   6  -4  15    0.08    0.10
  -7   4 -15    0.06    0.03
  -7   4 -15    0.05    0.05
   7  -4  15    0.10    0.11
  -8   4 -15    2.08    0.16
   8  -4  15    2.22    0.22
   2   3 -15    6.77    0.43
   1   3 -15    9.12    0.55
   1   3 -15    9.59    0.59
   1   3 -15    8.35    0.71
  -1  -3  15    9.87    0.66
   0   3 -15   19.76    1.09
   0   3 -15   19.38    1.15
   0  -3  15   16.10    1.28
  -1   3 -15   20.65    1.45
  -1   3 -15   22.17    1.38
   1  -3  15   26.62    1.66
   1  -3  15   24.91    1.64
  -2   3 -15    1.23    0.12
  -2   3 -15    1.26    0.11
   2  -3  15    1.49    0.20
  -3   3 -15    0.84    0.09
   3  -3  15    1.11    0.19
  -4   3 -15    1.91    0.15
   4  -3  15    2.07    0.26
  -5   3 -15   19.15    1.29
   5  -3  15   20.40    1.60
   5  -3  15   22.52    1.46
  -6   3 -15    1.55    0.13
   6  -3  15    1.66    0.21
   6  -3  15    1.73    0.25
  -7   3 -15    0.50    0.07
   7  -3  15    0.74    0.17
   7  -3  15    0.50    0.13
  -8   3 -15   27.53    1.75
   8  -3  15   28.01    2.16
   8  -3  15   28.14    1.92
   2   2 -15    0.27    0.07
   2   2 -15    0.18    0.06
   2   2 -15    0.28    0.05
  -2  -2  15    0.24    0.08
   1   2 -15    0.92    0.10
   1   2 -15    0.85    0.12
   1   2 -15    1.06    0.09
  -1  -2  15    0.85    0.14
   0   2 -15   13.80    0.83
   0   2 -15   14.03    0.87
  -1   2 -15    9.88    0.71
  -1   2 -15   11.11    0.68
   1  -2  15   11.97    0.84
   1  -2  15   12.52    0.83
  -2   2 -15    3.65    0.27
  -2   2 -15    4.16    0.26
   2  -2  15    4.24    0.37
  -3   2 -15    0.63    0.08
   3  -2  15    0.74    0.18
  -4   2 -15    2.88    0.19
   4  -2  15    2.32    0.31
   5  -2  15    0.00    0.16
  -6   2 -15    0.13    0.04
   6  -2  15    0.11    0.18
   6  -2  15   -0.01    0.11
  -7   2 -15    0.09    0.04
   7  -2  15    0.10    0.17
   7  -2  15    0.06    0.11
  -8   2 -15    0.38    0.06
   8  -2  15    0.35    0.11
   8  -2  15    0.45    0.17
   2   1 -15   12.34    0.73
   2   1 -15   11.24    0.94
   2   1 -15   12.89    0.78
  -2  -1  15   13.12    0.87
   1   1 -15    6.25    0.55
   1   1 -15    7.67    0.46
   1   1 -15    7.86    0.43
  -1  -1  15    6.50    0.53
   0   1 -15    7.57    0.43
   0   1 -15    7.52    0.46
   0  -1  15    5.67    0.53
  -1   1 -15    5.78    0.41
  -1   1 -15    6.65    0.39
   1  -1  15    6.52    0.51
   1  -1  15    6.58    0.49
  -2   1 -15   10.42    0.64
   2  -1  15   10.73    0.80
  -3   1 -15    0.06    0.05
   3  -1  15    0.04    0.16
   4  -1  15    3.69    0.37
  -5   1 -15    0.93    0.09
   5  -1  15    1.09    0.23
  -6   1 -15    9.00    0.58
   6  -1  15    8.38    0.73
   6  -1  15   10.53    0.73
  -7   1 -15    3.59    0.24
   7  -1  15    3.41    0.33
   7  -1  15    4.08    0.39
  -8   1 -15   15.94    1.02
   8  -1  15   18.66    1.17
   8  -1  15   14.39    1.26
  -9   1 -15   32.56    2.16
   9  -1  15   36.88    2.38
  -3   0  15    0.33    0.08
   2   0 -15    0.27    0.07
   2   0 -15    0.31    0.07
   2   0 -15    0.42    0.05
  -2   0  15    0.36    0.10
   1   0 -15    2.02    0.21
   1   0 -15    2.19    0.17
   1   0 -15    2.24    0.16
  -1   0  15    2.70    0.24
   0   0 -15    0.05    0.05
   0   0 -15    0.05    0.06
   0   0  15    0.02    0.13
  -1   0 -15   19.71    1.34
  -1   0 -15   21.64    1.28
   1   0  15   23.94    1.54
   1   0  15   21.83    1.51
  -2   0 -15   35.02    2.13
   2   0  15   37.95    2.53
  -3   0 -15   12.99    0.81
   3   0  15   14.31    1.01
   4   0  15   29.76    2.09
   5   0  15    0.25    0.18
  -6   0 -15    4.64    0.31
   6   0  15    4.94    0.46
  -7   0 -15    0.56    0.06
   7   0  15    0.43    0.11
   7   0  15    0.82    0.22
  -8   0 -15    2.37    0.16
   8   0  15    1.79    0.22
   8   0  15    2.78    0.30
  -9   0 -15    0.71    0.07
   9   0  15    1.07    0.18
  -3   1  15   19.19    1.32
   2  -1 -15    0.09    0.05
  -2   1  15   -0.04    0.08
   1  -1 -15    2.27    0.15
   1  -1 -15    2.15    0.17
  -1   1  15    2.25    0.23
   0  -1 -15   11.05    0.67
   0  -1 -15   11.30    0.64
   0   1  15    9.35    0.78
  -1  -1 -15   28.10    1.98
  -1  -1 -15   32.53    1.88
   1   1  15   36.30    2.24
  -2  -1 -15    0.30    0.06
   2   1  15    0.27    0.18
  -3  -1 -15    0.13    0.05
   3   1  15    0.16    0.17
   4   1  15    4.02    0.40
  -5  -1 -15    0.09    0.03
   5   1  15    0.13    0.17
   6   1  15    0.27    0.19
  -7  -1 -15    0.20    0.04
   7   1  15    0.31    0.20
  -8  -1 -15    0.17    0.04
   8   1  15    0.23    0.19
   9   1  15   18.69    1.31
  -3   2  15    2.39    0.20
   2  -2 -15    4.05    0.27
   2  -2 -15    4.04    0.25
  -2   2  15    4.30    0.33
  -2   2  15    4.07    0.29
   1  -2 -15    4.07    0.26
   1  -2 -15    3.76    0.27
  -1   2  15    4.18    0.34
  -1   2  15    4.19    0.29
   0  -2 -15    0.48    0.07
   0  -2 -15    0.57    0.07
   0   2  15    0.53    0.09
   0   2  15    0.47    0.15
  -1  -2 -15    0.17    0.06
  -1  -2 -15    0.24    0.06
   1   2  15    0.25    0.15
   1   2  15    0.15    0.08
  -2  -2 -15   13.57    0.82
   2   2  15   13.74    1.01
   2   2  15   13.95    0.93
  -3  -2 -15    0.43    0.06
   3   2  15    0.26    0.17
   3   2  15    0.55    0.11
   4   2  15    3.37    0.35
   4   2  15    3.28    0.28
  -5  -2 -15   15.32    0.98
   5   2  15   15.90    1.05
   5   2  15   15.37    1.13
   6   2  15    0.24    0.18
   6   2  15    0.19    0.11
  -7  -2 -15    0.16    0.04
   7   2  15    0.08    0.11
   7   2  15    0.12    0.17
  -8  -2 -15    2.89    0.20
   8   2  15    2.94    0.25
   8   2  15    3.17    0.32
  -9  -2 -15    0.85    0.07
   9   2  15    1.02    0.17
  -3   3  15    6.06    0.43
   2  -3 -15   11.32    0.67
   2  -3 -15   11.08    0.71
  -2   3  15   11.05    0.75
  -2   3  15   11.99    0.80
   1  -3 -15    7.31    0.48
   1  -3 -15    7.96    0.46
  -1   3  15    7.96    0.56
  -1   3  15    7.19    0.52
   0  -3 -15   23.54    1.21
   0  -3 -15   22.21    1.27
   0   3  15   17.62    1.35
   0   3  15   18.20    1.43
  -1  -3 -15   20.62    1.19
  -1  -3 -15   17.64    1.25
   1   3  15   20.80    1.34
   1   3  15   21.91    1.43
  -2  -3 -15   14.82    0.93
   2   3  15   15.98    1.06
   2   3  15   16.55    1.14
  -3  -3 -15   12.34    0.77
   3   3  15   12.60    0.88
   3   3  15   14.02    0.96
   4   3  15    4.38    0.34
   4   3  15    4.23    0.40
  -5  -3 -15   11.85    0.77
   5   3  15   12.65    0.91
   5   3  15   12.22    0.84
  -6  -3 -15   12.20    0.78
   6   3  15   12.58    0.91
   6   3  15   12.27    0.85
  -7  -3 -15    0.15    0.03
   7   3  15    0.18    0.17
   7   3  15    0.10    0.11
  -8  -3 -15    2.62    0.18
   8   3  15    2.71    0.29
   8   3  15    2.75    0.24
   9   3  15    9.06    0.65
   9   3  15    8.69    0.60
   2  -4 -15    2.53    0.18
   2  -4 -15    2.79    0.17
  -2   4  15    2.67    0.20
  -2   4  15    2.62    0.22
   1  -4 -15    4.61    0.32
   1  -4 -15    5.00    0.31
  -1   4  15    5.12    0.38
  -1   4  15    5.18    0.35
   0  -4 -15    5.75    0.37
   0  -4 -15    6.62    0.36
   0   4  15    5.22    0.45
   0   4  15    5.39    0.41
  -1  -4 -15    7.02    0.43
   1   4  15    7.33    0.55
   1   4  15    6.98    0.50
  -2  -4 -15   33.42    2.12
   2   4  15   38.23    2.51
   2   4  15   37.17    2.38
   3   4  15    3.72    0.34
   3   4  15    3.37    0.29
   4   4  15    0.11    0.15
   4   4  15    0.03    0.10
   5   4  15    0.18    0.11
   5   4  15    0.35    0.16
  -6  -4 -15    7.54    0.49
   6   4  15    7.55    0.60
   6   4  15    8.03    0.56
  -7  -4 -15    0.09    0.03
   7   4  15    0.11    0.11
   7   4  15    0.09    0.14
  -8  -4 -15    0.69    0.06
   8   4  15    0.47    0.12
   8   4  15    0.34    0.14
   9   4  15    0.19    0.08
   2  -5 -15    6.49    0.37
   2  -5 -15    5.80    0.38
  -2   5  15    5.69    0.43
  -2   5  15    6.26    0.41
   1  -5 -15    1.69    0.12
   1  -5 -15    1.39    0.12
  -1   5  15    1.58    0.16
  -1   5  15    1.76    0.14
   0  -5 -15    0.16    0.05
   0  -5 -15    0.14    0.05
   0   5  15    0.10    0.07
   0   5  15    0.21    0.10
  -1  -5 -15    0.62    0.07
   1   5  15    0.47    0.13
   1   5  15    0.49    0.10
  -2  -5 -15    1.85    0.13
   2   5  15    1.83    0.19
   2   5  15    1.94    0.22
   3   5  15   21.85    1.55
   3   5  15   22.42    1.47
  -4  -5 -15    0.49    0.05
   4   5  15    0.42    0.12
   4   5  15    0.41    0.15
  -5  -5 -15   11.44    0.78
   5   5  15   12.34    0.90
   5   5  15   13.61    0.85
  -6  -5 -15    0.05    0.03
   6   5  15    0.00    0.13
   6   5  15    0.11    0.11
  -7  -5 -15    2.66    0.18
   7   5  15    2.62    0.26
   7   5  15    2.64    0.25
  -8  -5 -15    1.09    0.08
   8   5  15    1.31    0.16
   2  -6 -15    0.32    0.04
  -2   6  15    0.19    0.05
   1  -6 -15    0.47    0.06
   1  -6 -15    0.53    0.06
  -1   6  15    0.45    0.07
   0  -6 -15    2.18    0.14
   0  -6 -15    2.00    0.14
   0   6  15    1.84    0.17
  -1  -6 -15    5.63    0.36
   1   6  15    6.42    0.43
  -2  -6 -15   74.48    4.78
   2   6  15   89.89    5.34
   3   6  15   11.80    0.81
  -4  -6 -15   22.84    1.58
   4   6  15   28.07    1.68
   5   6  15    0.44    0.11
  -6  -6 -15   17.90    1.21
   6   6  15   21.05    1.30
  -7  -6 -15    0.60    0.06
   7   6  15    0.65    0.12
  -8  -6 -15    0.35    0.04
   8   6  15    0.32    0.09
   1  -7 -15    1.86    0.12
  -1   7  15    1.60    0.14
   0  -7 -15   10.00    0.63
   0  -7 -15   10.55    0.60
   0   7  15    9.66    0.67
  -1  -7 -15    3.81    0.25
   1   7  15    4.54    0.31
  -2  -7 -15   18.77    1.21
   2   7  15   22.71    1.37
   3   7  15   17.99    1.20
  -4  -7 -15    5.52    0.35
   5   7  15    0.27    0.10
  -6  -7 -15    2.50    0.17
   6   7  15    2.86    0.23
  -7  -7 -15    0.79    0.06
   7   7  15    1.00    0.12
   1  -8 -15    0.90    0.07
  -1   8  15    0.91    0.09
   0  -8 -15    4.69    0.27
   0   8  15    4.15    0.31
  -1  -8 -15    5.61    0.36
   1   8  15    6.55    0.42
   2   8  15   17.05    1.13
   3   8  15    2.28    0.20
  -4  -8 -15   13.62    0.85
  -5  -8 -15    1.36    0.10
   5   8  15    1.53    0.15
  -6  -8 -15    0.26    0.03
   6   8  15    0.25    0.08
   7   8  15    1.89    0.16
   1   9  15    6.28    0.42
   2   9  15    0.15    0.06
   3   9  15    0.10    0.06
   4   9  15   20.40    1.34
  -5  -9 -15    5.11    0.32
  -2   6 -16   -0.02    0.04
  -3   6 -16    3.41    0.21
  -4   6 -16    4.69    0.27
  -1   5 -16    1.61    0.12
  -2   5 -16    3.97    0.26
   2  -5  16    4.23    0.32
  -3   5 -16    0.04    0.04
  -3   5 -16    0.07    0.04
   3  -5  16    0.12    0.11
  -4   5 -16    1.54    0.11
  -4   5 -16    1.35    0.10
  -5   5 -16   10.61    0.59
   0   4 -16   18.41    1.08
  -1   4 -16    7.96    0.45
  -1   4 -16    6.76    0.47
  -2   4 -16    0.20    0.05
  -2   4 -16    0.12    0.05
   2  -4  16    0.07    0.09
  -3   4 -16    0.00    0.04
  -4   4 -16   18.36    1.04
  -4   4 -16   16.93    0.98
  -5   4 -16   10.34    0.58
  -6   4 -16    0.60    0.06
   0   3 -16   25.40    1.49
  -1   3 -16    1.79    0.15
  -1   3 -16    1.96    0.14
   1  -3  16    2.38    0.19
  -2   3 -16    9.85    0.65
   2  -3  16   11.90    0.79
   2  -3  16   11.13    0.78
  -3   3 -16    8.28    0.51
   3  -3  16    8.90    0.63
  -4   3 -16    1.89    0.14
   4  -3  16    2.40    0.23
  -5   3 -16    2.01    0.14
   5  -3  16    2.62    0.24
  -6   3 -16    1.82    0.15
  -6   3 -16    1.99    0.13
   6  -3  16    2.40    0.22
  -7   3 -16    0.17    0.03
   1   2 -16    0.49    0.06
   0   2 -16    0.98    0.09
   0   2 -16    1.04    0.10
   0  -2  16    0.92    0.13
  -1   2 -16    2.02    0.14
  -1   2 -16    1.79    0.15
   1  -2  16    2.51    0.21
  -2   2 -16    0.09    0.05
   2  -2  16    0.17    0.12
   2  -2  16    0.07    0.10
  -3   2 -16    0.82    0.09
   3  -2  16    1.25    0.18
  -4   2 -16    0.03    0.04
   4  -2  16    0.09    0.14
   5  -2  16    1.05    0.19
  -6   2 -16    0.26    0.05
   6  -2  16    0.47    0.15
  -7   2 -16    0.11    0.03
  -7   2 -16    0.12    0.04
   7  -2  16    0.16    0.13
   1   1 -16    0.41    0.05
   1   1 -16    0.34    0.06
  -1  -1  16    0.51    0.09
   0   1 -16    0.29    0.05
   0   1 -16    0.23    0.06
   0  -1  16    0.33    0.10
  -1   1 -16   16.91    0.99
  -1   1 -16   14.29    1.04
   1  -1  16   19.31    1.18
  -2   1 -16   10.13    0.65
   2  -1  16   11.67    0.80
   2  -1  16   11.01    0.78
  -3   1 -16    5.98    0.40
   3  -1  16    7.44    0.53
   4  -1  16    0.45    0.16
   5  -1  16    1.78    0.24
  -6   1 -16    0.03    0.03
   6  -1  16    0.03    0.14
  -7   1 -16    0.00    0.03
   7  -1  16   -0.01    0.13
  -8   1 -16   27.90    1.77
   8  -1  16   36.75    2.21
   1   0 -16   11.17    0.71
   1   0 -16   11.46    0.67
  -1   0  16   11.36    0.79
   0   0 -16    5.60    0.33
   0   0 -16    5.18    0.35
  -1   0 -16    0.14    0.05
  -1   0 -16    0.10    0.05
   1   0  16    0.06    0.12
  -2   0 -16    0.11    0.05
   2   0  16    0.09    0.13
  -3   0 -16    2.87    0.20
   3   0  16    3.81    0.32
   4   0  16    7.69    0.60
   5   0  16    0.57    0.18
  -6   0 -16    6.06    0.39
  -7   0 -16    2.91    0.21
   7   0  16    3.61    0.31
  -8   0 -16    0.04    0.03
   8   0  16    0.03    0.12
   1  -1 -16    1.67    0.12
   1  -1 -16    1.68    0.13
  -1   1  16    1.78    0.17
   0  -1 -16    0.34    0.05
   0  -1 -16    0.33    0.06
   0   1  16    0.25    0.11
  -1  -1 -16   12.62    0.89
  -1  -1 -16   14.45    0.85
   1   1  16   16.09    1.02
  -2  -1 -16    1.43    0.11
   2   1  16    1.64    0.21
  -3  -1 -16    7.59    0.51
   3   1  16   10.04    0.66
   4   1  16    0.34    0.16
  -5  -1 -16    2.66    0.19
   5   1  16    3.16    0.30
  -6  -1 -16    0.34    0.05
   6   1  16    0.19    0.15
  -7  -1 -16    0.93    0.08
   7   1  16    0.94    0.17
  -8  -1 -16    2.96    0.21
   8   1  16    3.51    0.28
   1  -2 -16    3.58    0.22
   1  -2 -16    3.20    0.23
  -1   2  16    3.55    0.27
   0  -2 -16    0.08    0.04
   0  -2 -16    0.06    0.05
   0   2  16   -0.02    0.09
  -1  -2 -16    1.54    0.12
  -1  -2 -16    1.46    0.12
   1   2  16    1.83    0.20
  -2  -2 -16    0.59    0.07
   2   2  16    0.60    0.09
   2   2  16    0.73    0.16
  -3  -2 -16    2.24    0.17
   3   2  16    2.81    0.21
   3   2  16    2.94    0.28
   4   2  16    1.26    0.15
   4   2  16    1.30    0.20
  -5  -2 -16    5.43    0.38
   5   2  16    6.42    0.49
   5   2  16    6.30    0.42
  -6  -2 -16    2.05    0.16
   6   2  16    2.68    0.20
   6   2  16    2.47    0.26
  -7  -2 -16    0.25    0.04
   7   2  16    0.19    0.07
   7   2  16    0.22    0.13
  -8  -2 -16    2.69    0.19
   8   2  16    3.37    0.26
   1  -3 -16   14.59    0.86
  -1   3  16   14.56    0.96
   0  -3 -16   16.37    0.85
   0  -3 -16   15.25    0.89
   0   3  16   12.40    0.95
   0   3  16   13.50    1.01
  -1  -3 -16    0.62    0.07
   1   3  16    0.72    0.14
   1   3  16    0.60    0.09
  -2  -3 -16   11.45    0.71
   2   3  16   12.76    0.88
   2   3  16   12.12    0.81
  -3  -3 -16   12.84    0.84
   3   3  16   14.79    0.96
   3   3  16   15.47    1.03
   4   3  16   36.29    2.44
   4   3  16   38.29    2.57
  -5  -3 -16    5.69    0.36
   5   3  16    5.28    0.40
   5   3  16    6.03    0.46
  -6  -3 -16    2.77    0.19
   6   3  16    2.88    0.23
   6   3  16    3.19    0.28
  -7  -3 -16    1.44    0.11
   7   3  16    1.63    0.20
   7   3  16    1.52    0.15
   1  -4 -16    2.38    0.16
  -1   4  16    2.49    0.20
  -1   4  16    2.67    0.18
   0  -4 -16    5.54    0.35
   0  -4 -16    6.17    0.33
   0   4  16    5.27    0.38
   0   4  16    4.84    0.41
  -1  -4 -16    0.86    0.08
   1   4  16    0.88    0.10
   1   4  16    0.80    0.13
  -2  -4 -16    0.34    0.05
   2   4  16    0.42    0.08
   2   4  16    0.33    0.13
   3   4  16   15.74    1.09
   3   4  16   14.89    1.02
   4   4  16    0.06    0.13
   4   4  16    0.08    0.08
  -5  -4 -16   22.76    1.61
   5   4  16   26.59    1.70
   5   4  16   28.37    1.79
  -6  -4 -16    3.22    0.23
   6   4  16    3.71    0.31
   6   4  16    3.70    0.27
  -7  -4 -16    2.58    0.18
   7   4  16    2.95    0.25
   7   4  16    2.86    0.22
   0  -5 -16    0.01    0.03
   0   5  16    0.05    0.07
   0   5  16    0.04    0.05
  -1  -5 -16    1.26    0.10
   1   5  16    1.54    0.13
   1   5  16    1.54    0.16
  -2  -5 -16    3.66    0.26
   2   5  16    4.72    0.31
   2   5  16    4.47    0.34
   3   5  16    2.44    0.24
   3   5  16    2.71    0.21
   4   5  16    0.42    0.10
   4   5  16    0.48    0.13
   5   5  16    0.48    0.13
   5   5  16    0.63    0.10
  -6  -5 -16    0.63    0.06
   6   5  16    0.54    0.12
   6   5  16    0.46    0.09
  -7  -5 -16    0.20    0.03
   7   5  16    0.15    0.07
   0  -6 -16    0.38    0.05
   0   6  16    0.24    0.05
  -1  -6 -16    1.23    0.09
   1   6  16    1.47    0.12
  -2  -6 -16    0.06    0.03
   2   6  16    0.08    0.06
   3   6  16    0.32    0.08
   4   6  16    7.51    0.52
  -5  -6 -16    1.12    0.08
   5   6  16    0.93    0.13
  -6  -6 -16    3.77    0.26
   6   6  16    4.28    0.29
  -1  -7 -16   21.45    1.39
   1   7  16   26.32    1.56
   2   7  16   28.38    1.85
   3   7  16    9.74    0.65
   4   7  16    2.99    0.23
   5   7  16    1.85    0.16
   6   7  16    9.06    0.61
   2   8  16    0.33    0.06
   3   8  16   22.03    1.44
   4   8  16   10.21    0.68
  -2   2 -17    1.75    0.12
  -3   2 -17    0.97    0.08
   4  -2  17    1.92    0.19
   5  -2  17   11.24    0.80
  -1   1 -17    0.81    0.07
   1  -1  17    1.05    0.11
  -2   1 -17    0.77    0.07
   2  -1  17    0.98    0.13
  -3   1 -17    1.16    0.09
   3  -1  17    1.46    0.17
   4  -1  17    6.45    0.49
   5  -1  17    7.54    0.56
   6  -1  17   11.32    0.80
  -1   0 -17    0.22    0.04
   1   0  17    0.30    0.09
  -2   0 -17    1.13    0.09
   2   0  17    1.22    0.15
  -3   0 -17    1.52    0.11
   3   0  17    2.18    0.20
   4   0  17    0.72    0.14
   5   0  17    1.03    0.16
   6   0  17    5.51    0.42
  -1  -1 -17    0.71    0.07
   1   1  17    0.86    0.12
  -2  -1 -17    1.05    0.09
   2   1  17    1.30    0.15
  -3  -1 -17    0.42    0.05
   3   1  17    0.52    0.12
   4   1  17    0.58    0.14
   5   1  17    7.04    0.53
   6   1  17    4.87    0.38
  -1  -2 -17    0.83    0.07
   1   2  17    0.87    0.12
  -2  -2 -17    0.93    0.08
   2   2  17    1.12    0.14
   3   2  17    0.13    0.11
   4   2  17    2.95    0.27
   5   2  17    0.34    0.12
   6   2  17    0.17    0.10
  -1  -3 -17    1.24    0.09
   1   3  17    1.51    0.14
   2   3  17   50.28    3.31
   2   3  17   47.18    3.16
   3   3  17   19.58    1.36
   4   3  17   37.53    2.44
   5   3  17    0.18    0.06
   5   3  17    0.26    0.10
   6   3  17    0.16    0.10
   2   4  17    3.34    0.26
   2   4  17    3.15    0.23
   3   4  17    0.61    0.11
   3   4  17    0.66    0.08
   4   4  17    1.65    0.14
   4   4  17    1.72    0.18
   5   4  17    1.86    0.15
   5   4  17    1.95    0.18
   2   5  17    0.11    0.04
   3   5  17    3.49    0.25
   4   5  17    0.09    0.05
   5   5  17    3.30    0.24
   0   0   0    0.00    0.00
;
_shelx_hkl_checksum              56103
#END Tags that were not found in dictionaries
loop_
_space_group_symop_operation_xyz
'x, y, z'
'-x, -y, -z'
loop_
_atom_site_label
_atom_site_type_symbol
_atom_site_fract_x
_atom_site_fract_y
_atom_site_fract_z
_atom_site_U_iso_or_equiv
_atom_site_adp_type
_atom_site_occupancy
_atom_site_site_symmetry_order
_atom_site_calc_flag
C1 C 0.3237(7) 0.4917(4) 0.3055(4) 0.0238(12) Uani 1 1 d
C2 C 0.2454(7) 0.5180(4) 0.3989(4) 0.0235(12) Uani 1 1 d
C3 C 0.3200(7) 0.5490(4) 0.4610(4) 0.0228(12) Uani 1 1 d
C4 C 0.2614(7) 0.6105(4) 0.5386(4) 0.0242(12) Uani 1 1 d
C5 C 0.3679(6) 0.6703(4) 0.5502(4) 0.0217(12) Uani 1 1 d
C6 C 0.4943(6) 0.6468(4) 0.4778(4) 0.0202(11) Uani 1 1 d
C7 C 0.5870(6) 0.7166(4) 0.4307(4) 0.0207(11) Uani 1 1 d
C8 C 0.6536(5) 0.7131(4) 0.3269(4) 0.0202(11) Uani 1 1 d
C9 C 0.6346(6) 0.6371(4) 0.2738(4) 0.0231(12) Uani 1 1 d
C10 C 0.6562(6) 0.6562(4) 0.1717(4) 0.0219(12) Uani 1 1 d
C11 C 0.5917(6) 0.6012(4) 0.1158(4) 0.0245(12) Uani 1 1 d
C12 C 0.4981(7) 0.5307(4) 0.1632(4) 0.0254(13) Uani 1 1 d
C13 C 0.3742(7) 0.5175(4) 0.1349(4) 0.0242(12) Uani 1 1 d
C14 C 0.2661(7) 0.4946(4) 0.2236(4) 0.0239(12) Uani 1 1 d
C15 C 0.1373(6) 0.5297(4) 0.2346(4) 0.0227(12) Uani 1 1 d
C16 C 0.0582(6) 0.5628(4) 0.3269(4) 0.0228(12) Uani 1 1 d
C17 C 0.1082(6) 0.5552(4) 0.4100(4) 0.0233(12) Uani 1 1 d
C18 C 0.0561(6) 0.6206(4) 0.4818(4) 0.0249(13) Uani 1 1 d
C19 C 0.1315(6) 0.6452(4) 0.5486(4) 0.0259(13) Uani 1 1 d
C20 C 0.1025(6) 0.7418(4) 0.5715(4) 0.0253(13) Uani 1 1 d
C21 C 0.2051(6) 0.7999(4) 0.5822(3) 0.0228(12) Uani 1 1 d
C22 C 0.3412(6) 0.7631(4) 0.5715(4) 0.0220(12) Uani 1 1 d
C23 C 0.4395(6) 0.8369(4) 0.5217(4) 0.0198(11) Uani 1 1 d
C24 C 0.5603(6) 0.8133(4) 0.4523(4) 0.0198(11) Uani 1 1 d
C25 C 0.4666(7) 0.5138(4) 0.2684(4) 0.0245(12) Uani 1 1 d
C26 C 0.5349(6) 0.5626(4) 0.3241(4) 0.0219(12) Uani 1 1 d
C27 C 0.4641(7) 0.5714(4) 0.4237(4) 0.0232(12) Uani 1 1 d
C28 C 0.6088(6) 0.8697(4) 0.3617(4) 0.0186(11) Uani 1 1 d
C29 C 0.6680(5) 0.8072(4) 0.2847(4) 0.0197(11) Uani 1 1 d
C30 C 0.6608(5) 0.8285(4) 0.1874(4) 0.0198(11) Uani 1 1 d
C31 C 0.6698(5) 0.7500(4) 0.1299(4) 0.0209(12) Uani 1 1 d
C32 C 0.6128(6) 0.7537(4) 0.0472(4) 0.0236(12) Uani 1 1 d
C33 C 0.5665(6) 0.6608(4) 0.0379(4) 0.0247(13) Uani 1 1 d
C34 C 0.4478(6) 0.6492(4) 0.0104(4) 0.0227(12) Uani 1 1 d
C35 C 0.3487(6) 0.5758(4) 0.0601(4) 0.0234(12) Uani 1 1 d
C36 C 0.2131(6) 0.6122(4) 0.0715(4) 0.0219(12) Uani 1 1 d
C37 C 0.1087(6) 0.5895(4) 0.1569(4) 0.0218(12) Uani 1 1 d
C38 C 0.0151(6) 0.6601(4) 0.2028(4) 0.0211(11) Uani 1 1 d
C39 C -0.0168(6) 0.6434(4) 0.3077(4) 0.0214(11) Uani 1 1 d
C40 C -0.0441(5) 0.7183(4) 0.3711(4) 0.0224(12) Uani 1 1 d
C41 C -0.0182(6) 0.7004(4) 0.4634(4) 0.0238(12) Uani 1 1 d
C42 C 0.0099(6) 0.7759(5) 0.5173(4) 0.0250(13) Uani 1 1 d
C43 C 0.0237(6) 0.8670(4) 0.4761(4) 0.0232(12) Uani 1 1 d
C44 C 0.1305(6) 0.9277(4) 0.4878(4) 0.0220(12) Uani 1 1 d
C45 C 0.2186(6) 0.8952(4) 0.5398(4) 0.0227(12) Uani 1 1 d
C46 C 0.3641(6) 0.9184(4) 0.5020(4) 0.0195(11) Uani 1 1 d
C47 C 0.4114(6) 0.9725(4) 0.4144(4) 0.0201(11) Uani 1 1 d
C48 C 0.5372(6) 0.9474(4) 0.3424(4) 0.0196(11) Uani 1 1 d
C49 C 0.5211(6) 0.9669(4) 0.2461(4) 0.0198(11) Uani 1 1 d
C50 C 0.5852(6) 0.9108(4) 0.1678(4) 0.0205(11) Uani 1 1 d
C51 C 0.5227(6) 0.9096(4) 0.0914(4) 0.0210(12) Uani 1 1 d
C52 C 0.5418(6) 0.8321(4) 0.0287(4) 0.0236(12) Uani 1 1 d
C53 C 0.4185(6) 0.8202(4) -0.0007(4) 0.0224(12) Uani 1 1 d
C54 C 0.3715(6) 0.7307(4) -0.0091(4) 0.0213(12) Uani 1 1 d
C55 C 0.2264(6) 0.7077(4) 0.0288(4) 0.0212(12) Uani 1 1 d
C56 C 0.1359(6) 0.7758(4) 0.0734(4) 0.0208(11) Uani 1 1 d
C57 C 0.0288(6) 0.7512(4) 0.1620(4) 0.0192(11) Uani 1 1 d
C58 C 0.0103(6) 0.8294(4) 0.2244(4) 0.0204(11) Uani 1 1 d
C59 C -0.0302(5) 0.8148(4) 0.3280(4) 0.0215(11) Uani 1 1 d
C60 C 0.0079(6) 0.8862(4) 0.3792(4) 0.0217(12) Uani 1 1 d
C61 C 0.1045(6) 0.9589(4) 0.3302(4) 0.0208(11) Uani 1 1 d
C62 C 0.1816(6) 0.9839(4) 0.3964(4) 0.0213(12) Uani 1 1 d
C63 C 0.3184(7) 1.0062(3) 0.3602(4) 0.0216(12) Uani 1 1 d
C64 C 0.3866(6) 1.0028(3) 0.2572(4) 0.0206(11) Uani 1 1 d
C65 C 0.3124(6) 0.9839(3) 0.1901(4) 0.0204(11) Uani 1 1 d
C66 C 0.3883(6) 0.9454(4) 0.1020(4) 0.0213(12) Uani 1 1 d
C67 C 0.3238(6) 0.8904(4) 0.0464(4) 0.0206(11) Uani 1 1 d
C68 C 0.1852(6) 0.8682(4) 0.0822(4) 0.0199(11) Uani 1 1 d
C69 C 0.1074(6) 0.9013(4) 0.1754(4) 0.0195(11) Uani 1 1 d
C70 C 0.1664(6) 0.9608(4) 0.2281(4) 0.0194(11) Uani 1 1 d
C71 C 0.3235(7) 0.2430(4) 0.2498(4) 0.0286(14) Uani 1 1 d
C72 C 0.0406(6) 0.8959(4) 0.8894(4) 0.0235(12) Uani 1 1 d
C73 C 0.9440(6) 0.3928(4) 0.1176(4) 0.0196(11) Uani 1 1 d
S1 S 0.18626(19) 0.22937(13) 0.22634(12) 0.0371(4) Uani 1 1 d
S2 S 0.4622(2) 0.25610(12) 0.27197(14) 0.0431(5) Uani 1 1 d
S3 S -0.09461(15) 0.89572(11) 0.97214(11) 0.0279(4) Uani 1 1 d
S4 S 0.1773(2) 0.89711(19) 0.80688(13) 0.0545(6) Uani 1 1 d
S5 S 0.80995(18) 0.41083(13) 0.19881(11) 0.0369(4) Uani 1 1 d
S6 S 1.07696(15) 0.37600(11) 0.03631(11) 0.0280(4) Uani 1 1 d
loop_
_atom_site_aniso_label
_atom_site_aniso_U_11
_atom_site_aniso_U_22
_atom_site_aniso_U_33
_atom_site_aniso_U_23
_atom_site_aniso_U_13
_atom_site_aniso_U_12
C1 0.035(3) 0.006(2) 0.032(3) -0.004(2) -0.012(3) 0.001(2)
C2 0.034(3) 0.010(2) 0.023(3) 0.007(2) -0.005(2) -0.007(2)
C3 0.033(3) 0.013(2) 0.021(3) 0.006(2) -0.007(2) -0.003(2)
C4 0.034(3) 0.024(3) 0.012(2) 0.008(2) -0.004(2) -0.007(3)
C5 0.027(3) 0.026(3) 0.011(2) 0.003(2) -0.005(2) -0.003(3)
C6 0.027(3) 0.021(3) 0.014(2) -0.001(2) -0.008(2) 0.006(2)
C7 0.019(3) 0.026(3) 0.021(3) -0.007(2) -0.010(2) 0.006(2)
C8 0.011(2) 0.028(3) 0.023(3) -0.009(2) -0.004(2) 0.004(2)
C9 0.019(3) 0.022(3) 0.029(3) -0.010(2) -0.006(2) 0.012(2)
C10 0.012(2) 0.030(3) 0.023(3) -0.014(2) 0.000(2) 0.005(2)
C11 0.020(3) 0.028(3) 0.025(3) -0.020(2) -0.001(2) 0.011(3)
C12 0.031(3) 0.017(3) 0.031(3) -0.017(2) -0.010(2) 0.012(3)
C13 0.029(3) 0.014(2) 0.030(3) -0.016(2) -0.008(2) 0.005(2)
C14 0.036(3) 0.009(2) 0.029(3) -0.010(2) -0.011(2) -0.003(2)
C15 0.028(3) 0.013(2) 0.029(3) -0.007(2) -0.009(2) -0.008(2)
C16 0.025(3) 0.017(3) 0.023(3) 0.000(2) -0.002(2) -0.015(2)
C17 0.026(3) 0.016(2) 0.025(3) 0.006(2) -0.005(2) -0.011(2)
C18 0.022(3) 0.029(3) 0.017(3) 0.005(2) 0.003(2) -0.015(3)
C19 0.029(3) 0.031(3) 0.009(2) 0.006(2) 0.005(2) -0.006(3)
C20 0.023(3) 0.037(3) 0.007(2) -0.001(2) 0.009(2) -0.004(3)
C21 0.024(3) 0.036(3) 0.005(2) -0.007(2) 0.0023(19) 0.003(3)
C22 0.027(3) 0.032(3) 0.006(2) -0.004(2) -0.003(2) 0.002(3)
C23 0.026(3) 0.024(3) 0.012(2) -0.009(2) -0.007(2) -0.001(2)
C24 0.021(3) 0.026(3) 0.015(2) -0.008(2) -0.008(2) 0.002(2)
C25 0.032(3) 0.009(2) 0.034(3) -0.009(2) -0.010(3) 0.009(2)
C26 0.027(3) 0.014(2) 0.026(3) -0.005(2) -0.009(2) 0.011(2)
C27 0.031(3) 0.014(2) 0.025(3) 0.002(2) -0.011(2) 0.009(2)
C28 0.016(3) 0.024(3) 0.016(2) -0.007(2) -0.0030(19) -0.007(2)
C29 0.009(2) 0.028(3) 0.021(3) -0.008(2) -0.0019(19) -0.002(2)
C30 0.008(2) 0.028(3) 0.019(3) -0.008(2) 0.0034(19) -0.009(2)
C31 0.007(2) 0.032(3) 0.020(3) -0.011(2) 0.0049(19) -0.003(2)
C32 0.017(3) 0.038(3) 0.010(2) -0.009(2) 0.0077(19) -0.002(3)
C33 0.023(3) 0.033(3) 0.013(2) -0.015(2) 0.005(2) 0.007(3)
C34 0.027(3) 0.028(3) 0.011(2) -0.014(2) 0.001(2) 0.003(3)
C35 0.029(3) 0.022(3) 0.021(3) -0.017(2) -0.005(2) 0.002(3)
C36 0.026(3) 0.025(3) 0.018(3) -0.015(2) -0.008(2) 0.002(3)
C37 0.024(3) 0.020(3) 0.025(3) -0.009(2) -0.009(2) -0.008(2)
C38 0.016(3) 0.024(3) 0.024(3) -0.006(2) -0.007(2) -0.005(2)
C39 0.012(2) 0.025(3) 0.025(3) -0.002(2) -0.001(2) -0.011(2)
C40 0.009(2) 0.032(3) 0.023(3) -0.006(2) 0.002(2) -0.004(2)
C41 0.013(3) 0.032(3) 0.018(3) -0.002(2) 0.009(2) -0.006(2)
C42 0.014(3) 0.040(3) 0.013(2) -0.007(2) 0.010(2) -0.002(3)
C43 0.013(3) 0.034(3) 0.019(3) -0.016(2) 0.005(2) 0.006(3)
C44 0.023(3) 0.024(3) 0.016(2) -0.016(2) 0.002(2) 0.008(2)
C45 0.026(3) 0.027(3) 0.013(2) -0.015(2) 0.002(2) 0.004(3)
C46 0.025(3) 0.019(2) 0.015(2) -0.012(2) -0.004(2) 0.000(2)
C47 0.026(3) 0.013(2) 0.021(3) -0.012(2) -0.004(2) -0.001(2)
C48 0.020(3) 0.017(2) 0.019(3) -0.005(2) -0.001(2) -0.008(2)
C49 0.024(3) 0.013(2) 0.022(3) 0.000(2) -0.005(2) -0.009(2)
C50 0.018(3) 0.021(3) 0.019(3) 0.000(2) 0.002(2) -0.014(2)
C51 0.022(3) 0.022(3) 0.012(2) 0.0049(19) 0.005(2) -0.011(2)
C52 0.026(3) 0.033(3) 0.005(2) 0.000(2) 0.007(2) -0.009(3)
C53 0.027(3) 0.030(3) 0.007(2) 0.000(2) 0.001(2) -0.003(3)
C54 0.025(3) 0.030(3) 0.007(2) -0.007(2) 0.0001(19) -0.002(3)
C55 0.027(3) 0.026(3) 0.013(2) -0.010(2) -0.007(2) 0.001(2)
C56 0.023(3) 0.027(3) 0.015(2) -0.005(2) -0.010(2) 0.003(2)
C57 0.014(2) 0.024(3) 0.023(3) -0.007(2) -0.010(2) 0.000(2)
C58 0.014(3) 0.024(3) 0.025(3) -0.007(2) -0.008(2) 0.007(2)
C59 0.011(2) 0.031(3) 0.023(3) -0.009(2) -0.002(2) 0.005(2)
C60 0.013(3) 0.027(3) 0.021(3) -0.012(2) 0.002(2) 0.011(2)
C61 0.024(3) 0.015(2) 0.024(3) -0.011(2) -0.006(2) 0.012(2)
C62 0.029(3) 0.013(2) 0.022(3) -0.014(2) -0.004(2) 0.007(2)
C63 0.034(3) 0.007(2) 0.024(3) -0.0089(19) -0.007(2) 0.001(2)
C64 0.030(3) 0.006(2) 0.024(3) -0.0017(19) -0.004(2) -0.005(2)
C65 0.034(3) 0.007(2) 0.019(3) 0.0016(18) -0.007(2) -0.001(2)
C66 0.032(3) 0.013(2) 0.016(2) 0.0066(19) -0.003(2) -0.005(2)
C67 0.031(3) 0.019(3) 0.012(2) 0.0035(19) -0.006(2) -0.003(2)
C68 0.026(3) 0.020(3) 0.015(2) -0.001(2) -0.009(2) 0.003(2)
C69 0.023(3) 0.017(2) 0.021(3) -0.003(2) -0.010(2) 0.008(2)
C70 0.026(3) 0.012(2) 0.020(3) -0.0030(19) -0.007(2) 0.006(2)
C71 0.051(4) 0.014(2) 0.018(3) -0.004(2) -0.004(3) 0.004(3)
C72 0.025(3) 0.028(3) 0.015(2) -0.004(2) -0.002(2) -0.001(3)
C73 0.024(3) 0.020(3) 0.013(2) -0.0063(19) -0.002(2) 0.002(2)
S1 0.0370(9) 0.0404(9) 0.0315(8) -0.0067(7) -0.0054(7) 0.0031(8)
S2 0.0586(12) 0.0307(8) 0.0488(10) -0.0055(7) -0.0287(9) -0.0008(8)
S3 0.0219(7) 0.0300(7) 0.0266(7) 0.0059(6) -0.0003(6) -0.0021(6)
S4 0.0343(10) 0.0922(16) 0.0278(9) -0.0219(9) 0.0099(7) -0.0129(11)
S5 0.0302(8) 0.0486(10) 0.0230(7) -0.0079(6) 0.0077(6) 0.0058(8)
S6 0.0212(7) 0.0341(8) 0.0262(7) -0.0154(6) 0.0000(6) 0.0033(6)
loop_
_atom_type_symbol
_atom_type_description
_atom_type_scat_dispersion_real
_atom_type_scat_dispersion_imag
_atom_type_scat_source
C C 0.0181 0.0091 'International Tables Vol C Tables 4.2.6.8 and 6.1.1.4'
S S 0.3331 0.5567 'International Tables Vol C Tables 4.2.6.8 and 6.1.1.4'
loop_
_geom_angle_atom_site_label_1
_geom_angle_atom_site_label_2
_geom_angle_atom_site_label_3
_geom_angle
C2 C1 C25 121.4(5)
C2 C1 C14 121.1(6)
C25 C1 C14 108.2(5)
C3 C2 C1 116.4(6)
C3 C2 C17 118.2(5)
C1 C2 C17 118.7(5)
C2 C3 C27 121.0(5)
C2 C3 C4 122.3(6)
C27 C3 C4 107.6(5)
C19 C4 C5 120.3(6)
C19 C4 C3 119.0(6)
C5 C4 C3 108.9(5)
C22 C5 C4 120.2(6)
C22 C5 C6 119.8(5)
C4 C5 C6 107.4(5)
C7 C6 C27 120.2(5)
C7 C6 C5 120.1(5)
C27 C6 C5 108.0(5)
C6 C7 C24 120.6(5)
C6 C7 C8 119.0(5)
C24 C7 C8 108.6(5)
C9 C8 C29 121.4(5)
C9 C8 C7 122.2(5)
C29 C8 C7 107.7(5)
C8 C9 C10 116.6(5)
C8 C9 C26 118.6(5)
C10 C9 C26 117.9(5)
C31 C10 C9 120.9(5)
C31 C10 C11 107.8(5)
C9 C10 C11 122.3(5)
C12 C11 C33 120.1(6)
C12 C11 C10 119.6(5)
C33 C11 C10 109.0(5)
C11 C12 C25 119.4(5)
C11 C12 C13 120.2(6)
C25 C12 C13 108.8(5)
C35 C13 C14 120.2(6)
C35 C13 C12 119.9(6)
C14 C13 C12 106.8(5)
C15 C14 C13 120.1(5)
C15 C14 C1 119.6(5)
C13 C14 C1 108.6(6)
C14 C15 C16 120.6(6)
C14 C15 C37 120.3(5)
C16 C15 C37 108.1(5)
C17 C16 C39 121.0(5)
C17 C16 C15 121.0(6)
C39 C16 C15 108.4(5)
C18 C17 C16 116.1(6)
C18 C17 C2 118.8(5)
C16 C17 C2 118.6(5)
C41 C18 C17 121.9(5)
C41 C18 C19 108.0(5)
C17 C18 C19 121.2(6)
C4 C19 C20 119.8(6)
C4 C19 C18 120.3(5)
C20 C19 C18 108.3(6)
C21 C20 C19 120.1(6)
C21 C20 C42 120.4(6)
C19 C20 C42 106.7(5)
C20 C21 C45 119.7(6)
C20 C21 C22 119.8(5)
C45 C21 C22 108.3(5)
C5 C22 C21 119.7(6)
C5 C22 C23 120.1(5)
C21 C22 C23 107.7(5)
C24 C23 C46 119.6(5)
C24 C23 C22 119.5(5)
C46 C23 C22 108.1(5)
C23 C24 C7 119.9(5)
C23 C24 C28 120.0(5)
C7 C24 C28 107.5(4)
C26 C25 C1 120.9(5)
C26 C25 C12 122.0(6)
C1 C25 C12 107.6(5)
C27 C26 C25 117.0(6)
C27 C26 C9 117.8(5)
C25 C26 C9 118.5(5)
C26 C27 C3 120.8(6)
C26 C27 C6 121.9(5)
C3 C27 C6 108.2(5)
C48 C28 C24 120.6(5)
C48 C28 C29 119.8(5)
C24 C28 C29 108.0(5)
C8 C29 C30 121.3(5)
C8 C29 C28 108.3(5)
C30 C29 C28 120.8(5)
C31 C30 C29 115.3(5)
C31 C30 C50 119.4(5)
C29 C30 C50 118.8(5)
C30 C31 C10 122.0(5)
C30 C31 C32 120.7(6)
C10 C31 C32 108.0(5)
C52 C32 C33 121.1(6)
C52 C32 C31 119.5(5)
C33 C32 C31 108.1(5)
C34 C33 C32 119.6(6)
C34 C33 C11 120.4(6)
C32 C33 C11 107.1(5)
C33 C34 C54 120.1(5)
C33 C34 C35 119.9(6)
C54 C34 C35 107.5(5)
C13 C35 C36 119.6(5)
C13 C35 C34 119.6(6)
C36 C35 C34 108.2(5)
C37 C36 C35 120.0(5)
C37 C36 C55 119.3(5)
C35 C36 C55 108.2(5)
C36 C37 C38 120.6(5)
C36 C37 C15 119.7(6)
C38 C37 C15 107.0(5)
C57 C38 C37 119.8(5)
C57 C38 C39 119.5(5)
C37 C38 C39 108.8(5)
C40 C39 C16 121.2(5)
C40 C39 C38 121.8(5)
C16 C39 C38 107.6(5)
C39 C40 C41 116.2(6)
C39 C40 C59 118.6(5)
C41 C40 C59 118.4(5)
C18 C41 C40 121.0(5)
C18 C41 C42 108.6(6)
C40 C41 C42 121.3(6)
C43 C42 C41 119.9(5)
C43 C42 C20 119.7(6)
C41 C42 C20 108.3(5)
C42 C43 C44 119.7(6)
C42 C43 C60 119.7(5)
C44 C43 C60 109.1(5)
C45 C44 C43 120.5(6)
C45 C44 C62 120.7(5)
C43 C44 C62 106.7(5)
C44 C45 C21 119.9(6)
C44 C45 C46 119.2(5)
C21 C45 C46 108.1(5)
C47 C46 C23 120.1(5)
C47 C46 C45 119.4(5)
C23 C46 C45 107.8(5)
C46 C47 C63 121.0(5)
C46 C47 C48 120.0(5)
C63 C47 C48 106.6(5)
C28 C48 C49 120.3(5)
C28 C48 C47 119.6(5)
C49 C48 C47 108.5(5)
C50 C49 C64 121.2(5)
C50 C49 C48 121.2(5)
C64 C49 C48 108.0(5)
C51 C50 C49 116.0(5)
C51 C50 C30 118.5(5)
C49 C50 C30 118.8(5)
C50 C51 C66 121.7(5)
C50 C51 C52 121.3(6)
C66 C51 C52 107.9(5)
C32 C52 C51 120.3(5)
C32 C52 C53 119.3(5)
C51 C52 C53 108.6(5)
C54 C53 C67 120.2(5)
C54 C53 C52 120.3(6)
C67 C53 C52 106.5(5)
C53 C54 C34 119.5(5)
C53 C54 C55 120.0(5)
C34 C54 C55 108.1(5)
C56 C55 C36 120.0(5)
C56 C55 C54 119.4(5)
C36 C55 C54 108.0(5)
C55 C56 C68 120.4(5)
C55 C56 C57 120.0(5)
C68 C56 C57 107.1(5)
C38 C57 C56 120.3(5)
C38 C57 C58 120.0(5)
C56 C57 C58 108.5(5)
C59 C58 C69 121.2(5)
C59 C58 C57 121.4(5)
C69 C58 C57 107.9(5)
C60 C59 C58 115.9(5)
C60 C59 C40 118.8(5)
C58 C59 C40 118.5(5)
C59 C60 C61 121.8(5)
C59 C60 C43 121.4(5)
C61 C60 C43 107.6(5)
C70 C61 C60 120.7(5)
C70 C61 C62 121.2(5)
C60 C61 C62 108.1(5)
C63 C62 C44 120.5(6)
C63 C62 C61 119.9(5)
C44 C62 C61 108.6(5)
C62 C63 C64 120.2(5)
C62 C63 C47 119.2(5)
C64 C63 C47 108.6(5)
C65 C64 C49 121.2(5)
C65 C64 C63 121.1(6)
C49 C64 C63 108.3(5)
C66 C65 C64 116.2(6)
C66 C65 C70 118.4(5)
C64 C65 C70 118.8(5)
C65 C66 C51 120.9(5)
C65 C66 C67 121.8(5)
C51 C66 C67 108.0(5)
C68 C67 C66 119.9(5)
C68 C67 C53 119.6(5)
C66 C67 C53 109.0(5)
C67 C68 C56 120.4(5)
C67 C68 C69 119.2(5)
C56 C68 C69 108.7(5)
C70 C69 C58 121.3(5)
C70 C69 C68 121.9(5)
C58 C69 C68 107.7(5)
C69 C70 C61 116.5(5)
C69 C70 C65 118.5(5)
C61 C70 C65 118.6(5)
S1 C71 S2 179.2(4)
S3 C72 S4 179.2(5)
S6 C73 S5 179.3(4)
loop_
_geom_bond_atom_site_label_1
_geom_bond_atom_site_label_2
_geom_bond_distance
C1 C2 1.419(8)
C1 C25 1.430(9)
C1 C14 1.452(8)
C2 C3 1.416(8)
C2 C17 1.463(9)
C3 C27 1.442(9)
C3 C4 1.448(8)
C4 C19 1.383(9)
C4 C5 1.438(9)
C5 C22 1.385(8)
C5 C6 1.456(8)
C6 C7 1.376(8)
C6 C27 1.448(8)
C7 C24 1.439(8)
C7 C8 1.449(7)
C8 C9 1.408(8)
C8 C29 1.426(8)
C9 C10 1.421(8)
C9 C26 1.475(9)
C10 C31 1.420(8)
C10 C11 1.442(8)
C11 C12 1.390(9)
C11 C33 1.438(9)
C12 C25 1.450(8)
C12 C13 1.451(9)
C13 C35 1.394(9)
C13 C14 1.442(9)
C14 C15 1.373(9)
C15 C16 1.443(8)
C15 C37 1.451(8)
C16 C17 1.420(8)
C16 C39 1.431(9)
C17 C18 1.418(8)
C18 C41 1.415(9)
C18 C19 1.448(9)
C19 C20 1.445(9)
C20 C21 1.386(9)
C20 C42 1.448(9)
C21 C45 1.441(8)
C21 C22 1.451(8)
C22 C23 1.458(8)
C23 C24 1.397(8)
C23 C46 1.446(8)
C24 C28 1.440(8)
C25 C26 1.415(8)
C26 C27 1.414(8)
C28 C48 1.379(8)
C28 C29 1.451(7)
C29 C30 1.428(8)
C30 C31 1.418(8)
C30 C50 1.456(9)
C31 C32 1.459(8)
C32 C52 1.380(9)
C32 C33 1.436(9)
C33 C34 1.391(9)
C34 C54 1.450(9)
C34 C35 1.458(8)
C35 C36 1.443(9)
C36 C37 1.391(8)
C36 C55 1.446(8)
C37 C38 1.439(8)
C38 C57 1.381(8)
C38 C39 1.445(8)
C39 C40 1.420(8)
C40 C41 1.425(8)
C40 C59 1.461(8)
C41 C42 1.440(8)
C42 C43 1.381(9)
C43 C44 1.449(9)
C43 C60 1.450(8)
C44 C45 1.383(9)
C44 C62 1.450(8)
C45 C46 1.458(8)
C46 C47 1.389(8)
C47 C63 1.450(8)
C47 C48 1.456(7)
C48 C49 1.444(8)
C49 C50 1.417(8)
C49 C64 1.431(9)
C50 C51 1.416(8)
C51 C66 1.430(9)
C51 C52 1.445(8)
C52 C53 1.450(9)
C53 C54 1.391(8)
C53 C67 1.445(8)
C54 C55 1.453(8)
C55 C56 1.389(8)
C56 C68 1.439(8)
C56 C57 1.440(8)
C57 C58 1.450(7)
C58 C59 1.422(8)
C58 C69 1.429(8)
C59 C60 1.410(8)
C60 C61 1.434(8)
C61 C70 1.414(7)
C61 C62 1.454(8)
C62 C63 1.373(9)
C63 C64 1.441(8)
C64 C65 1.422(8)
C65 C66 1.418(8)
C65 C70 1.463(8)
C66 C67 1.438(8)
C67 C68 1.389(8)
C68 C69 1.449(7)
C69 C70 1.414(8)
C71 S1 1.546(8)
C71 S2 1.552(8)
C72 S3 1.538(6)
C72 S4 1.546(6)
C73 S6 1.541(5)
C73 S5 1.552(5)
