#------------------------------------------------------------------------------
#$Date: 2017-11-07 03:16:45 +0200 (Tue, 07 Nov 2017) $
#$Revision: 202802 $
#$URL: file:///home/coder/svn-repositories/cod/cif/1/54/71/1547170.cif $
#------------------------------------------------------------------------------
#
# This file is available in the Crystallography Open Database (COD),
# http://www.crystallography.net/
#
# All data on this site have been placed in the public domain by the
# contributors.
#
data_1547170
loop_
_publ_author_name
'Barker, Joshua E.'
'Frederickson, Conerd K.'
'Jones, Michael H.'
'Zakharov, Lev N.'
'Haley, Michael M.'
_publ_section_title
;
 Synthesis and Properties of Quinoidal Fluorenofluorenes.
;
_journal_issue                   19
_journal_name_full               'Organic letters'
_journal_page_first              5312
_journal_page_last               5315
_journal_paper_doi               10.1021/acs.orglett.7b02605
_journal_volume                  19
_journal_year                    2017
_chemical_formula_sum            'C42 H34'
_chemical_formula_weight         538.69
_space_group_crystal_system      triclinic
_space_group_IT_number           2
_space_group_name_Hall           '-P 1'
_space_group_name_H-M_alt        'P -1'
_symmetry_space_group_name_Hall  '-P 1'
_symmetry_space_group_name_H-M   'P -1'
_atom_sites_solution_hydrogens   geom
_audit_creation_method           SHELXL-2014/7
_cell_angle_alpha                87.837(4)
_cell_angle_beta                 88.161(4)
_cell_angle_gamma                75.494(4)
_cell_formula_units_Z            1
_cell_length_a                   7.1561(6)
_cell_length_b                   8.0619(6)
_cell_length_c                   12.8650(10)
_cell_measurement_reflns_used    4672
_cell_measurement_temperature    173(2)
_cell_measurement_theta_max      66.46
_cell_measurement_theta_min      5.67
_cell_volume                     717.84(10)
_computing_cell_refinement       'Bruker SAINT'
_computing_data_collection       'Bruker APEX2'
_computing_data_reduction        'Bruker SAINT'
_computing_molecular_graphics    'Bruker SHELXTL'
_computing_publication_material  'Bruker SHELXTL'
_computing_structure_refinement  'SHELXL-2014/7 (Sheldrick, 2014)'
_computing_structure_solution    'SHELXS-97 (Sheldrick 2008)'
_diffrn_ambient_temperature      173(2)
_diffrn_measured_fraction_theta_full 0.978
_diffrn_measured_fraction_theta_max 0.978
_diffrn_measurement_device_type  'Bruker Apex II CCD'
_diffrn_measurement_method       '\f and \w scans'
_diffrn_radiation_type           CuK\a
_diffrn_radiation_wavelength     1.54178
_diffrn_reflns_av_R_equivalents  0.0454
_diffrn_reflns_av_unetI/netI     0.0370
_diffrn_reflns_Laue_measured_fraction_full 0.978
_diffrn_reflns_Laue_measured_fraction_max 0.978
_diffrn_reflns_limit_h_max       8
_diffrn_reflns_limit_h_min       -8
_diffrn_reflns_limit_k_max       9
_diffrn_reflns_limit_k_min       -9
_diffrn_reflns_limit_l_max       14
_diffrn_reflns_limit_l_min       -15
_diffrn_reflns_number            8275
_diffrn_reflns_point_group_measured_fraction_full 0.978
_diffrn_reflns_point_group_measured_fraction_max 0.978
_diffrn_reflns_theta_full        66.500
_diffrn_reflns_theta_max         66.500
_diffrn_reflns_theta_min         3.439
_diffrn_source                   'Incoatec I\mS'
_exptl_absorpt_coefficient_mu    0.529
_exptl_absorpt_correction_T_max  0.7528
_exptl_absorpt_correction_T_min  0.6838
_exptl_absorpt_correction_type   multi-scan
_exptl_absorpt_process_details   SADABS
_exptl_crystal_colour            dark-blue
_exptl_crystal_density_diffrn    1.246
_exptl_crystal_description       cut-block
_exptl_crystal_F_000             286
_exptl_crystal_size_max          0.090
_exptl_crystal_size_mid          0.080
_exptl_crystal_size_min          0.060
_refine_diff_density_max         0.459
_refine_diff_density_min         -0.442
_refine_diff_density_rms         0.061
_refine_ls_extinction_method     none
_refine_ls_goodness_of_fit_ref   1.065
_refine_ls_hydrogen_treatment    constr
_refine_ls_matrix_type           full
_refine_ls_number_parameters     190
_refine_ls_number_reflns         2481
_refine_ls_number_restraints     0
_refine_ls_restrained_S_all      1.065
_refine_ls_R_factor_all          0.0677
_refine_ls_R_factor_gt           0.0621
_refine_ls_shift/su_max          0.000
_refine_ls_shift/su_mean         0.000
_refine_ls_structure_factor_coef Fsqd
_refine_ls_weighting_details
'w=1/[\s^2^(Fo^2^)+(0.0876P)^2^+0.7347P] where P=(Fo^2^+2Fc^2^)/3'
_refine_ls_weighting_scheme      calc
_refine_ls_wR_factor_gt          0.1733
_refine_ls_wR_factor_ref         0.1778
_reflns_Friedel_coverage         0.000
_reflns_number_gt                2183
_reflns_number_total             2481
_reflns_threshold_expression     'I > 2\s(I)'
_cod_data_source_file            ol7b02605_si_002.cif
_cod_data_source_block           cu_mhrr148_0m
_cod_depositor_comments          'Adding full bibliography for 1547170.cif.'
_cod_database_code               1547170
_shelx_shelxl_version_number     2014/7
_shelx_space_group_comment
;
The symmetry employed for this shelxl refinement is uniquely defined
by the following loop, which should always be used as a source of
symmetry information in preference to the above space-group names.
They are only intended as comments.
;
_shelx_estimated_absorpt_t_min   0.954
_shelx_estimated_absorpt_t_max   0.969
_shelx_res_file
;

    cu_mhrr148_0m.res created by SHELXL-2014/7


TITL cu_mhrr148_0m in P-1
CELL 1.54178   7.15610   8.06190  12.86500  87.8371  88.1610  75.4944
ZERR    1.00   0.00060   0.00060   0.00100   0.0043   0.0040   0.0040
LATT 1
SFAC C  H
UNIT 42  34
L.S. 12
omit -3
acta
BOND $H
FMAP 2
PLAN 30
SIZE 0.06 0.08 0.09
htab
conf
TEMP -100.000
WGHT    0.087600    0.734700
FVAR       0.32484
C1    1   -0.098456    0.055962    0.504542    11.00000    0.02472    0.02049 =
         0.02124    0.00040   -0.00070   -0.00403
C2    1   -0.154577    0.202223    0.434018    11.00000    0.02273    0.02533 =
         0.02755    0.00394    0.00123   -0.00021
AFIX  43
H2A   2   -0.280235    0.276131    0.441164    11.00000   -1.20000
AFIX   0
C3    1   -0.034443    0.237333    0.358340    11.00000    0.02953    0.02250 =
         0.02402    0.00694    0.00009   -0.00303
AFIX  43
H3A   2   -0.076582    0.333052    0.311971    11.00000   -1.20000
AFIX   0
C4    1    0.156941    0.129753    0.348137    11.00000    0.02495    0.02105 =
         0.02086    0.00108   -0.00135   -0.00428
C5    1    0.221757   -0.015189    0.419514    11.00000    0.02435    0.01967 =
         0.02052   -0.00016   -0.00110   -0.00461
C6    1    0.425442   -0.094511    0.389190    11.00000    0.02481    0.02125 =
         0.02117   -0.00228   -0.00083   -0.00577
C7    1    0.470829    0.001559    0.301641    11.00000    0.02454    0.02357 =
         0.02164   -0.00111   -0.00014   -0.00460
C8    1    0.301517    0.140254    0.276461    11.00000    0.02612    0.02180 =
         0.02233    0.00059   -0.00145   -0.00477
C9    1    0.653424   -0.038291    0.254737    11.00000    0.02979    0.03411 =
         0.02523    0.00081    0.00370   -0.00589
AFIX  43
H9A   2    0.682245    0.027419    0.196331    11.00000   -1.20000
AFIX   0
C10   1    0.793693   -0.176382    0.294838    11.00000    0.02363    0.03715 =
         0.03383   -0.00402    0.00365   -0.00037
AFIX  43
H10A  2    0.918825   -0.206082    0.263090    11.00000   -1.20000
AFIX   0
C11   1    0.751424   -0.270668    0.380907    11.00000    0.02648    0.02881 =
         0.03204   -0.00133   -0.00308    0.00102
AFIX  43
H11A  2    0.848449   -0.364164    0.407687    11.00000   -1.20000
AFIX   0
C12   1    0.568467   -0.230189    0.428727    11.00000    0.02824    0.02491 =
         0.02413    0.00115   -0.00206   -0.00390
AFIX  43
H12A  2    0.541789   -0.295059    0.488026    11.00000   -1.20000
AFIX   0
C13   1    0.287487    0.262180    0.186088    11.00000    0.01853    0.02656 =
         0.02444    0.00386    0.00269   -0.00351
C14   1    0.273000    0.203898    0.085639    11.00000    0.02392    0.03228 =
         0.02529    0.00201    0.00243   -0.00437
C15   1    0.258133    0.317953    0.001033    11.00000    0.02611    0.04628 =
         0.02153    0.00405    0.00152   -0.00464
AFIX  43
H15A  2    0.250670    0.277419   -0.066714    11.00000   -1.20000
AFIX   0
C16   1    0.253819    0.489476    0.012266    11.00000    0.01967    0.04072 =
         0.03360    0.01569   -0.00040   -0.00427
C17   1    0.265189    0.545492    0.111905    11.00000    0.02550    0.02772 =
         0.04208    0.01046   -0.00180   -0.00726
AFIX  43
H17A  2    0.260261    0.662910    0.121033    11.00000   -1.20000
AFIX   0
C18   1    0.283577    0.435368    0.198946    11.00000    0.02168    0.02602 =
         0.03108    0.00438   -0.00131   -0.00495
C19   1    0.263578    0.021948    0.070147    11.00000    0.04711    0.03681 =
         0.03062   -0.00427   -0.00219   -0.01040
AFIX  33
H19A  2    0.276306   -0.040787    0.137343    11.00000   -1.50000
H19B  2    0.139439    0.021872    0.040149    11.00000   -1.50000
H19C  2    0.368858   -0.033632    0.022867    11.00000   -1.50000
AFIX   0
C20   1    0.236390    0.610774   -0.081277    11.00000    0.03197    0.05819 =
         0.04208    0.02684   -0.00157   -0.00584
AFIX  33
H20A  2    0.230233    0.548260   -0.144432    11.00000   -1.50000
H20B  2    0.118672    0.703303   -0.073951    11.00000   -1.50000
H20C  2    0.348954    0.659488   -0.086162    11.00000   -1.50000
AFIX   0
C21   1    0.307051    0.501411    0.304560    11.00000    0.04411    0.02720 =
         0.04024    0.00056   -0.00822   -0.00810
AFIX  33
H21A  2    0.317985    0.408380    0.357050    11.00000   -1.50000
H21B  2    0.423959    0.543917    0.303962    11.00000   -1.50000
H21C  2    0.194472    0.594875    0.321336    11.00000   -1.50000

AFIX   0
HKLF 4

REM  cu_mhrr148_0m in P-1
REM R1 =  0.0621 for    2183 Fo > 4sig(Fo)  and  0.0677 for all    2481 data
REM    190 parameters refined using      0 restraints

END

WGHT      0.0855      0.7370

REM No hydrogen bonds found for HTAB generation

REM Highest difference peak  0.459,  deepest hole -0.442,  1-sigma level  0.061
Q1    1   0.3981 -0.0704  0.0960  11.00000  0.05    0.46
Q2    1   0.4422  0.4442  0.3315  11.00000  0.05    0.46
Q3    1   0.1496 -0.0026  0.1175  11.00000  0.05    0.44
Q4    1   0.2021  0.4801  0.3610  11.00000  0.05    0.44
Q5    1   0.2462  0.0087 -0.0012  11.00000  0.05    0.41
Q6    1   0.3002  0.6229  0.3054  11.00000  0.05    0.40
Q7    1   0.1092  0.6198 -0.1204  11.00000  0.05    0.30
Q8    1   0.3395  0.5665 -0.1403  11.00000  0.05    0.21
Q9    1   0.4680 -0.1968  0.3901  11.00000  0.05    0.18
Q10   1   0.1916  0.7435 -0.0472  11.00000  0.05    0.18
Q11   1  -0.1448  0.0644  0.5596  11.00000  0.05    0.17
Q12   1   0.5276 -0.0391  0.2474  11.00000  0.05    0.17
Q13   1   0.2669  0.3614  0.1967  11.00000  0.05    0.17
Q14   1   0.0571  0.1716  0.3410  11.00000  0.05    0.16
Q15   1   0.5075 -0.1300  0.4351  11.00000  0.05    0.15
Q16   1   0.3240  0.3406  0.1946  11.00000  0.05    0.15
Q17   1   0.0000  0.0000  0.5000  10.50000  0.05    0.15
Q18   1   0.2357  0.2403  0.1419  11.00000  0.05    0.15
Q19   1   0.4337 -0.0947  0.3190  11.00000  0.05    0.14
Q20   1   0.7602 -0.2770  0.3064  11.00000  0.05    0.14
Q21   1   0.5620  0.0007  0.2818  11.00000  0.05    0.14
Q22   1   0.4600 -0.0090  0.3729  11.00000  0.05    0.14
Q23   1  -0.3991  0.3755  0.4838  11.00000  0.05    0.13
Q24   1   0.1898  0.0020  0.4787  11.00000  0.05    0.13
Q25   1   0.2082  0.1056  0.2821  11.00000  0.05    0.13
Q26   1   0.9557 -0.1675  0.2805  11.00000  0.05    0.13
Q27   1  -0.0649  0.2540  0.4248  11.00000  0.05    0.13
Q28   1   0.9178 -0.5287  0.4169  11.00000  0.05    0.13
Q29   1   0.4713 -0.3352  0.4551  11.00000  0.05    0.13
Q30   1   0.2085  0.5286  0.0740  11.00000  0.05    0.12
;
_shelx_res_checksum              75213
_shelx_hkl_file
;
  -1   0   0   22.32    1.16
  -1   0   0   24.79    1.54
   1   0   0   21.77    1.55
  -2   0   0  724.50   35.33
  -2   0   0  692.10   46.48
  -2   0   0  717.57   29.56
   2   0   0  815.97   46.53
  -3   0   0    1.92    0.22
  -3   0   0    1.78    0.17
  -3   0   0    2.18    0.15
   3   0   0    1.57    0.19
   3   0   0    1.96    0.26
  -4   0   0  126.26    8.16
  -4   0   0  123.75    6.93
   4   0   0  130.40    8.22
   4   0   0  130.56    6.95
  -5   0   0   12.98    0.74
  -5   0   0   10.53    0.93
   5   0   0   11.97    0.78
   5   0   0   12.68    1.02
  -6   0   0   20.63    1.21
  -6   0   0   21.50    1.20
   6   0   0   18.06    1.18
   6   0   0   18.56    1.17
   6   0   0   19.07    1.15
  -7   0   0   10.43    0.78
   7   0   0   12.66    0.78
   7   0   0   13.18    0.79
  -8   0   0    0.39    0.12
   8   0   0    0.31    0.11
   7  -1   0    4.02    0.36
   7  -1   0    4.82    0.36
  -7   1   0    4.56    0.38
   6  -1   0    0.13    0.15
   6  -1   0    0.30    0.13
  -6   1   0    0.28    0.14
   5  -1   0   15.21    0.93
   5  -1   0   15.85    0.96
  -5   1   0   14.91    0.94
  -5   1   0   14.14    0.85
   4  -1   0   14.82    1.00
   4  -1   0   17.16    1.24
  -4   1   0   18.40    0.95
  -4   1   0   15.41    1.18
   3  -1   0  195.54    9.74
  -3   1   0  173.46    9.69
  -3   1   0  171.65    8.63
  -3   1   0  178.11   11.39
   2  -1   0    3.27    0.30
  -2   1   0    2.94    0.20
  -2   1   0    2.79    0.26
  -2   1   0    2.65    0.18
  -2   1   0    2.64    0.15
   1  -1   0  157.39    9.03
  -1   1   0  122.47    9.01
  -1   1   0  148.26    6.85
  -1   1   0  143.30    5.74
   0  -1   0   82.85    5.08
   0   1   0   78.46    3.82
   0   1   0   79.02    5.07
   0   1   0   81.77    3.86
   0   1   0   79.79    3.49
  -1  -1   0  232.34   14.24
   1   1   0  218.13   14.25
   1   1   0  225.09    9.77
   1   1   0  229.14   10.73
  -2  -1   0  255.04   14.89
   2   1   0  225.63   10.21
   2   1   0  227.78   14.90
  -3  -1   0   14.38    0.89
  -3  -1   0   13.00    0.65
  -3  -1   0   10.65    0.73
   3   1   0   14.48    0.93
   3   1   0   11.04    0.73
  -4  -1   0   36.38    2.47
   4   1   0   35.41    2.50
   4   1   0   39.26    2.08
  -5  -1   0    1.10    0.23
  -5  -1   0    1.02    0.16
   5   1   0    1.18    0.18
   5   1   0    1.33    0.30
  -6  -1   0   24.40    1.43
  -6  -1   0   23.44    1.37
  -6  -1   0   23.87    1.42
   6   1   0   22.90    1.41
  -7  -1   0    0.51    0.16
  -7  -1   0    0.34    0.16
   7   1   0    0.26    0.13
  -8  -1   0    4.75    0.38
   8   1   0    5.52    0.39
   7  -2   0    0.72    0.14
  -7   2   0    0.78    0.16
   6  -2   0    0.24    0.13
  -6   2   0    0.32    0.15
   5  -2   0    6.89    0.52
   5  -2   0    7.49    0.59
  -5   2   0    8.11    0.57
   4  -2   0    0.57    0.17
   4  -2   0    0.26    0.17
   3  -2   0   12.24    0.81
   3  -2   0   13.28    0.99
  -3   2   0   13.81    0.96
  -3   2   0   13.09    0.73
   2  -2   0    6.18    0.56
  -2   2   0    7.35    0.42
  -2   2   0    8.12    0.42
  -2   2   0    7.26    0.35
  -2   2   0    7.49    0.56
   1  -2   0    0.13    0.10
  -1   2   0    0.15    0.06
  -1   2   0    0.10    0.06
  -1   2   0    0.16    0.04
  -1   2   0    0.15    0.09
   0  -2   0   23.14    1.44
   0   2   0   20.95    1.09
   0   2   0   20.57    1.07
   0   2   0   23.21    1.43
   0   2   0   21.18    0.99
  -1  -2   0  131.08    8.43
   1   2   0  146.31    5.79
   1   2   0  140.43    6.36
   1   2   0  115.85    8.43
  -2  -2   0   15.99    1.13
   2   2   0   16.70    0.94
   2   2   0   17.40    0.77
   2   2   0   16.99    1.15
   2   2   0   17.50    0.87
  -3  -2   0   30.92    1.91
  -3  -2   0   33.58    2.26
   3   2   0   35.70    1.90
   3   2   0   37.55    2.30
   3   2   0   35.05    1.54
  -4  -2   0    0.07    0.11
  -4  -2   0    0.05    0.08
   4   2   0    0.19    0.08
   4   2   0    0.29    0.17
  -5  -2   0    1.87    0.30
  -5  -2   0    1.38    0.20
  -6  -2   0    1.58    0.22
  -6  -2   0    1.64    0.22
   6   2   0    1.41    0.21
  -7  -2   0   10.25    0.70
   7   2   0   10.67    0.71
  -8  -2   0    1.75    0.20
   8   2   0    1.35    0.19
   7  -3   0   -0.03    0.07
  -7   3   0    0.03    0.11
  -7   3   0    0.07    0.09
   6  -3   0   -0.09    0.10
  -6   3   0   -0.04    0.10
   5  -3   0   17.63    1.07
   5  -3   0   17.13    1.10
  -5   3   0   16.71    1.07
   4  -3   0    7.73    0.56
   4  -3   0    6.19    0.47
  -4   3   0    6.71    0.51
  -4   3   0    6.80    0.40
   3  -3   0    0.64    0.21
   3  -3   0    0.48    0.08
   2  -3   0   32.72    2.03
  -2   3   0   28.46    1.36
  -2   3   0   28.66    1.51
   1  -3   0   57.56    3.52
  -1   3   0   51.51    2.40
  -1   3   0   53.27    2.66
   0  -3   0    2.43    0.25
   0   3   0    2.22    0.24
   0   3   0    2.81    0.18
   0   3   0    2.67    0.19
   0   3   0    2.65    0.18
  -1  -3   0   14.25    1.02
   1   3   0   16.18    0.79
   1   3   0   14.10    1.03
   1   3   0   15.88    0.71
  -2  -3   0    0.04    0.08
   2   3   0    0.02    0.09
   2   3   0   -0.02    0.08
   2   3   0   -0.04    0.06
   3   3   0    6.89    0.37
  -4  -3   0    1.93    0.26
  -5  -3   0   34.28    1.92
  -5  -3   0   32.37    2.29
  -6  -3   0    7.43    0.52
  -6  -3   0    7.32    0.53
   6   3   0    6.39    0.51
  -7  -3   0   45.39    2.68
   7   3   0   47.41    2.63
  -8  -3   0    0.21    0.10
   8   3   0    0.47    0.12
   6  -4   0    0.74    0.14
  -6   4   0    0.82    0.15
   5  -4   0    4.83    0.39
  -5   4   0    4.53    0.40
   4  -4   0   19.39    1.03
   4  -4   0   21.23    1.30
   4  -4   0   23.01    1.26
  -4   4   0   20.88    1.01
  -4   4   0   18.82    1.25
   3  -4   0    0.01    0.06
   3  -4   0    0.02    0.16
   2  -4   0    5.55    0.52
   2  -4   0    5.15    0.34
  -2   4   0    5.13    0.36
  -2   4   0    5.37    0.34
   1  -4   0    7.55    0.58
  -1   4   0    6.20    0.42
  -1   4   0    6.74    0.39
   0  -4   0  123.22    7.86
   0   4   0  121.89    5.98
   0   4   0  125.06    5.41
  -1  -4   0    1.53    0.22
   1   4   0    1.31    0.14
   1   4   0    1.35    0.17
  -2  -4   0   11.11    0.86
   2   4   0   12.38    0.61
   2   4   0   12.82    0.69
  -3  -4   0   28.71    1.97
   3   4   0   29.81    1.36
  -4  -4   0   23.30    1.72
  -4  -4   0   26.58    1.45
  -6  -4   0    7.35    0.55
  -6  -4   0    7.40    0.54
   6   4   0    7.45    0.53
  -7  -4   0   -0.02    0.10
   7   4   0    0.04    0.11
   7   4   0   -0.01    0.09
  -8  -4   0    0.27    0.10
   8   4   0    0.26    0.09
   8   4   0    0.35    0.11
   5  -5   0    2.46    0.24
  -5   5   0    2.40    0.26
   4  -5   0    1.21    0.19
   4  -5   0    1.16    0.15
  -4   5   0    1.15    0.16
  -4   5   0    0.87    0.18
   3  -5   0    9.98    0.57
   3  -5   0   10.75    0.69
   3  -5   0   10.82    0.66
  -3   5   0   11.61    0.71
  -3   5   0   10.25    0.57
   2  -5   0   12.74    0.85
   2  -5   0   13.22    0.72
   2  -5   0   15.67    0.83
  -2   5   0   14.31    0.87
  -2   5   0   12.76    0.73
   1  -5   0    0.21    0.14
   1  -5   0    0.19    0.06
  -1   5   0    0.14    0.09
   0  -5   0    6.59    0.40
   0  -5   0    6.17    0.55
   0   5   0    6.32    0.39
  -1  -5   0    1.18    0.21
  -1  -5   0    1.32    0.12
   1   5   0    1.09    0.17
   1   5   0    1.25    0.16
  -2  -5   0   28.00    1.88
  -2  -5   0   26.67    1.58
   2   5   0   28.52    1.31
   2   5   0   28.25    1.47
  -3  -5   0    1.27    0.23
  -3  -5   0    1.21    0.13
   3   5   0    1.25    0.18
  -4  -5   0    1.09    0.23
  -4  -5   0    1.00    0.13
  -5  -5   0    0.27    0.12
  -5  -5   0    0.21    0.08
   5   5   0    0.16    0.12
   5   5   0    0.12    0.10
  -6  -5   0    4.01    0.39
  -6  -5   0    4.43    0.36
   6   5   0    3.49    0.35
   6   5   0    4.25    0.29
  -7  -5   0    0.54    0.14
   7   5   0    0.70    0.14
   7   5   0    0.78    0.13
  -8  -5   0    0.00    0.07
   8   5   0    0.01    0.05
   8   5   0   -0.10    0.06
   5  -6   0    0.07    0.07
   4  -6   0    0.76    0.11
   4  -6   0    0.95    0.15
  -4   6   0    0.87    0.15
   3  -6   0    0.61    0.14
   3  -6   0    0.60    0.11
  -3   6   0    0.47    0.14
   2  -6   0   39.93    2.15
   2  -6   0   33.48    2.12
   2  -6   0   37.75    1.80
  -2   6   0   37.95    2.12
  -2   6   0   36.80    2.52
   1  -6   0    9.12    0.53
   1  -6   0    7.00    0.54
  -1   6   0    8.14    0.70
  -1   6   0    8.70    0.56
   0  -6   0    1.69    0.16
   0   6   0    1.85    0.21
   0   6   0    1.69    0.21
   0   6   0    1.58    0.27
  -1  -6   0    5.83    0.54
  -1  -6   0    6.01    0.39
   1   6   0    5.82    0.39
  -2  -6   0    0.10    0.12
  -2  -6   0    0.17    0.06
   2   6   0    0.24    0.10
   2   6   0    0.16    0.10
  -3  -6   0    6.85    0.45
  -3  -6   0    7.44    0.49
   3   6   0    7.19    0.48
   3   6   0    6.84    0.46
   3   6   0    6.42    0.41
  -4  -6   0    3.60    0.32
  -4  -6   0    3.71    0.28
   4   6   0    3.77    0.28
   4   6   0    3.74    0.32
   4   6   0    3.70    0.27
  -5  -6   0    1.55    0.17
  -5  -6   0    1.62    0.21
   5   6   0    1.49    0.21
   5   6   0    1.56    0.18
   5   6   0    1.50    0.17
  -6  -6   0    0.75    0.15
   6   6   0    1.10    0.14
   6   6   0    1.28    0.18
  -7  -6   0    2.77    0.24
   7   6   0    2.31    0.22
   7   6   0    2.26    0.19
   4  -7   0    5.09    0.35
   3  -7   0    0.35    0.09
   3  -7   0    0.37    0.10
   2  -7   0   11.71    0.71
   2  -7   0   11.79    0.73
   2  -7   0   11.03    0.61
  -2   7   0   11.54    0.72
  -2   7   0   11.41    0.89
   1  -7   0    0.39    0.09
   1  -7   0    0.57    0.13
  -1   7   0    0.43    0.13
  -1   7   0    0.40    0.18
   0  -7   0    0.44    0.09
   0  -7   0    0.36    0.11
   0   7   0    0.32    0.16
   0   7   0    0.45    0.13
  -1  -7   0    1.54    0.16
  -1  -7   0    1.53    0.19
   1   7   0    1.51    0.18
   1   7   0    1.17    0.24
   1   7   0    1.51    0.19
  -2  -7   0    0.83    0.12
  -2  -7   0    1.34    0.19
  -2  -7   0    1.07    0.14
   2   7   0    1.31    0.25
   2   7   0    1.20    0.17
   2   7   0    0.73    0.14
  -3  -7   0    0.08    0.10
  -3  -7   0    0.11    0.09
  -3  -7   0    0.15    0.07
   3   7   0    0.28    0.12
   3   7   0    0.12    0.10
  -4  -7   0    5.07    0.35
  -4  -7   0    4.99    0.39
   4   7   0    4.56    0.37
   4   7   0    5.32    0.34
  -5  -7   0    3.74    0.28
  -5  -7   0    4.37    0.34
   5   7   0    4.16    0.33
   5   7   0    4.02    0.29
  -6  -7   0    0.55    0.12
  -6  -7   0    0.66    0.12
   6   7   0    0.45    0.11
  -7  -7   0    0.17    0.07
  -7  -7   0    0.06    0.07
   2  -8   0    0.11    0.07
   2  -8   0    0.06    0.07
  -2   8   0    0.14    0.11
   1  -8   0    0.87    0.12
   1  -8   0    1.14    0.15
  -1   8   0    0.91    0.19
   0  -8   0    4.22    0.31
   0  -8   0    4.75    0.35
   0   8   0    4.65    0.47
  -1  -8   0   10.34    0.65
  -1  -8   0   11.28    0.68
   1   8   0   10.24    0.84
  -2  -8   0    0.89    0.15
  -2  -8   0    0.80    0.12
   2   8   0    0.72    0.14
   2   8   0    0.94    0.21
  -3  -8   0    0.40    0.11
  -3  -8   0    0.36    0.11
  -3  -8   0    0.22    0.07
   3   8   0    0.13    0.10
   3   8   0    0.15    0.14
  -4  -8   0    0.57    0.11
  -4  -8   0    0.52    0.09
  -4  -8   0    0.76    0.14
   4   8   0    0.70    0.13
  -5  -8   0    0.33    0.10
  -5  -8   0    0.59    0.11
   5   8   0    0.47    0.10
  -6  -8   0    1.94    0.19
  -6  -8   0    2.05    0.17
   0  -9   0    1.31    0.14
   0  -9   0    1.44    0.13
   0   9   0    0.90    0.16
  -1  -9   0    5.33    0.32
  -1  -9   0    5.50    0.37
   1   9   0    5.46    0.49
  -2  -9   0    3.73    0.28
   2   9   0    3.70    0.38
  -3  -9   0    4.44    0.31
  -4  -9   0    2.48    0.18
  -4  -9   0    2.49    0.20
   4   9  -1    2.99    0.21
  -4  -9   1    3.02    0.20
   3   9  -1    0.33    0.09
   2   9  -1    0.88    0.18
   1   9  -1    9.24    0.71
   0   9  -1    0.37    0.12
   0  -9   1    0.31    0.07
  -6  -8   1    2.35    0.17
  -6  -8   1    2.02    0.18
   5   8  -1    8.27    0.45
  -5  -8   1    7.95    0.52
  -5  -8   1    7.71    0.43
   4   8  -1    3.96    0.30
  -4  -8   1    4.29    0.30
  -4  -8   1    4.30    0.28
  -4  -8   1    4.52    0.33
   3   8  -1    0.28    0.11
  -3  -8   1    0.33    0.10
  -3  -8   1    0.22    0.09
  -3  -8   1    0.28    0.08
   2   8  -1    0.37    0.17
   2   8  -1    0.33    0.11
  -2  -8   1    0.35    0.08
   1   8  -1    3.85    0.43
   1   8  -1    3.80    0.27
  -1  -8   1    3.82    0.28
   0   8  -1    0.83    0.21
   0  -8   1    0.64    0.12
   0  -8   1    0.84    0.11
  -1   8  -1    4.92    0.45
   1  -8   1    4.29    0.28
   1  -8   1    4.61    0.32
   1  -8   1    4.05    0.30
  -2   8  -1    0.04    0.11
   2  -8   1   -0.02    0.06
   2  -8   1   -0.01    0.06
  -7  -7   1   18.55    1.05
  -7  -7   1   17.29    0.84
   6   7  -1    3.62    0.25
  -6  -7   1    4.24    0.27
  -6  -7   1    3.71    0.30
   5   7  -1    0.94    0.14
   5   7  -1    0.68    0.13
  -5  -7   1    0.72    0.14
  -5  -7   1    0.77    0.11
   4   7  -1    3.30    0.27
   4   7  -1    3.57    0.26
  -4  -7   1    3.35    0.26
  -4  -7   1    2.96    0.29
   3   7  -1    0.83    0.14
   3   7  -1    1.21    0.17
  -3  -7   1    1.17    0.14
  -3  -7   1    1.24    0.18
   2   7  -1    5.20    0.35
   2   7  -1    5.42    0.51
   2   7  -1    5.57    0.34
  -2  -7   1    4.76    0.33
  -2  -7   1    5.66    0.37
   1   7  -1    1.71    0.18
   1   7  -1    1.52    0.26
   1   7  -1    1.39    0.17
  -1  -7   1    1.29    0.15
   0   7  -1    1.73    0.19
   0   7  -1    1.62    0.27
   0  -7   1    1.58    0.16
  -1   7  -1    0.02    0.15
  -1   7  -1   -0.03    0.09
   1  -7   1    0.02    0.08
   1  -7   1    0.00    0.06
  -2   7  -1   11.73    0.89
  -2   7  -1   12.09    0.60
   2  -7   1   10.92    0.72
   2  -7   1   11.31    0.69
   2  -7   1   11.42    0.61
   3  -7   1    2.52    0.19
   3  -7   1    2.36    0.22
   4  -7   1    5.89    0.38
   7   6  -1    4.53    0.28
   7   6  -1    4.35    0.31
  -7  -6   1    4.96    0.35
  -7  -6   1    4.36    0.28
   6   6  -1   11.17    0.57
   6   6  -1   11.82    0.68
  -6  -6   1    9.60    0.70
   5   6  -1    5.09    0.33
   5   6  -1    5.05    0.38
   5   6  -1    4.96    0.34
  -5  -6   1    4.82    0.35
  -5  -6   1    5.37    0.40
   4   6  -1    2.33    0.23
   4   6  -1    2.28    0.24
   4   6  -1    2.45    0.21
  -4  -6   1    2.72    0.22
  -4  -6   1    2.75    0.26
   3   6  -1    1.04    0.15
   3   6  -1    1.12    0.17
   3   6  -1    0.99    0.15
  -3  -6   1    1.31    0.14
   2   6  -1    1.34    0.16
   2   6  -1    1.04    0.18
  -2  -6   1    1.45    0.14
  -2  -6   1    1.23    0.23
   1   6  -1    2.48    0.26
  -1  -6   1    2.35    0.19
  -1  -6   1    2.53    0.31
   0   6  -1    0.30    0.13
   0   6  -1    0.21    0.15
   0   6  -1    0.25    0.11
   0  -6   1    0.28    0.07
  -1   6  -1    5.93    0.37
  -1   6  -1    6.17    0.56
  -1   6  -1    5.73    0.42
   1  -6   1    5.98    0.39
   1  -6   1    5.55    0.42
  -2   6  -1   14.11    0.87
  -2   6  -1   14.01    0.73
  -2   6  -1   14.51    1.08
   2  -6   1   14.83    0.75
   2  -6   1   12.68    0.88
   2  -6   1   15.62    0.86
  -3   6  -1    0.40    0.13
  -3   6  -1    0.23    0.11
   3  -6   1    0.27    0.11
   3  -6   1    0.28    0.09
   3  -6   1    0.23    0.08
  -4   6  -1    3.39    0.23
  -4   6  -1    2.97    0.25
   4  -6   1    3.17    0.27
   5  -6   1    0.67    0.11
   8   5  -1    1.82    0.16
   8   5  -1    1.77    0.14
  -8  -5   1    1.96    0.18
   7   5  -1    0.01    0.09
   7   5  -1    0.03    0.08
  -7  -5   1    0.09    0.10
   6   5  -1    1.53    0.18
   6   5  -1    1.31    0.19
   6   5  -1    1.96    0.26
  -6  -5   1    1.82    0.23
   5   5  -1    1.13    0.18
   5   5  -1    0.98    0.15
  -5  -5   1    0.84    0.16
  -5  -5   1    1.10    0.14
  -4  -5   1    0.07    0.12
  -4  -5   1    0.06    0.06
   3   5  -1    0.60    0.13
  -3  -5   1    0.66    0.17
  -3  -5   1    0.38    0.08
   2   5  -1    5.40    0.35
  -2  -5   1    5.25    0.34
  -2  -5   1    5.49    0.46
   1   5  -1   17.75    0.92
  -1  -5   1   19.63    1.30
   0   5  -1    2.98    0.24
   0  -5   1    3.07    0.22
   0  -5   1    3.26    0.33
  -1   5  -1   20.81    0.98
   1  -5   1   19.53    1.39
   1  -5   1   18.89    1.13
  -2   5  -1    7.38    0.42
  -2   5  -1    7.35    0.62
  -2   5  -1    6.92    0.50
   2  -5   1    6.19    0.48
   2  -5   1    7.65    0.45
  -3   5  -1    7.78    0.54
  -3   5  -1    7.68    0.45
   3  -5   1    7.58    0.49
   3  -5   1    8.13    0.53
   3  -5   1    7.07    0.43
  -4   5  -1    3.63    0.28
  -4   5  -1    3.65    0.33
   4  -5   1    3.79    0.33
  -5   5  -1    6.45    0.46
   5  -5   1    7.15    0.48
   8   4  -1    0.02    0.07
   8   4  -1    0.08    0.08
  -8  -4   1    0.08    0.08
   7   4  -1    2.66    0.24
   7   4  -1    2.65    0.28
  -7  -4   1    2.85    0.29
   6   4  -1    2.28    0.26
  -6  -4   1    2.03    0.28
  -6  -4   1    1.90    0.25
   5   4  -1    1.51    0.21
  -5  -4   1    1.79    0.23
  -4  -4   1    0.06    0.06
  -4  -4   1    0.13    0.12
   3   4  -1   27.84    1.30
   2   4  -1    3.05    0.22
  -2  -4   1    2.81    0.28
   1   4  -1    1.15    0.15
  -1  -4   1    1.34    0.19
   0   4  -1   21.18    1.07
   0  -4   1   24.89    1.56
  -1   4  -1    6.74    0.42
  -1   4  -1    6.89    0.38
   1  -4   1    6.36    0.54
  -2   4  -1    0.95    0.14
   2  -4   1    0.96    0.11
   2  -4   1    0.80    0.21
   3  -4   1    3.46    0.25
  -4   4  -1    0.20    0.13
  -4   4  -1    0.21    0.11
   4  -4   1    0.40    0.09
   4  -4   1    0.19    0.12
  -5   4  -1    0.08    0.11
  -5   4  -1   -0.09    0.10
   5  -4   1    0.06    0.10
  -6   4  -1    0.25    0.15
  -6   4  -1    0.30    0.11
   6  -4   1    0.32    0.11
   8   3  -1    0.41    0.10
   8   3  -1    0.74    0.14
  -8  -3   1    0.63    0.13
   7   3  -1    5.67    0.47
  -7  -3   1    6.91    0.49
   6   3  -1   13.41    0.84
  -6  -3   1   13.29    0.86
  -6  -3   1   12.63    0.85
  -5  -3   1    1.63    0.29
  -5  -3   1    1.79    0.17
  -4  -3   1   19.02    1.09
  -4  -3   1   18.26    0.99
  -4  -3   1   18.61    1.31
   3   3  -1   32.62    1.37
  -3  -3   1   27.40    1.97
   2   3  -1    8.19    0.44
  -2  -3   1    8.86    0.62
   1   3  -1    6.58    0.35
   1   3  -1    6.12    0.38
  -1  -3   1    6.67    0.48
   0   3  -1    1.46    0.14
   0   3  -1    1.55    0.13
   0  -3   1    1.31    0.17
  -1   3  -1    8.44    0.48
  -1   3  -1    8.56    0.44
   1  -3   1    8.79    0.65
  -2   3  -1   58.27    2.71
  -2   3  -1   63.00    3.00
   2  -3   1   61.89    3.98
   3  -3   1    0.48    0.08
   3  -3   1    0.41    0.17
  -4   3  -1    1.64    0.23
  -4   3  -1    1.77    0.20
   4  -3   1    1.48    0.20
   4  -3   1    1.43    0.16
  -5   3  -1    0.07    0.13
  -5   3  -1    0.14    0.11
   5  -3   1    0.06    0.11
   5  -3   1    0.05    0.18
  -6   3  -1    0.43    0.13
   6  -3   1    0.74    0.16
  -7   3  -1    0.06    0.08
  -7   3  -1    0.04    0.11
   7  -3   1    0.02    0.07
   8   2  -1    1.74    0.20
  -8  -2   1    1.07    0.16
   7   2  -1   19.04    1.17
  -7  -2   1   19.53    1.19
  -5  -2   1    6.01    0.56
  -5  -2   1    6.31    0.46
  -4  -2   1    0.56    0.16
  -4  -2   1    0.61    0.11
   3   2  -1    1.96    0.15
   3   2  -1    1.71    0.23
  -3  -2   1    1.53    0.20
   2   2  -1    5.14    0.41
   2   2  -1    5.19    0.28
   1   2  -1   51.62    2.24
   1   2  -1   51.38    3.24
   1   2  -1   51.59    2.46
  -1  -2   1   48.86    3.23
   0   2  -1   18.92    0.97
   0   2  -1   20.04    1.27
   0   2  -1   19.41    0.83
   0   2  -1   19.87    0.89
   0  -2   1   19.96    1.28
  -1   2  -1    0.86    0.10
  -1   2  -1    1.05    0.10
  -1   2  -1    0.87    0.13
  -1   2  -1    0.97    0.10
   1  -2   1    0.84    0.14
  -2   2  -1   12.78    0.61
  -2   2  -1   13.15    0.91
  -2   2  -1   12.67    0.58
  -2   2  -1   12.96    0.68
   2  -2   1   13.65    0.93
   3  -2   1    1.44    0.25
   4  -2   1    9.41    0.79
   4  -2   1    8.33    0.62
   4  -2   1    8.87    0.54
  -5   2  -1    7.10    0.51
  -5   2  -1    6.45    0.41
   5  -2   1    6.29    0.49
   5  -2   1    7.42    0.57
  -6   2  -1    0.16    0.12
   6  -2   1    0.44    0.14
  -7   2  -1    1.16    0.18
   7  -2   1    1.24    0.17
   8   1  -1    9.52    0.58
  -8  -1   1    7.87    0.55
   7   1  -1    5.95    0.47
  -7  -1   1    6.47    0.48
   6   1  -1   25.39    1.38
  -6  -1   1   21.34    1.39
  -6  -1   1   22.42    1.36
   5   1  -1    5.36    0.33
  -5  -1   1    4.13    0.47
  -5  -1   1    5.23    0.39
   4   1  -1   96.97    6.17
   4   1  -1   91.80    5.17
  -4  -1   1   97.91    6.12
  -4  -1   1   96.47    5.20
  -4  -1   1   93.18    4.63
   3   1  -1  143.59    8.52
   3   1  -1  133.98    7.22
  -3  -1   1  128.69    7.24
  -3  -1   1  124.52    8.48
  -3  -1   1  137.44    6.44
   2   1  -1   19.44    0.89
  -2  -1   1   18.68    0.98
  -2  -1   1   20.64    1.29
   1   1  -1   13.12    0.62
   1   1  -1   14.15    0.89
   0   1  -1  101.68    4.47
   0   1  -1  103.51    4.16
   0   1  -1  105.03    4.16
   0  -1   1  102.86    6.50
  -1   1  -1   61.39    4.00
  -1   1  -1   66.16    3.04
  -1   1  -1   66.16    2.56
  -1   1  -1   64.18    2.75
   1  -1   1   57.94    4.01
  -2   1  -1   -0.04    0.04
  -2   1  -1    0.04    0.05
  -2   1  -1   -0.01    0.04
  -2   1  -1    0.05    0.07
   2  -1   1    0.03    0.09
  -3   1  -1    9.62    0.53
  -3   1  -1    9.57    0.42
  -3   1  -1    8.85    0.68
   3  -1   1    9.71    0.59
   3  -1   1    8.11    0.71
  -4   1  -1   38.34    2.13
   4  -1   1   39.94    2.66
  -5   1  -1   19.81    1.21
   5  -1   1   20.31    1.24
   5  -1   1   20.16    1.22
  -6   1  -1    9.80    0.66
   6  -1   1   10.22    0.71
   6  -1   1    9.07    0.65
  -7   1  -1    3.89    0.35
   7  -1   1    3.81    0.33
   8   0  -1   20.54    1.19
  -8   0   1   20.19    1.18
   7   0  -1    0.40    0.14
  -7   0   1    0.49    0.15
  -7   0   1    0.40    0.15
   6   0  -1   59.62    3.88
  -6   0   1   75.35    3.92
  -6   0   1   68.26    3.77
  -6   0   1   71.69    3.84
   5   0  -1    0.99    0.28
   5   0  -1    0.77    0.17
  -5   0   1    1.02    0.23
  -5   0   1    1.26    0.18
   4   0  -1   90.99    6.09
   4   0  -1   92.76    5.13
  -4   0   1   93.59    5.13
  -4   0   1   98.36    6.05
   3   0  -1    3.27    0.24
   3   0  -1    2.82    0.32
  -3   0   1    2.78    0.20
  -3   0   1    2.57    0.28
  -3   0   1    2.85    0.23
   2   0  -1  508.77   32.66
  -2   0   1  484.49   24.84
  -2   0   1  563.39   32.74
   1   0  -1   57.57    3.84
  -1   0   1   60.48    3.83
  -1   0   1   63.37    2.91
   0   0   1   13.64    0.87
  -1   0  -1  192.08   11.24
  -1   0  -1  179.14    7.16
  -1   0  -1  173.35    7.17
   1   0   1  162.90    8.46
   1   0   1  185.10   11.25
  -2   0  -1   76.53    3.85
  -2   0  -1   83.32    3.24
  -2   0  -1   71.50    5.09
   2   0   1   89.76    5.12
  -3   0  -1  147.73    8.35
  -3   0  -1  160.45    6.23
  -3   0  -1  150.65    9.81
   3   0   1  159.63    8.38
  -4   0  -1   27.57    1.54
  -4   0  -1   29.10    1.87
   4   0   1   23.35    1.57
   4   0   1   30.93    1.94
  -5   0  -1   23.81    1.36
   5   0   1   22.05    1.77
   5   0   1   26.64    1.45
  -6   0  -1   11.97    0.77
   6   0   1   10.90    0.77
   6   0   1   11.53    0.75
  -7   0  -1   -0.05    0.12
   7   0   1    0.02    0.11
   7   0   1   -0.21    0.10
  -8   0  -1    0.01    0.10
  -8   0  -1   -0.03    0.09
   8   0   1    0.05    0.09
   7  -1  -1    4.35    0.38
   7  -1  -1    5.02    0.38
  -7   1   1    4.58    0.38
   6  -1  -1    0.10    0.11
   6  -1  -1    0.19    0.11
  -6   1   1    0.21    0.13
  -6   1   1    0.25    0.15
   5  -1  -1   21.06    1.20
   5  -1  -1   18.79    1.19
  -5   1   1   21.16    1.22
  -5   1   1   18.70    1.22
  -5   1   1   19.60    1.15
   4  -1  -1   13.83    0.81
   4  -1  -1   11.40    1.00
  -4   1   1   12.18    0.77
  -4   1   1   14.36    0.99
   3  -1  -1    1.70    0.28
   3  -1  -1    2.20    0.22
  -3   1   1    2.32    0.19
  -3   1   1    2.17    0.18
  -3   1   1    2.13    0.25
   2  -1  -1  140.39    8.30
   2  -1  -1  131.87    7.06
  -2   1   1  133.36    6.28
  -2   1   1  131.44    7.05
  -2   1   1  112.72    8.26
  -2   1   1  133.01    6.20
   1  -1  -1   29.58    1.84
  -1   1   1   29.21    1.82
  -1   1   1   27.43    1.38
  -1   1   1   26.56    1.36
   0  -1  -1  498.22   29.68
   0   1   1  455.24   22.31
   0   1   1  494.08   29.69
   0   1   1  436.25   22.55
  -1  -1  -1   37.11    1.46
  -1  -1  -1   39.92    2.31
   1   1   1   31.11    2.31
   1   1   1   36.77    1.57
   1   1   1   35.23    1.74
  -2  -1  -1    1.80    0.09
   2   1   1    1.91    0.14
   2   1   1    1.90    0.22
   2   1   1    1.75    0.10
  -3  -1  -1    3.75    0.20
  -3  -1  -1    3.46    0.22
  -3  -1  -1    4.17    0.34
  -3  -1  -1    4.02    0.27
   3   1   1    3.85    0.28
   3   1   1    3.85    0.38
  -4  -1  -1    3.16    0.25
  -4  -1  -1    2.93    0.33
   4   1   1    3.07    0.37
   4   1   1    3.34    0.28
  -5  -1  -1    0.99    0.22
  -5  -1  -1    1.21    0.16
   5   1   1    0.77    0.16
   5   1   1    0.81    0.26
  -6  -1  -1    5.75    0.46
  -6  -1  -1    5.76    0.39
  -6  -1  -1    5.77    0.45
   6   1   1    5.49    0.44
   6   1   1    5.34    0.43
   6   1   1    6.24    0.44
  -7  -1  -1    6.18    0.46
   7   1   1    5.09    0.45
   7   1   1    5.71    0.44
  -8  -1  -1    3.07    0.29
   8   1   1    3.48    0.30
   7  -2  -1    0.44    0.12
  -7   2   1    0.16    0.11
   6  -2  -1    3.76    0.34
  -6   2   1    3.60    0.36
   5  -2  -1   55.77    3.20
   5  -2  -1   55.59    3.15
  -5   2   1   56.81    3.18
   4  -2  -1    0.75    0.24
   4  -2  -1    0.82    0.19
  -4   2   1    0.63    0.10
   3  -2  -1    0.25    0.11
   3  -2  -1    0.27    0.15
  -3   2   1    0.26    0.08
  -3   2   1    0.26    0.13
  -3   2   1    0.15    0.07
   2  -2  -1    7.51    0.57
   2  -2  -1    6.64    0.45
  -2   2   1    7.30    0.40
  -2   2   1    6.69    0.42
  -2   2   1    6.84    0.54
   1  -2  -1   70.28    5.31
  -1   2   1   83.57    3.97
  -1   2   1   89.09    5.31
  -1   2   1   83.25    4.51
  -1   2   1   90.27    4.03
   0  -2  -1   50.32    3.09
   0   2   1   47.34    2.32
   0   2   1   47.43    2.34
   0   2   1   47.50    3.08
  -1  -2  -1  203.75   14.09
   1   2   1  237.45   10.72
   1   2   1  224.31   10.62
   1   2   1  216.22   14.10
   1   2   1  235.39    9.67
  -2  -2  -1   11.08    0.86
   2   2   1   13.71    0.67
   2   2   1   12.96    0.58
   2   2   1   12.14    0.88
   2   2   1   12.98    0.72
  -3  -2  -1    0.10    0.10
  -3  -2  -1    0.11    0.07
   3   2   1    0.21    0.14
   3   2   1    0.09    0.07
   3   2   1    0.11    0.09
  -4  -2  -1   32.03    2.20
  -4  -2  -1   33.40    1.85
   4   2   1   32.98    1.84
  -5  -2  -1    6.18    0.55
  -5  -2  -1    5.40    0.41
   5   2   1    5.41    0.61
   5   2   1    5.79    0.41
  -6  -2  -1    2.46    0.30
  -6  -2  -1    2.74    0.26
  -6  -2  -1    2.36    0.27
   6   2   1    2.24    0.26
  -7  -2  -1    0.48    0.14
  -7  -2  -1    0.51    0.17
   7   2   1    0.33    0.15
  -8  -2  -1    0.45    0.13
   8   2   1    0.32    0.12
   7  -3  -1    0.22    0.08
  -7   3   1    0.24    0.10
   6  -3  -1    7.79    0.51
  -6   3   1    6.33    0.51
   5  -3  -1    9.01    0.64
   5  -3  -1    9.19    0.61
  -5   3   1    8.21    0.63
   4  -3  -1   49.14    2.87
   4  -3  -1   51.61    2.40
   4  -3  -1   47.50    2.88
  -4   3   1   51.31    2.31
  -4   3   1   53.34    2.87
   3  -3  -1   36.24    2.19
   3  -3  -1   42.28    2.64
  -3   3   1   37.19    1.94
   2  -3  -1   13.76    0.93
   2  -3  -1   12.23    0.76
  -2   3   1   11.79    0.68
  -2   3   1   11.63    0.66
  -2   3   1   11.48    0.88
   1  -3  -1   31.02    2.02
  -1   3   1   27.82    1.64
  -1   3   1   30.99    2.00
  -1   3   1   31.34    1.52
   0  -3  -1    6.81    0.60
   0   3   1    8.23    0.46
   0   3   1    9.24    0.43
   0   3   1    8.30    0.61
   0   3   1    8.44    0.45
   0   3   1    8.50    0.46
  -1  -3  -1   55.81    3.31
   1   3   1   47.45    2.77
   1   3   1   51.30    2.26
   1   3   1   46.27    3.30
   1   3   1   54.45    2.49
   1   3   1   51.93    2.51
  -2  -3  -1   -0.01    0.08
   2   3   1    0.01    0.10
   2   3   1    0.03    0.05
   2   3   1    0.03    0.08
   2   3   1    0.07    0.05
  -3  -3  -1   20.14    1.09
  -3  -3  -1   17.39    1.28
   3   3   1   19.17    1.04
   3   3   1   18.53    1.32
   3   3   1   17.75    0.99
   3   3   1   18.36    0.86
  -4  -3  -1   20.56    1.18
  -4  -3  -1   19.76    1.41
   4   3   1   20.04    1.13
  -5  -3  -1    3.70    0.32
  -5  -3  -1    3.73    0.42
  -6  -3  -1    0.55    0.15
  -6  -3  -1    0.35    0.12
   6   3   1    0.45    0.15
  -7  -3  -1    4.80    0.40
   7   3   1    5.03    0.41
  -8  -3  -1    3.74    0.29
   8   3   1    3.47    0.31
   6  -4  -1    0.40    0.12
  -6   4   1    0.27    0.12
   5  -4  -1    1.08    0.14
   5  -4  -1    0.83    0.16
  -5   4   1    0.88    0.19
   4  -4  -1    0.75    0.13
   4  -4  -1    0.90    0.22
   4  -4  -1    0.96    0.17
  -4   4   1    1.00    0.21
  -4   4   1    0.73    0.14
   3  -4  -1    0.00    0.09
   3  -4  -1    0.21    0.14
   2  -4  -1   13.50    0.78
   2  -4  -1   11.41    1.00
  -2   4   1   13.91    0.75
  -2   4   1   13.83    0.68
   1  -4  -1    1.83    0.29
  -1   4   1    1.97    0.20
  -1   4   1    2.35    0.19
   0  -4  -1    9.26    0.73
   0   4   1    9.78    0.50
   0   4   1    9.48    0.55
   0   4   1    9.69    0.54
  -1  -4  -1   29.16    1.89
   1   4   1   27.35    1.43
   1   4   1   28.12    1.30
  -2  -4  -1   12.56    0.89
   2   4   1   11.93    0.69
   2   4   1   12.32    0.61
  -3  -4  -1   44.42    2.81
   3   4   1   41.51    2.14
   3   4   1   41.30    1.91
  -4  -4  -1    0.22    0.11
  -4  -4  -1    0.19    0.13
  -4  -4  -1    0.22    0.07
  -5  -4  -1   37.04    2.27
  -5  -4  -1   40.64    2.25
   5   4   1   40.48    2.24
  -6  -4  -1    2.14    0.26
  -6  -4  -1    1.88    0.23
   6   4   1    1.22    0.20
  -7  -4  -1   23.32    1.38
   7   4   1   22.31    1.10
   7   4   1   23.48    1.37
  -8  -4  -1    6.81    0.45
   8   4   1    6.71    0.37
   8   4   1    6.75    0.46
   5  -5  -1    0.03    0.10
  -5   5   1    0.03    0.11
   4  -5  -1   -0.03    0.10
   4  -5  -1    0.25    0.10
  -4   5   1   -0.08    0.12
   3  -5  -1    0.14    0.10
   3  -5  -1    0.23    0.16
   3  -5  -1    0.13    0.09
  -3   5   1    0.06    0.13
   2  -5  -1    2.11    0.19
   2  -5  -1    2.02    0.18
   2  -5  -1    2.27    0.23
  -2   5   1    1.63    0.21
  -2   5   1    2.31    0.27
  -2   5   1    1.51    0.23
   1  -5  -1    5.53    0.36
   1  -5  -1    5.59    0.54
  -1   5   1    5.70    0.36
  -1   5   1    5.48    0.39
   0  -5  -1    0.47    0.16
   0  -5  -1    0.51    0.08
   0   5   1    0.47    0.13
   0   5   1    0.58    0.13
  -1  -5  -1    5.01    0.46
  -1  -5  -1    5.06    0.33
   1   5   1    5.14    0.33
   1   5   1    4.89    0.36
  -2  -5  -1   15.22    0.90
  -2  -5  -1   15.18    1.12
   2   5   1   15.73    0.78
   2   5   1   15.65    0.88
  -3  -5  -1    4.29    0.29
  -3  -5  -1    4.11    0.42
   3   5   1    4.13    0.30
   3   5   1    4.19    0.37
  -4  -5  -1   13.38    0.80
  -5  -5  -1    4.18    0.35
  -5  -5  -1    4.05    0.38
   5   5   1    4.22    0.35
  -6  -5  -1   -0.04    0.11
  -6  -5  -1   -0.02    0.10
   6   5   1   -0.05    0.11
   6   5   1    0.06    0.10
  -7  -5  -1    1.16    0.18
   7   5   1    1.36    0.15
   7   5   1    1.18    0.19
  -8  -5  -1    0.67    0.11
   8   5   1    0.79    0.12
   5  -6  -1    0.04    0.07
  -5   6   1    0.01    0.06
   4  -6  -1    0.08    0.07
   4  -6  -1    0.14    0.10
  -4   6   1    0.05    0.11
   3  -6  -1    0.39    0.10
   3  -6  -1    0.42    0.13
  -3   6   1    0.27    0.14
   2  -6  -1    4.96    0.37
   2  -6  -1    4.46    0.32
   2  -6  -1    4.48    0.32
  -2   6   1    4.48    0.39
  -2   6   1    5.09    0.48
   1  -6  -1    4.85    0.37
   1  -6  -1    4.74    0.33
  -1   6   1    4.53    0.39
  -1   6   1    5.03    0.49
   0  -6  -1   13.19    0.78
   0  -6  -1   13.56    0.81
   0   6   1   12.57    0.71
   0   6   1   12.49    0.81
  -1  -6  -1   20.99    1.50
  -1  -6  -1   20.16    1.21
   1   6   1   21.65    1.05
  -2  -6  -1    8.43    0.72
  -2  -6  -1    8.15    0.50
   2   6   1    7.16    0.46
   2   6   1    7.91    0.56
   2   6   1    8.25    0.49
  -3  -6  -1    4.85    0.38
  -3  -6  -1    5.45    0.35
   3   6   1    5.35    0.34
   3   6   1    4.25    0.38
  -4  -6  -1    5.40    0.37
  -4  -6  -1    6.28    0.43
   4   6   1    5.28    0.42
   4   6   1    5.38    0.36
  -5  -6  -1    1.33    0.20
   5   6   1    0.90    0.17
  -6  -6  -1    0.05    0.09
  -6  -6  -1    0.04    0.10
   6   6   1   -0.09    0.10
  -7  -6  -1    0.39    0.12
   7   6   1    0.32    0.11
   4  -7  -1    2.32    0.19
   3  -7  -1    0.26    0.10
   3  -7  -1    0.18    0.08
  -3   7   1    0.28    0.11
   2  -7  -1    2.47    0.21
   2  -7  -1    1.99    0.24
  -2   7   1    2.62    0.27
  -2   7   1    2.43    0.32
   1  -7  -1   30.62    1.46
   1  -7  -1   31.03    1.74
   1  -7  -1   28.74    1.70
  -1   7   1   28.67    1.71
  -1   7   1   29.22    2.05
   0  -7  -1    7.76    0.53
   0  -7  -1    7.25    0.49
   0   7   1    7.97    0.53
   0   7   1    8.05    0.68
  -1  -7  -1    9.23    0.62
  -1  -7  -1    9.87    0.59
   1   7   1    9.04    0.53
   1   7   1    9.31    0.78
   1   7   1    9.37    0.62
  -2  -7  -1    2.21    0.20
  -2  -7  -1    2.49    0.25
  -2  -7  -1    2.37    0.22
   2   7   1    2.47    0.22
   2   7   1    1.99    0.24
  -3  -7  -1    6.45    0.42
  -3  -7  -1    6.62    0.48
  -3  -7  -1    6.58    0.39
   3   7   1    5.95    0.46
   3   7   1    6.46    0.41
  -4  -7  -1    0.70    0.15
  -4  -7  -1    0.59    0.11
  -4  -7  -1    0.70    0.14
   4   7   1    0.50    0.11
   4   7   1    0.57    0.14
  -5  -7  -1    2.20    0.21
  -5  -7  -1    1.99    0.24
   5   7   1    2.43    0.20
   5   7   1    2.14    0.24
  -6  -7  -1    7.79    0.42
  -6  -7  -1    7.11    0.51
   6   7   1    7.69    0.50
  -7  -7  -1    0.24    0.08
   7   7   1    0.22    0.08
   2  -8  -1    0.01    0.07
   2  -8  -1    0.00    0.06
  -2   8   1    0.14    0.11
   1  -8  -1    9.63    0.50
   1  -8  -1    8.36    0.58
  -1   8   1    9.12    0.73
   0  -8  -1    2.08    0.21
   0  -8  -1    2.01    0.22
   0   8   1    1.99    0.29
   0   8   1    2.09    0.22
  -1  -8  -1    0.31    0.08
  -1  -8  -1    0.38    0.11
   1   8   1    0.40    0.12
   1   8   1    0.31    0.17
  -2  -8  -1    0.44    0.12
  -2  -8  -1    0.49    0.12
  -2  -8  -1    0.43    0.09
   2   8   1    0.32    0.12
   2   8   1    0.43    0.17
   2   8   1    0.36    0.11
  -3  -8  -1   -0.03    0.06
  -3  -8  -1    0.08    0.09
  -3  -8  -1   -0.01    0.09
   3   8   1    0.05    0.13
   3   8   1    0.11    0.10
   3   8   1    0.06    0.10
  -4  -8  -1    1.72    0.21
  -4  -8  -1    1.94    0.19
   4   8   1    1.89    0.21
   4   8   1    1.88    0.19
  -5  -8  -1    2.04    0.22
  -5  -8  -1    2.12    0.20
   5   8   1    1.93    0.18
  -6  -8  -1    2.44    0.18
  -6  -8  -1    2.17    0.20
   0  -9  -1    1.23    0.14
   0  -9  -1    0.87    0.10
   0   9   1    1.02    0.18
  -1  -9  -1    0.02    0.07
  -1  -9  -1    0.02    0.06
   1   9   1    0.03    0.11
  -2  -9  -1    2.52    0.22
   2   9   1    2.35    0.30
  -3  -9  -1    5.39    0.30
  -3  -9  -1    5.74    0.38
   3   9   1    5.20    0.46
  -4  -9  -1    0.25    0.08
  -4  -9  -1    0.12    0.07
   4   9  -2    6.74    0.37
  -4  -9   2    6.26    0.34
   3   9  -2    0.52    0.10
   2   9  -2    8.65    0.66
   1   9  -2    0.38    0.13
   0   9  -2    0.17    0.10
   0  -9   2    0.22    0.06
  -6  -8   2   -0.02    0.06
   5   8  -2    9.14    0.47
   5   8  -2    9.53    0.50
  -5  -8   2    7.91    0.54
  -5  -8   2    9.41    0.47
   4   8  -2   17.83    0.84
   4   8  -2   15.77    0.78
  -4  -8   2   15.13    0.94
  -4  -8   2   15.50    0.78
   3   8  -2    0.82    0.13
   3   8  -2    0.67    0.13
  -3  -8   2    1.17    0.15
  -3  -8   2    0.99    0.12
   2   8  -2   16.82    0.93
   2   8  -2   17.56    0.89
   2   8  -2   18.46    1.31
  -2  -8   2   19.11    1.06
   1   8  -2    1.37    0.16
   1   8  -2    1.43    0.26
  -1  -8   2    1.18    0.14
   0   8  -2    0.06    0.09
   0   8  -2    0.07    0.13
   0  -8   2   -0.02    0.05
  -1   8  -2    2.55    0.21
  -1   8  -2    2.57    0.33
   1  -8   2    2.46    0.20
   1  -8   2    2.53    0.20
  -2   8  -2    1.47    0.21
   2  -8   2    1.54    0.13
  -7  -7   2    7.64    0.48
   6   7  -2    6.18    0.36
  -6  -7   2    6.39    0.43
   5   7  -2    1.67    0.18
   5   7  -2    2.08    0.20
  -5  -7   2    1.86    0.21
  -5  -7   2    1.88    0.18
   4   7  -2    0.69    0.14
   4   7  -2    0.65    0.14
  -4  -7   2    0.97    0.13
   3   7  -2    2.55    0.23
   3   7  -2    2.47    0.24
  -3  -7   2    2.14    0.20
   2   7  -2    0.10    0.09
   2   7  -2    0.29    0.16
   2   7  -2    0.18    0.11
  -2  -7   2    0.14    0.06
   1   7  -2    4.88    0.33
   1   7  -2    4.71    0.33
   1   7  -2    5.17    0.51
  -1  -7   2    5.20    0.34
   0   7  -2   16.37    0.81
   0   7  -2   16.02    1.21
   0  -7   2   15.89    0.95
  -1   7  -2    5.68    0.56
  -1   7  -2    5.96    0.38
   1  -7   2    6.02    0.39
  -2   7  -2    2.31    0.22
  -2   7  -2    2.81    0.35
   2  -7   2    2.07    0.22
   2  -7   2    2.63    0.20
   2  -7   2    2.66    0.21
  -3   7  -2    0.14    0.08
   3  -7   2    0.07    0.07
   7   6  -2    0.48    0.10
  -7  -6   2    0.55    0.11
   6   6  -2   -0.03    0.08
  -6  -6   2    0.09    0.09
  -6  -6   2    0.02    0.06
   5   6  -2    5.31    0.35
   5   6  -2    5.16    0.35
   5   6  -2    5.56    0.49
  -5  -6   2    5.51    0.37
  -5  -6   2    5.17    0.41
   4   6  -2    0.39    0.11
   4   6  -2    0.34    0.12
  -4  -6   2    0.49    0.09
   3   6  -2    6.69    0.38
   3   6  -2    6.29    0.39
  -3  -6   2    5.83    0.40
   2   6  -2    9.18    0.76
   2   6  -2    9.19    0.50
   2   6  -2    8.60    0.52
  -2  -6   2    9.75    0.57
   1   6  -2    0.56    0.12
   1   6  -2    0.49    0.13
   1   6  -2    0.57    0.17
   1   6  -2    0.65    0.13
  -1  -6   2    0.46    0.08
   0   6  -2    3.39    0.27
   0   6  -2    3.71    0.40
   0  -6   2    3.76    0.26
  -1   6  -2    3.54    0.28
  -1   6  -2    4.27    0.46
   1  -6   2    4.10    0.28
  -2   6  -2   41.67    2.81
  -2   6  -2   42.72    1.93
   2  -6   2   40.81    1.99
   2  -6   2   39.75    2.37
   2  -6   2   43.15    2.39
  -3   6  -2    1.15    0.23
  -3   6  -2    1.41    0.18
   3  -6   2    1.67    0.20
   3  -6   2    1.57    0.16
  -4   6  -2   16.63    0.81
   4  -6   2   16.53    1.00
   8   5  -2    0.39    0.07
  -8  -5   2    0.40    0.09
   7   5  -2    5.79    0.35
   7   5  -2    5.83    0.40
  -7  -5   2    6.23    0.43
   6   5  -2    3.00    0.36
   6   5  -2    3.03    0.28
   6   5  -2    3.27    0.26
  -6  -5   2    3.13    0.26
  -6  -5   2    3.99    0.32
   5   5  -2    6.28    0.44
   5   5  -2    5.78    0.37
   5   5  -2    6.37    0.38
   5   5  -2    5.84    0.38
  -5  -5   2    6.36    0.41
  -5  -5   2    6.20    0.46
   4   5  -2    0.43    0.12
   3   5  -2    6.92    0.43
  -3  -5   2    7.08    0.56
  -3  -5   2    6.85    0.44
   2   5  -2   20.21    1.02
  -2  -5   2   19.62    1.18
  -2  -5   2   22.32    1.41
   1   5  -2    6.32    0.40
  -1  -5   2    6.75    0.52
   0   5  -2    7.44    0.43
   0  -5   2    7.05    0.56
   0  -5   2    6.90    0.43
  -1   5  -2   13.34    0.69
   1  -5   2   11.53    0.93
   1  -5   2   13.42    0.76
  -2   5  -2    9.67    0.55
  -2   5  -2    9.74    0.81
   2  -5   2   10.57    0.62
  -3   5  -2    6.11    0.42
  -3   5  -2    5.61    0.37
   3  -5   2    5.27    0.37
   3  -5   2    5.54    0.41
  -4   5  -2    5.60    0.42
  -4   5  -2    5.83    0.37
   4  -5   2    5.61    0.39
   4  -5   2    6.58    0.44
  -5   5  -2    0.29    0.09
   5  -5   2    0.54    0.12
   8   4  -2    3.50    0.27
   8   4  -2    3.65    0.24
  -8  -4   2    3.83    0.29
   7   4  -2    0.17    0.11
   7   4  -2    0.07    0.09
  -7  -4   2    0.04    0.11
   6   4  -2    7.30    0.61
   6   4  -2    6.65    0.42
   6   4  -2    7.02    0.50
  -6  -4   2    6.42    0.51
   5   4  -2    6.92    0.40
   5   4  -2    6.19    0.39
   5   4  -2    6.35    0.47
  -5  -4   2    7.16    0.49
  -5  -4   2    6.53    0.44
   4   4  -2    3.13    0.26
  -4  -4   2    2.77    0.22
  -4  -4   2    3.02    0.33
   3   4  -2    2.17    0.20
  -3  -4   2    2.17    0.25
   2   4  -2   23.52    1.07
  -2  -4   2   21.69    1.50
   1   4  -2   44.73    2.11
  -1  -4   2   48.78    3.02
   0   4  -2   22.11    1.07
   0  -4   2   23.57    1.52
  -1   4  -2    1.97    0.19
   1  -4   2    2.55    0.26
   2  -4   2    2.52    0.33
   2  -4   2    2.99    0.21
  -3   4  -2   16.60    0.84
  -3   4  -2   15.98    1.01
   3  -4   2   17.51    0.99
  -4   4  -2    0.77    0.15
  -4   4  -2    0.37    0.14
   4  -4   2    0.58    0.13
   4  -4   2    0.65    0.11
  -5   4  -2    0.07    0.16
  -5   4  -2    0.14    0.11
  -5   4  -2    0.16    0.11
   5  -4   2    0.17    0.11
  -6   4  -2    0.38    0.16
  -6   4  -2    0.49    0.11
   6  -4   2    0.53    0.12
   8   3  -2    0.94    0.13
   8   3  -2    0.70    0.13
  -8  -3   2    0.84    0.14
   7   3  -2    1.34    0.20
  -7  -3   2    0.93    0.18
   6   3  -2    3.74    0.33
  -6  -3   2    3.31    0.33
  -6  -3   2    3.54    0.35
   4   3  -2   13.67    0.73
  -4  -3   2   14.16    0.86
  -4  -3   2   14.54    0.80
  -4  -3   2   15.74    1.06
   3   3  -2   15.66    0.80
  -3  -3   2   17.39    1.15
   2   3  -2   26.53    1.20
  -2  -3   2   25.31    1.70
   1   3  -2   66.46    2.75
  -1  -3   2   58.27    3.96
   0   3  -2   22.59    0.98
   0   3  -2   22.49    1.04
   0  -3   2   22.76    1.48
  -1   3  -2    5.69    0.32
  -1   3  -2    6.21    0.33
   1  -3   2    6.44    0.48
  -2   3  -2    0.42    0.10
   2  -3   2    0.42    0.15
   3  -3   2    1.75    0.29
   3  -3   2    1.34    0.13
  -4   3  -2    2.91    0.29
  -4   3  -2    2.48    0.24
   4  -3   2    2.63    0.26
   4  -3   2    2.79    0.22
  -5   3  -2    3.65    0.29
  -5   3  -2    3.53    0.33
   5  -3   2    3.47    0.32
  -6   3  -2    0.62    0.15
   6  -3   2    0.60    0.14
  -7   3  -2    0.22    0.08
  -7   3  -2    0.22    0.12
   7  -3   2    0.25    0.09
   8   2  -2    0.34    0.11
  -8  -2   2    0.42    0.11
   7   2  -2    4.12    0.37
  -7  -2   2    4.25    0.37
   6   2  -2   24.74    1.41
   6   2  -2   25.61    1.88
  -6  -2   2   22.99    1.42
  -6  -2   2   21.97    1.44
  -5  -2   2    6.11    0.41
  -5  -2   2    6.21    0.56
  -4  -2   2   21.06    1.46
  -4  -2   2   21.33    1.11
   3   2  -2    0.68    0.11
  -3  -2   2    0.60    0.11
  -3  -2   2    0.76    0.15
   2   2  -2    6.76    0.35
  -2  -2   2    6.41    0.47
   1   2  -2    0.47    0.08
   1   2  -2    0.52    0.06
  -1  -2   2    0.53    0.08
   0   2  -2   16.87    0.71
   0   2  -2   16.52    0.75
   0   2  -2   16.25    0.70
   0  -2   2   16.27    1.07
  -1   2  -2   37.46    1.51
  -1   2  -2   34.33    1.61
   1  -2   2   37.55    2.35
  -2   2  -2    6.32    0.32
  -2   2  -2    5.91    0.31
   2  -2   2    6.53    0.51
  -3   2  -2    0.06    0.06
   3  -2   2   -0.03    0.12
   4  -2   2    1.04    0.25
   4  -2   2    0.72    0.10
  -5   2  -2   23.17    1.18
  -5   2  -2   24.31    1.45
   5  -2   2   24.75    1.50
   5  -2   2   25.45    1.46
  -6   2  -2   12.90    0.86
   6  -2   2   14.41    0.88
  -7   2  -2    0.12    0.11
  -7   2  -2    0.18    0.15
   7  -2   2    0.14    0.10
   8   1  -2    0.78    0.14
  -8  -1   2    1.04    0.14
   7   1  -2    6.19    0.47
  -7  -1   2    6.05    0.47
   6   1  -2   15.52    1.05
  -6  -1   2   18.26    1.09
  -6  -1   2   18.28    1.07
  -5  -1   2   27.02    1.97
  -5  -1   2   29.77    1.65
  -4  -1   2   20.03    1.13
  -4  -1   2   22.26    1.27
  -4  -1   2   23.25    1.51
   3   1  -2    1.86    0.24
  -3  -1   2    1.67    0.21
  -3  -1   2    1.47    0.16
   2   1  -2    8.14    0.65
   2   1  -2   10.05    0.46
   2   1  -2    9.02    0.39
  -2  -1   2    9.55    0.49
  -2  -1   2    9.34    0.64
   1   1  -2   -0.01    0.03
   1   1  -2   -0.02    0.05
   1   1  -2    0.05    0.04
  -1  -1   2    0.04    0.04
   0   1  -2   32.48    1.36
   0   1  -2   33.64    1.36
   0   1  -2   33.30    1.46
   0  -1   2   33.53    2.09
   0  -1   2   32.60    2.09
  -1   1  -2   61.19    2.30
  -1   1  -2   59.02    2.30
  -1   1  -2   57.42    3.58
  -1   1  -2   55.40    2.46
   1  -1   2   49.38    3.59
  -2   1  -2   73.95    2.84
  -2   1  -2   69.92    3.04
  -2   1  -2   60.97    4.44
   2  -1   2   74.43    4.47
  -3   1  -2    6.74    0.35
   3  -1   2    7.81    0.60
   4  -1   2    0.71    0.22
   4  -1   2    0.55    0.16
   4  -1   2    0.48    0.08
  -5   1  -2    4.74    0.40
   5  -1   2    4.92    0.39
   5  -1   2    5.17    0.46
  -6   1  -2   24.64    1.43
   6  -1   2   23.61    1.44
   6  -1   2   23.79    1.47
  -7   1  -2    0.12    0.12
   7  -1   2    0.26    0.12
   8   0  -2   22.16    1.25
  -8   0   2   21.13    1.25
   7   0  -2    0.66    0.16
  -7   0   2    0.75    0.17
   6   0  -2   35.88    2.04
  -6   0   2   36.39    2.09
  -6   0   2   33.85    2.00
  -5   0   2   25.77    1.53
  -5   0   2   26.74    1.85
   4   0  -2   35.14    2.01
  -4   0   2   36.66    2.04
  -4   0   2   35.19    1.82
  -4   0   2   38.36    2.43
   3   0  -2  110.73    6.50
   3   0  -2  126.03    7.69
  -3   0   2  127.73    5.82
  -3   0   2  121.11    7.65
  -3   0   2  115.64    6.52
   2   0  -2    4.43    0.40
   2   0  -2    4.96    0.31
  -2   0   2    5.58    0.30
  -2   0   2    5.33    0.39
   1   0  -2  191.61   12.16
  -1   0   2  186.23    9.25
  -1   0   2  200.76   12.15
   0   0  -2    4.68    0.21
   0   0  -2    4.53    0.20
   0   0   2    4.39    0.24
   0   0   2    3.90    0.30
   0   0   2    4.53    0.23
  -1   0  -2    6.32    0.29
  -1   0  -2    6.21    0.28
   1   0   2    6.66    0.45
   1   0   2    6.39    0.33
  -2   0  -2    8.83    0.39
  -2   0  -2    8.50    0.50
  -2   0  -2    9.36    0.40
   2   0   2    9.43    0.65
   2   0   2    8.84    0.45
  -3   0  -2    0.31    0.12
  -3   0  -2    0.21    0.06
  -3   0  -2    0.22    0.06
   3   0   2    0.12    0.12
   3   0   2    0.20    0.09
  -4   0  -2    7.64    0.64
  -4   0  -2    8.38    0.48
   4   0   2    8.32    0.55
   4   0   2    8.04    0.69
   5   0   2    1.99    0.38
   5   0   2    1.81    0.25
  -6   0  -2   17.82    1.08
   6   0   2   17.12    1.11
   6   0   2   17.31    1.08
  -7   0  -2    2.65    0.30
   7   0   2    3.02    0.29
  -8   0  -2   -0.08    0.08
  -8   0  -2    0.06    0.10
   8   0   2    0.01    0.07
   7  -1  -2    0.20    0.12
  -7   1   2    0.08    0.11
   6  -1  -2   14.66    0.93
  -6   1   2   13.49    0.95
  -6   1   2   17.07    0.98
   5  -1  -2    0.12    0.10
   5  -1  -2    0.02    0.10
   5  -1  -2    0.24    0.11
   5  -1  -2    0.10    0.08
  -5   1   2    0.34    0.14
  -5   1   2    0.00    0.13
  -5   1   2    0.12    0.09
   4  -1  -2   17.48    1.26
   4  -1  -2   16.58    0.99
  -4   1   2   16.72    0.98
  -4   1   2   15.56    0.89
  -4   1   2   17.01    1.21
   3  -1  -2    0.05    0.12
   3  -1  -2    0.06    0.09
  -3   1   2   -0.08    0.07
  -3   1   2    0.12    0.08
  -3   1   2   -0.01    0.07
   2  -1  -2   21.05    1.38
   2  -1  -2   18.29    1.14
  -2   1   2   22.69    1.36
  -2   1   2   20.62    1.15
  -2   1   2   19.99    1.03
  -2   1   2   19.47    1.00
   1  -1  -2   15.09    1.13
  -1   1   2   18.34    0.85
  -1   1   2   15.73    1.12
  -1   1   2   18.26    0.84
   0  -1  -2   87.14    5.62
   0   1   2   86.82    4.23
   0   1   2   86.87    4.27
   0   1   2   94.09    5.62
  -1  -1  -2  473.11   19.93
  -1  -1  -2  527.94   31.25
   1   1   2  460.67   23.51
   1   1   2  546.92   31.29
   1   1   2  471.02   23.74
  -2  -1  -2  103.58    6.25
  -2  -1  -2   91.80    3.97
  -2  -1  -2   98.37    3.98
  -2  -1  -2   94.53    5.32
   2   1   2   95.64    4.70
   2   1   2  106.33    6.27
  -3  -1  -2    0.27    0.07
  -3  -1  -2    0.29    0.08
  -3  -1  -2    0.31    0.12
   3   1   2    0.22    0.13
   3   1   2    0.35    0.10
   3   1   2    0.31    0.09
  -4  -1  -2   44.85    2.33
  -4  -1  -2   37.78    2.78
   4   1   2   43.91    2.84
   4   1   2   41.99    2.36
  -5  -1  -2    3.17    0.25
  -5  -1  -2    2.96    0.36
   5   1   2    2.82    0.31
   5   1   2    3.43    0.49
  -6  -1  -2    1.61    0.24
   6   1   2    1.81    0.27
   6   1   2    1.39    0.20
  -7  -1  -2    2.59    0.32
   7   1   2    3.19    0.33
   7   1   2    3.15    0.30
  -8  -1  -2    0.22    0.11
   8   1   2    0.23    0.11
   7  -2  -2    4.67    0.35
  -7   2   2    4.39    0.35
   6  -2  -2    0.14    0.12
  -6   2   2    0.21    0.15
   5  -2  -2    1.40    0.21
   5  -2  -2    1.52    0.17
   5  -2  -2    1.75    0.23
   5  -2  -2    1.85    0.23
  -5   2   2    1.57    0.24
  -5   2   2    1.13    0.20
   4  -2  -2    3.49    0.33
   4  -2  -2    3.67    0.45
  -4   2   2    3.48    0.28
  -4   2   2    3.80    0.43
   3  -2  -2   12.75    0.74
   3  -2  -2   10.28    0.89
  -3   2   2   11.74    0.70
  -3   2   2   12.44    0.88
  -3   2   2   10.82    0.64
   2  -2  -2   43.22    2.15
   2  -2  -2   35.69    2.54
  -2   2   2   40.21    1.91
  -2   2   2   38.35    2.12
  -2   2   2   34.56    2.51
   1  -2  -2    6.99    0.42
   1  -2  -2    5.72    0.51
  -1   2   2    7.54    0.38
  -1   2   2    5.98    0.40
  -1   2   2    6.39    0.50
  -1   2   2    6.70    0.36
   0  -2  -2    0.49    0.13
   0   2   2    0.23    0.08
   0   2   2    0.15    0.07
   0   2   2    0.25    0.11
  -1  -2  -2  797.54   51.32
   1   2   2  775.91   38.65
   1   2   2  811.42   35.22
   1   2   2  870.80   51.35
   1   2   2  814.05   38.97
  -2  -2  -2   15.75    0.69
  -2  -2  -2   18.48    1.13
  -2  -2  -2   15.35    0.94
   2   2   2   15.72    0.93
   2   2   2   17.20    1.14
   2   2   2   16.48    0.74
   2   2   2   16.83    0.85
  -3  -2  -2    0.16    0.08
  -3  -2  -2    0.28    0.08
   3   2   2    0.08    0.13
   3   2   2    0.21    0.08
   3   2   2    0.18    0.09
  -4  -2  -2    2.24    0.20
  -4  -2  -2    2.05    0.26
   4   2   2    1.81    0.21
   4   2   2    1.83    0.32
  -5  -2  -2    3.04    0.39
  -5  -2  -2    3.56    0.28
   5   2   2    3.61    0.32
   5   2   2    2.89    0.46
  -6  -2  -2    0.00    0.07
  -6  -2  -2    0.00    0.13
  -6  -2  -2    0.17    0.12
   6   2   2    0.16    0.13
   6   2   2    0.01    0.14
   6   2   2    0.20    0.13
  -7  -2  -2    0.74    0.18
  -7  -2  -2    0.72    0.16
   7   2   2    0.67    0.16
   7   2   2    0.60    0.17
  -8  -2  -2    0.51    0.13
   8   2   2    0.33    0.12
  -7   3   2    1.28    0.16
   6  -3  -2    2.13    0.23
  -6   3   2    1.14    0.19
   5  -3  -2   15.82    1.02
   5  -3  -2   15.79    1.02
   5  -3  -2   16.92    0.85
  -5   3   2   17.70    1.06
   4  -3  -2    7.01    0.53
   4  -3  -2    6.76    0.41
   4  -3  -2    7.64    0.51
  -4   3   2    7.03    0.54
   3  -3  -2   -0.01    0.10
   3  -3  -2    0.37    0.18
  -3   3   2    0.12    0.06
  -3   3   2    0.17    0.09
   2  -3  -2   57.20    3.19
   2  -3  -2   58.73    3.79
  -2   3   2   56.82    2.84
  -2   3   2   57.80    3.15
   1  -3  -2   27.75    1.53
   1  -3  -2   27.12    1.83
  -1   3   2   25.20    1.80
  -1   3   2   27.50    1.34
  -1   3   2   27.45    1.37
  -1   3   2   26.75    1.50
   0  -3  -2   31.35    1.97
   0  -3  -2   27.93    1.66
   0   3   2   28.77    1.48
   0   3   2   33.41    1.97
   0   3   2   26.63    1.63
   0   3   2   30.24    1.47
  -1  -3  -2   48.86    3.57
   1   3   2   57.21    3.59
   1   3   2   61.28    2.70
   1   3   2   57.14    2.45
   1   3   2   50.52    3.02
   1   3   2   58.13    2.72
  -2  -3  -2  126.28    7.58
  -2  -3  -2  104.67    6.45
   2   3   2  120.95    5.71
   2   3   2  122.01    5.18
   2   3   2  120.03    6.44
   2   3   2  119.80    7.60
  -3  -3  -2    0.30    0.10
  -3  -3  -2    0.33    0.13
   3   3   2    0.24    0.15
   3   3   2    0.38    0.11
   3   3   2    0.48    0.10
  -4  -3  -2    2.71    0.30
  -4  -3  -2    1.71    0.21
   4   3   2    2.40    0.27
   4   3   2    2.32    0.21
   4   3   2    1.75    0.33
  -5  -3  -2    2.35    0.36
  -5  -3  -2    2.21    0.24
   5   3   2    2.56    0.24
  -6  -3  -2    2.13    0.25
  -6  -3  -2    1.87    0.22
   6   3   2    1.56    0.23
  -7  -3  -2   -0.14    0.10
  -7  -3  -2    0.02    0.11
   7   3   2    0.08    0.13
  -8  -3  -2    2.54    0.25
   8   3   2    2.87    0.26
   6  -4  -2    3.67    0.31
  -6   4   2    4.01    0.33
   5  -4  -2    8.08    0.56
   5  -4  -2    8.30    0.46
  -5   4   2    7.96    0.59
   4  -4  -2    0.04    0.09
   4  -4  -2   -0.17    0.12
   4  -4  -2   -0.01    0.10
  -4   4   2   -0.06    0.12
   3  -4  -2   16.28    1.06
   3  -4  -2   16.01    1.03
   3  -4  -2   17.37    0.86
  -3   4   2   17.66    0.96
  -3   4   2   17.97    0.87
  -3   4   2   16.49    1.04
   2  -4  -2    3.74    0.27
   2  -4  -2    4.28    0.46
   2  -4  -2    3.89    0.35
  -2   4   2    4.24    0.32
  -2   4   2    4.25    0.29
   1  -4  -2   74.63    5.21
   1  -4  -2   81.96    4.43
  -1   4   2   82.88    3.58
  -1   4   2   82.28    3.95
   0  -4  -2    0.22    0.13
   0  -4  -2    0.24    0.10
   0   4   2    0.16    0.08
   0   4   2    0.16    0.09
   0   4   2    0.15    0.04
   0   4   2    0.18    0.13
   0   4   2    0.16    0.09
  -1  -4  -2   68.84    3.48
  -1  -4  -2   65.46    4.06
   1   4   2   63.83    3.06
   1   4   2   59.79    3.38
   1   4   2   59.94    3.07
   1   4   2   57.11    4.05
   1   4   2   62.77    2.78
  -2  -4  -2   20.44    1.45
  -2  -4  -2   22.30    1.23
   2   4   2   20.43    0.98
   2   4   2   19.45    1.10
   2   4   2   19.94    1.16
   2   4   2   24.16    1.50
  -3  -4  -2   18.86    1.06
  -3  -4  -2   16.94    1.26
   3   4   2   17.47    0.98
   3   4   2   17.67    0.97
  -4  -4  -2    3.47    0.30
   4   4   2    3.26    0.33
  -5  -4  -2    6.16    0.50
  -5  -4  -2    8.07    0.54
   5   4   2    8.14    0.53
  -6  -4  -2   -0.03    0.10
  -6  -4  -2   -0.06    0.10
   6   4   2    0.04    0.11
  -7  -4  -2    0.36    0.13
   7   4   2    0.45    0.11
   7   4   2    0.27    0.13
  -8  -4  -2   15.74    0.99
   8   4   2   17.84    1.00
   8   4   2   16.92    0.79
   5  -5  -2    0.14    0.10
   5  -5  -2    0.07    0.07
  -5   5   2    0.10    0.13
   4  -5  -2    7.79    0.53
   4  -5  -2    7.93    0.44
  -4   5   2    6.58    0.55
   3  -5  -2    3.66    0.31
   3  -5  -2    3.65    0.38
   3  -5  -2    3.58    0.26
  -3   5   2    3.30    0.35
   2  -5  -2    0.86    0.19
   2  -5  -2    0.68    0.12
   2  -5  -2    0.89    0.16
  -2   5   2    0.31    0.11
  -2   5   2    0.73    0.17
  -2   5   2    0.51    0.14
   1  -5  -2   12.18    0.75
   1  -5  -2   13.37    1.01
  -1   5   2   12.48    0.67
  -1   5   2   12.88    0.74
   0  -5  -2   10.45    0.82
   0  -5  -2   10.19    0.61
   0   5   2    9.97    0.61
   0   5   2    9.88    0.55
  -1  -5  -2    1.95    0.31
  -1  -5  -2    2.18    0.18
   1   5   2    1.96    0.23
   1   5   2    2.39    0.21
  -2  -5  -2    2.83    0.21
  -2  -5  -2    2.64    0.34
   2   5   2    2.78    0.23
   2   5   2    2.57    0.26
  -3  -5  -2    0.02    0.11
  -3  -5  -2    0.18    0.07
   3   5   2    0.25    0.14
  -4  -5  -2    1.52    0.20
  -4  -5  -2    1.15    0.19
   4   5   2    1.28    0.20
  -5  -5  -2    2.88    0.30
  -5  -5  -2    2.25    0.26
   5   5   2    2.17    0.26
  -6  -5  -2    4.12    0.38
  -6  -5  -2    4.51    0.41
   6   5   2    5.34    0.41
  -7  -5  -2    4.76    0.38
   7   5   2    4.79    0.38
  -8  -5  -2   10.49    0.62
   8   5   2    9.81    0.62
   5  -6  -2    0.03    0.07
  -5   6   2    0.14    0.09
   4  -6  -2    0.01    0.09
   4  -6  -2    0.09    0.07
  -4   6   2    0.04    0.12
   3  -6  -2    1.18    0.18
   3  -6  -2    1.57    0.17
  -3   6   2    1.12    0.19
   2  -6  -2    1.27    0.15
   2  -6  -2    1.19    0.17
   2  -6  -2    1.71    0.26
  -2   6   2    1.39    0.21
   1  -6  -2    0.42    0.11
   1  -6  -2    0.34    0.08
   1  -6  -2    0.33    0.12
  -1   6   2    0.51    0.18
  -1   6   2    0.47    0.14
   0  -6  -2    8.00    0.52
   0  -6  -2    8.47    0.56
   0   6   2    8.73    0.58
  -1  -6  -2   10.60    0.78
  -1  -6  -2   11.67    0.72
   1   6   2   13.74    0.80
   1   6   2   11.72    0.65
   1   6   2   12.48    0.66
  -2  -6  -2    1.67    0.17
  -2  -6  -2    1.71    0.18
  -2  -6  -2    1.90    0.22
   2   6   2    1.51    0.25
   2   6   2    1.33    0.19
   2   6   2    1.77    0.22
   2   6   2    1.69    0.18
  -3  -6  -2    3.98    0.28
  -3  -6  -2    4.12    0.28
  -3  -6  -2    3.41    0.32
   3   6   2    3.52    0.33
   3   6   2    3.86    0.28
  -4  -6  -2    2.56    0.23
  -4  -6  -2    2.54    0.31
  -4  -6  -2    2.61    0.27
   4   6   2    2.80    0.23
   4   6   2    2.28    0.27
  -5  -6  -2    0.23    0.10
  -5  -6  -2    0.18    0.11
  -5  -6  -2    0.18    0.14
   5   6   2    0.17    0.12
  -6  -6  -2    0.16    0.10
  -6  -6  -2    0.30    0.12
   6   6   2    0.10    0.11
  -7  -6  -2    0.61    0.13
   7   6   2    0.75    0.14
   3  -7  -2    4.98    0.31
   3  -7  -2    5.22    0.36
  -3   7   2    4.28    0.36
   2  -7  -2    2.82    0.23
   2  -7  -2    2.72    0.26
  -2   7   2    2.85    0.30
   1  -7  -2    3.19    0.26
   1  -7  -2    3.54    0.31
  -1   7   2    3.68    0.41
  -1   7   2    3.41    0.34
   0  -7  -2    7.56    0.52
   0   7   2    7.24    0.52
   0   7   2    7.00    0.65
  -1  -7  -2    1.03    0.14
  -1  -7  -2    1.02    0.17
   1   7   2    0.92    0.14
   1   7   2    0.95    0.18
  -2  -7  -2    4.66    0.33
  -2  -7  -2    5.05    0.39
  -2  -7  -2    4.72    0.32
   2   7   2    4.60    0.39
   2   7   2    4.75    0.33
  -3  -7  -2   15.23    0.96
  -3  -7  -2   15.13    0.77
   3   7   2   15.29    0.81
   3   7   2   15.52    0.95
  -4  -7  -2    5.64    0.35
  -4  -7  -2    5.42    0.43
   4   7   2    5.70    0.36
   4   7   2    5.43    0.44
  -5  -7  -2    0.16    0.11
  -5  -7  -2    0.17    0.10
   5   7   2    0.18    0.08
   5   7   2    0.07    0.11
  -6  -7  -2    0.13    0.10
  -6  -7  -2    0.11    0.09
   6   7   2    0.05    0.10
  -7  -7  -2    2.54    0.21
   7   7   2    2.08    0.20
   2  -8  -2    2.67    0.20
   2  -8  -2    2.71    0.23
  -2   8   2    2.54    0.22
   1  -8  -2   29.66    1.39
   1  -8  -2   29.54    1.67
  -1   8   2   28.84    1.96
  -1   8   2   26.69    1.63
   0  -8  -2    7.43    0.43
   0  -8  -2    7.23    0.51
   0   8   2    7.91    0.65
   0   8   2    7.67    0.52
  -1  -8  -2    4.31    0.35
   1   8   2    4.60    0.47
   1   8   2    4.66    0.36
  -2  -8  -2    1.31    0.19
  -2  -8  -2    1.88    0.18
   2   8   2    1.98    0.23
   2   8   2    1.67    0.28
  -3  -8  -2    3.66    0.33
  -3  -8  -2    4.20    0.28
   3   8   2    4.12    0.43
   3   8   2    3.65    0.33
  -4  -8  -2    1.68    0.18
  -4  -8  -2    1.21    0.18
   4   8   2    1.41    0.19
  -5  -8  -2    4.55    0.28
  -5  -8  -2    4.32    0.34
   5   8   2    4.29    0.33
  -6  -8  -2    2.78    0.22
  -6  -8  -2    2.95    0.20
   6   8   2    2.46    0.21
   0  -9  -2    1.17    0.13
   0  -9  -2    0.77    0.10
   0   9   2    0.55    0.14
  -1  -9  -2    0.02    0.06
  -1  -9  -2    0.07    0.07
   1   9   2    0.07    0.11
  -2  -9  -2    0.78    0.13
  -2  -9  -2    0.88    0.11
   2   9   2    0.93    0.19
  -3  -9  -2    0.34    0.09
  -3  -9  -2    0.36    0.09
   3   9   2    0.33    0.13
  -4  -9  -2    0.44    0.09
  -4  -9  -2    0.27    0.08
   4   9  -3    0.62    0.09
   3   9  -3    3.97    0.26
   3   9  -3    4.13    0.24
   2   9  -3   14.59    1.06
   2   9  -3   15.96    0.73
   1   9  -3    0.74    0.10
   1   9  -3    0.76    0.16
   0   9  -3    0.79    0.15
   0  -9   3    0.88    0.09
   5   8  -3    4.58    0.28
   5   8  -3    4.61    0.29
  -5  -8   3    4.62    0.28
   4   8  -3    0.97    0.13
   4   8  -3    1.63    0.17
  -4  -8   3    1.37    0.14
  -4  -8   3    1.07    0.13
   3   8  -3    0.88    0.13
   3   8  -3    1.08    0.15
  -3  -8   3    0.78    0.11
   2   8  -3    5.02    0.34
   2   8  -3    5.10    0.34
   2   8  -3    5.84    0.51
  -2  -8   3    5.43    0.36
   1   8  -3    6.90    0.60
   1   8  -3    6.48    0.39
  -1  -8   3    6.78    0.43
   0   8  -3   13.48    0.70
   0   8  -3   14.95    1.05
   0  -8   3   13.49    0.82
  -1   8  -3    0.58    0.16
  -1   8  -3    0.46    0.10
   1  -8   3    0.42    0.09
   1  -8   3    0.48    0.08
  -2   8  -3   -0.04    0.09
  -2   8  -3    0.08    0.06
   6   7  -3    5.87    0.34
   6   7  -3    5.99    0.34
  -6  -7   3    5.98    0.40
   5   7  -3    7.81    0.45
   5   7  -3    7.96    0.47
  -5  -7   3    8.14    0.51
   4   7  -3   26.10    1.28
   4   7  -3   26.33    1.35
  -4  -7   3   27.88    1.55
   3   7  -3    1.61    0.19
   3   7  -3    1.76    0.19
  -3  -7   3    1.26    0.14
   2   7  -3    9.45    0.77
   2   7  -3    9.32    0.54
   2   7  -3    9.50    0.53
  -2  -7   3    9.51    0.58
   1   7  -3   13.70    0.77
   1   7  -3   15.36    1.11
   1   7  -3   15.19    0.76
  -1  -7   3   14.34    0.87
   0   7  -3    3.11    0.41
   0   7  -3    3.72    0.28
   0  -7   3    3.17    0.24
  -1   7  -3    1.84    0.20
  -1   7  -3    1.38    0.25
   1  -7   3    1.63    0.16
  -2   7  -3    0.02    0.09
  -2   7  -3    0.13    0.13
   2  -7   3    0.21    0.07
  -3   7  -3    9.20    0.48
  -3   7  -3    8.97    0.69
   7   6  -3    1.32    0.14
  -7  -6   3    1.10    0.14
   6   6  -3   -0.06    0.14
   6   6  -3    0.36    0.10
  -6  -6   3    0.31    0.10
  -6  -6   3    0.29    0.08
   5   6  -3    4.32    0.31
   5   6  -3    3.95    0.30
   5   6  -3    4.21    0.43
  -5  -6   3    4.24    0.31
   4   6  -3   10.08    0.55
   4   6  -3    9.58    0.53
  -4  -6   3    9.36    0.60
   3   6  -3    4.73    0.33
   3   6  -3    4.75    0.33
  -3  -6   3    4.98    0.33
   2   6  -3   45.88    2.08
   2   6  -3   43.68    2.19
  -2  -6   3   45.96    2.55
   1   6  -3    4.32    0.45
   1   6  -3    4.40    0.31
   1   6  -3    4.03    0.30
  -1  -6   3    4.71    0.30
   0   6  -3   91.27    4.12
   0   6  -3   90.42    5.98
   0  -6   3   92.67    5.12
  -1   6  -3   21.17    1.05
  -1   6  -3   21.14    1.55
   1  -6   3   22.24    1.25
  -2   6  -3   53.52    2.46
  -2   6  -3   54.97    3.58
   2  -6   3   52.60    3.03
  -3   6  -3   22.79    1.10
  -3   6  -3   23.47    1.60
   3  -6   3   22.79    1.36
   3  -6   3   21.98    1.32
  -4   6  -3   11.86    0.61
   4  -6   3   11.92    0.73
   7   5  -3    0.86    0.12
  -7  -5   3    1.04    0.16
   6   5  -3    9.33    0.96
   6   5  -3   11.77    0.70
   6   5  -3   11.59    0.61
   6   5  -3   11.58    0.62
  -6  -5   3   13.18    0.76
  -6  -5   3   11.81    0.71
   5   5  -3    0.30    0.11
   5   5  -3    0.35    0.11
   5   5  -3    0.61    0.14
  -5  -5   3    0.41    0.10
  -5  -5   3    0.52    0.13
   4   5  -3    2.18    0.21
   4   5  -3    2.15    0.20
   4   5  -3    2.13    0.21
  -4  -5   3    2.23    0.19
   3   5  -3   14.15    0.73
  -3  -5   3   13.05    0.79
   2   5  -3   14.94    0.78
   1   5  -3   18.09    0.91
   0   5  -3   20.03    0.99
  -1   5  -3    5.91    0.39
   1  -5   3    5.89    0.37
  -2   5  -3   30.02    2.07
  -2   5  -3   30.49    1.43
   2  -5   3   29.62    1.72
  -3   5  -3   28.68    1.86
  -3   5  -3   28.22    1.28
   3  -5   3   22.86    1.55
   3  -5   3   27.12    1.54
  -4   5  -3   15.41    0.79
   4  -5   3   14.88    0.95
   4  -5   3   15.98    0.92
  -5   5  -3    0.78    0.13
   5  -5   3    0.99    0.14
   8   4  -3    0.03    0.06
  -8  -4   3    0.11    0.07
   7   4  -3    2.98    0.24
   7   4  -3    2.87    0.26
  -7  -4   3    2.91    0.29
   6   4  -3    3.03    0.28
   6   4  -3    3.08    0.24
   6   4  -3    2.93    0.26
  -6  -4   3    2.93    0.30
  -6  -4   3    2.94    0.25
   5   4  -3    8.10    0.58
   5   4  -3    8.96    0.50
   5   4  -3   10.54    0.79
   5   4  -3    9.04    0.51
  -5  -4   3    7.91    0.60
  -5  -4   3    9.26    0.57
   4   4  -3    6.33    0.40
  -4  -4   3    5.83    0.39
  -4  -4   3    5.94    0.52
  -4  -4   3    6.16    0.42
   3   4  -3    0.30    0.10
  -3  -4   3    0.32    0.11
   2   4  -3    5.37    0.33
  -2  -4   3    4.56    0.37
   1   4  -3    0.52    0.11
   0   4  -3    3.42    0.24
  -1   4  -3   14.86    0.72
   1  -4   3   14.06    1.00
   2  -4   3    2.95    0.21
   2  -4   3    2.91    0.34
  -3   4  -3   59.60    2.63
  -3   4  -3   52.19    3.19
  -3   4  -3   56.85    3.80
  -3   4  -3   57.75    4.48
   3  -4   3   60.87    3.24
  -4   4  -3    5.30    0.39
  -4   4  -3    5.78    0.36
  -4   4  -3    5.35    0.60
   4  -4   3    4.95    0.36
   4  -4   3    4.76    0.39
  -5   4  -3    0.25    0.11
  -5   4  -3    0.30    0.12
  -5   4  -3    0.18    0.17
   5  -4   3    0.21    0.11
  -6   4  -3    2.60    0.35
   6  -4   3    3.11    0.26
   8   3  -3    1.15    0.14
   8   3  -3    1.06    0.12
  -8  -3   3    0.94    0.14
   7   3  -3    1.46    0.18
   7   3  -3    0.98    0.17
  -7  -3   3    0.97    0.18
   5   3  -3    3.08    0.32
   5   3  -3    2.60    0.27
   5   3  -3    2.89    0.22
  -5  -3   3    2.75    0.24
  -5  -3   3    2.69    0.28
  -5  -3   3    2.45    0.26
   4   3  -3    1.00    0.16
  -4  -3   3    1.56    0.19
  -4  -3   3    0.95    0.13
  -4  -3   3    1.29    0.21
   3   3  -3    5.36    0.34
  -3  -3   3    5.27    0.43
   2   3  -3    3.99    0.26
  -2  -3   3    3.93    0.31
   1   3  -3   23.38    1.10
  -1  -3   3   24.05    1.53
   0   3  -3   26.45    1.10
   0   3  -3   25.36    1.16
   0  -3   3   24.61    1.63
  -1   3  -3   15.06    0.68
  -1   3  -3   15.29    0.71
   1  -3   3   14.02    1.00
  -2   3  -3   21.15    0.97
   2  -3   3   22.36    1.49
  -3   3  -3    0.00    0.09
   3  -3   3    0.11    0.05
   3  -3   3    0.03    0.13
  -4   3  -3    2.66    0.23
  -4   3  -3    2.87    0.28
   4  -3   3    3.24    0.27
   4  -3   3    2.68    0.23
  -5   3  -3    4.37    0.32
  -5   3  -3    4.38    0.36
   5  -3   3    4.34    0.37
  -6   3  -3    1.50    0.29
  -6   3  -3    1.20    0.18
   6  -3   3    1.41    0.18
  -7   3  -3    2.03    0.28
   7  -3   3    2.22    0.19
   8   2  -3    0.42    0.09
   8   2  -3    0.25    0.10
  -8  -2   3    0.36    0.11
   7   2  -3    0.45    0.14
  -7  -2   3    0.24    0.12
   6   2  -3   10.83    0.71
   6   2  -3   10.64    0.59
  -6  -2   3   11.82    0.75
  -6  -2   3   10.90    0.74
  -5  -2   3    2.79    0.34
  -5  -2   3    2.88    0.25
  -5  -2   3    2.68    0.26
  -4  -2   3    1.88    0.24
  -4  -2   3    1.17    0.15
  -4  -2   3    1.78    0.18
   3   2  -3    8.66    0.48
  -3  -2   3    8.83    0.52
  -3  -2   3    9.59    0.66
   2   2  -3   68.36    3.05
  -2  -2   3   69.69    4.39
   1   2  -3    3.96    0.21
   1   2  -3    4.51    0.24
   1   2  -3    3.80    0.20
  -1  -2   3    4.14    0.28
   0   2  -3    3.32    0.20
   0   2  -3    3.07    0.19
   0   2  -3    3.18    0.18
   0  -2   3    2.92    0.21
  -1   2  -3   99.92    3.86
  -1   2  -3   90.53    4.13
  -1   2  -3   96.60    3.85
   1  -2   3   91.98    6.00
  -2   2  -3    2.93    0.20
   2  -2   3    2.89    0.30
  -3   2  -3    0.00    0.06
   3  -2   3    0.04    0.11
   4  -2   3    2.79    0.21
   4  -2   3    2.45    0.40
  -5   2  -3   22.89    1.29
  -5   2  -3   22.78    1.07
   5  -2   3   21.26    1.31
   5  -2   3   20.27    1.27
  -6   2  -3    0.52    0.15
   6  -2   3    0.58    0.15
  -7   2  -3    7.86    0.49
  -7   2  -3    6.89    0.68
   7  -2   3    7.15    0.49
   8   1  -3    0.05    0.10
  -8  -1   3   -0.04    0.08
   7   1  -3    0.08    0.11
  -7  -1   3   -0.05    0.11
   6   1  -3   20.40    1.01
   6   1  -3   19.55    1.20
  -6  -1   3   19.60    1.24
  -6  -1   3   20.29    1.22
  -5  -1   3    9.24    0.61
  -5  -1   3    8.25    0.73
  -4  -1   3    5.80    0.36
  -4  -1   3    5.06    0.46
  -4  -1   3    4.80    0.38
  -3  -1   3    8.26    0.59
  -3  -1   3    7.40    0.45
   2   1  -3   48.84    2.07
   2   1  -3   51.21    2.26
  -2  -1   3   51.17    2.49
  -2  -1   3   52.09    3.25
   1   1  -3   78.38    3.33
   1   1  -3   74.43    3.08
   1   1  -3   70.74    3.07
  -1  -1   3   78.14    4.80
  -1  -1   3   78.62    3.68
   0   1  -3    6.67    0.34
   0   1  -3    7.08    0.32
   0   1  -3    7.30    0.33
   0  -1   3    7.15    0.46
   0  -1   3    7.52    0.46
  -1   1  -3    3.33    0.17
  -1   1  -3    2.96    0.17
  -1   1  -3    2.70    0.16
   1  -1   3    3.04    0.24
   1  -1   3    2.75    0.17
  -2   1  -3   24.92    1.06
  -2   1  -3   24.63    1.06
   2  -1   3   25.21    1.66
  -3   1  -3   18.70    0.86
   3  -1   3   20.70    1.38
   4  -1   3    1.81    0.31
   4  -1   3    1.58    0.15
  -5   1  -3    0.11    0.11
  -5   1  -3    0.01    0.09
   5  -1   3    0.08    0.10
   5  -1   3    0.00    0.16
  -6   1  -3    4.48    0.39
   6  -1   3    4.59    0.38
   6  -1   3    3.39    0.42
  -7   1  -3    0.46    0.14
  -7   1  -3    0.28    0.17
   7  -1   3    0.52    0.14
   8   0  -3    0.64    0.12
   7   0  -3    4.72    0.38
  -7   0   3    4.96    0.39
   6   0  -3    5.81    0.35
  -6   0   3    5.60    0.43
  -6   0   3    4.97    0.45
   5   0  -3    7.28    0.44
   5   0  -3    7.75    0.53
  -5   0   3    8.55    0.57
  -5   0   3    7.38    0.54
  -4   0   3   11.83    0.76
  -4   0   3   12.17    0.70
  -4   0   3   13.29    0.94
   3   0  -3   15.10    0.80
   3   0  -3   15.05    1.05
  -3   0   3   13.46    0.77
  -3   0   3   14.03    1.01
   2   0  -3    8.33    0.69
   2   0  -3    9.43    0.43
  -2   0   3   10.33    0.53
  -2   0   3   10.42    0.68
   1   0  -3    0.27    0.06
   1   0  -3    0.35    0.04
   1   0  -3    0.49    0.11
  -1   0   3    0.42    0.09
  -1   0   3    0.35    0.08
   0   0  -3  172.72    6.92
   0   0  -3  177.00    6.93
   0   0   3  171.96    8.25
   0   0   3  159.06   10.84
   0   0   3  179.72    8.18
  -1   0  -3    6.50    0.31
  -1   0  -3    6.50    0.32
  -1   0  -3    7.13    0.48
   1   0   3    7.31    0.49
   1   0   3    6.96    0.36
  -2   0  -3    4.49    0.23
  -2   0  -3    4.90    0.24
  -2   0  -3    4.86    0.37
   2   0   3    4.47    0.26
   2   0   3    4.32    0.38
  -3   0  -3    0.27    0.07
  -3   0  -3    0.19    0.12
  -3   0  -3    0.35    0.08
   3   0   3    0.26    0.13
   4   0   3   21.15    1.30
   4   0   3   23.15    1.59
   5   0   3    5.54    0.47
   5   0   3    5.26    0.42
  -6   0  -3    3.75    0.36
   6   0   3    4.31    0.43
   6   0   3    3.70    0.34
  -7   0  -3    1.37    0.21
  -7   0  -3    1.27    0.27
   7   0   3    1.62    0.22
  -8   0  -3    1.82    0.20
   8   0   3    2.00    0.20
   7  -1  -3   -0.04    0.10
  -7   1   3   -0.02    0.10
  -7   1   3    0.07    0.11
   6  -1  -3    1.34    0.16
  -6   1   3    1.57    0.18
  -6   1   3    1.77    0.25
   5  -1  -3    0.08    0.11
   5  -1  -3    0.05    0.08
  -5   1   3    0.20    0.11
  -5   1   3    0.22    0.14
   4  -1  -3    0.77    0.23
   4  -1  -3    0.88    0.14
  -4   1   3    0.82    0.14
  -4   1   3    0.99    0.16
  -4   1   3    0.83    0.21
   3  -1  -3   34.65    2.18
   3  -1  -3   33.86    1.78
  -3   1   3   30.32    1.80
  -3   1   3   28.26    2.12
  -3   1   3   32.92    1.62
   2  -1  -3   28.13    1.61
   2  -1  -3   34.10    1.96
  -2   1   3   26.33    1.91
  -2   1   3   29.46    1.44
  -2   1   3   28.51    1.45
  -2   1   3   28.38    1.62
   1  -1  -3   34.36    1.90
   1  -1  -3   31.09    2.25
  -1   1   3   34.15    1.69
  -1   1   3   37.58    2.25
  -1   1   3   36.15    1.71
   0  -1  -3    0.21    0.10
   0  -1  -3    0.35    0.07
   0   1   3    0.36    0.08
   0   1   3    0.37    0.10
   0   1   3    0.38    0.07
  -1  -1  -3  840.00   34.91
  -1  -1  -3  857.80   54.67
   1   1   3 1000.00   54.79
   1   1   3  789.32   41.55
   1   1   3  855.95   41.17
  -2  -1  -3    2.19    0.13
  -2  -1  -3    2.17    0.16
  -2  -1  -3    2.25    0.15
  -2  -1  -3    2.41    0.24
   2   1   3    2.22    0.16
   2   1   3    2.14    0.25
  -3  -1  -3   41.31    2.74
  -3  -1  -3   43.28    1.75
  -3  -1  -3   43.10    2.30
   3   1   3   43.66    2.34
   3   1   3   42.68    2.05
   3   1   3   37.21    2.76
  -4  -1  -3   17.18    0.94
  -4  -1  -3   15.23    1.18
   4   1   3   17.11    1.01
   4   1   3   16.64    1.23
   5   1   3    0.34    0.20
   5   1   3    0.32    0.15
  -6  -1  -3    3.75    0.35
   6   1   3    3.41    0.40
   6   1   3    3.64    0.34
  -7  -1  -3   17.78    1.09
   7   1   3   17.52    1.09
  -8  -1  -3    0.16    0.09
   8   1   3   -0.01    0.08
   7  -2  -3    2.22    0.23
  -7   2   3    2.07    0.24
   6  -2  -3   -0.05    0.08
   6  -2  -3   -0.09    0.11
  -6   2   3    0.02    0.14
  -6   2   3    0.04    0.12
   5  -2  -3    1.73    0.18
   5  -2  -3    2.35    0.26
   5  -2  -3    1.77    0.21
   5  -2  -3    2.07    0.25
  -5   2   3    2.02    0.26
  -5   2   3    1.67    0.26
  -5   2   3    1.88    0.20
   4  -2  -3    0.54    0.14
   4  -2  -3    0.48    0.23
  -4   2   3    0.56    0.13
  -4   2   3    0.67    0.13
  -4   2   3    0.53    0.19
   3  -2  -3    0.12    0.09
   3  -2  -3    0.13    0.14
  -3   2   3    0.08    0.08
  -3   2   3    0.14    0.08
  -3   2   3    0.06    0.11
   2  -2  -3   28.95    1.58
   2  -2  -3   29.65    1.91
  -2   2   3   27.22    1.42
  -2   2   3   28.82    1.88
  -2   2   3   25.08    1.56
  -2   2   3   28.52    1.39
   1  -2  -3    5.78    0.36
   1  -2  -3    5.28    0.45
  -1   2   3    5.44    0.44
  -1   2   3    5.15    0.31
  -1   2   3    4.88    0.34
  -1   2   3    5.02    0.32
   0  -2  -3    1.01    0.18
   0  -2  -3    0.99    0.12
   0   2   3    0.93    0.11
   0   2   3    1.47    0.13
   0   2   3    1.27    0.18
  -1  -2  -3  678.85   29.00
  -1  -2  -3  754.66   45.49
  -1  -2  -3  658.38   38.82
   1   2   3  711.50   34.23
   1   2   3  708.15   34.57
   1   2   3  820.71   45.61
  -2  -2  -3    0.10    0.10
  -2  -2  -3   -0.07    0.04
  -2  -2  -3    0.01    0.06
   2   2   3   -0.03    0.03
   2   2   3    0.45    0.09
   2   2   3   -0.04    0.11
   2   2   3   -0.01    0.07
  -3  -2  -3    0.08    0.10
  -3  -2  -3    0.18    0.07
  -3  -2  -3    0.05    0.06
   3   2   3    0.16    0.13
   3   2   3    0.14    0.09
   3   2   3    0.29    0.09
  -4  -2  -3    0.80    0.13
  -4  -2  -3    0.92    0.13
  -4  -2  -3    0.88    0.19
   4   2   3    0.93    0.24
   4   2   3    0.98    0.16
  -5  -2  -3    0.40    0.09
  -5  -2  -3    0.32    0.17
   5   2   3    0.58    0.16
   5   2   3    0.31    0.21
  -6  -2  -3   -0.05    0.12
   6   2   3   -0.10    0.11
   6   2   3    0.10    0.17
   6   2   3   -0.03    0.11
  -7  -2  -3    1.10    0.20
   7   2   3    0.58    0.16
   7   2   3    0.85    0.17
  -8  -2  -3    3.59    0.31
   8   2   3    3.77    0.30
   6  -3  -3    0.48    0.10
   6  -3  -3    0.36    0.12
   6  -3  -3    0.43    0.13
  -6   3   3    0.36    0.15
   5  -3  -3    8.51    0.56
   5  -3  -3    8.18    0.46
   5  -3  -3    7.53    0.51
   5  -3  -3    8.57    0.56
  -5   3   3    6.17    0.56
   4  -3  -3   13.64    0.95
   4  -3  -3   16.03    0.82
   4  -3  -3   15.07    0.98
   4  -3  -3   16.21    0.98
  -4   3   3   18.26    1.02
  -4   3   3   15.28    0.91
  -4   3   3   17.04    1.01
   3  -3  -3    3.68    0.33
   3  -3  -3    4.15    0.47
  -3   3   3    3.43    0.30
  -3   3   3    3.90    0.43
  -3   3   3    3.59    0.28
   2  -3  -3    8.47    0.54
   2  -3  -3    6.79    0.67
  -2   3   3    7.91    0.67
  -2   3   3    9.07    0.51
  -2   3   3    7.99    0.49
   1  -3  -3   12.98    0.75
   1  -3  -3   11.71    0.90
  -1   3   3   12.22    0.72
  -1   3   3   12.29    0.65
  -1   3   3   11.23    0.66
  -1   3   3   12.80    0.90
   0  -3  -3    1.65    0.19
   0  -3  -3    1.94    0.25
   0   3   3    1.99    0.24
   0   3   3    1.70    0.17
   0   3   3    1.74    0.16
   0   3   3    1.82    0.16
  -1  -3  -3   30.28    2.12
  -1  -3  -3   30.52    1.79
   1   3   3   30.34    1.78
   1   3   3   34.06    1.60
   1   3   3   31.88    1.45
   1   3   3   32.48    1.60
   1   3   3   35.62    2.15
  -2  -3  -3    3.57    0.28
  -2  -3  -3    3.28    0.34
   2   3   3    3.58    0.21
   2   3   3    4.08    0.39
   2   3   3    3.75    0.26
   2   3   3    3.20    0.26
  -3  -3  -3    7.78    0.49
  -3  -3  -3    7.16    0.61
   3   3   3    7.23    0.64
   3   3   3    6.99    0.47
   3   3   3    8.00    0.49
  -4  -3  -3    4.18    0.27
  -4  -3  -3    4.32    0.32
  -4  -3  -3    4.25    0.43
   4   3   3    3.89    0.32
   4   3   3    4.41    0.48
   4   3   3    4.07    0.33
  -5  -3  -3    1.37    0.28
  -5  -3  -3    1.25    0.17
   5   3   3    1.63    0.36
   5   3   3    1.69    0.22
  -6  -3  -3   -0.08    0.11
  -6  -3  -3    0.07    0.08
  -6  -3  -3   -0.07    0.09
   6   3   3    0.06    0.11
   6   3   3    0.07    0.12
  -7  -3  -3   -0.04    0.10
  -7  -3  -3    0.12    0.12
   7   3   3    0.07    0.12
  -8  -3  -3   -0.01    0.09
   8   3   3   -0.02    0.09
   6  -4  -3    0.38    0.08
   6  -4  -3    0.53    0.11
  -6   4   3    0.64    0.15
   5  -4  -3    3.67    0.32
   5  -4  -3    3.12    0.25
  -5   4   3    3.71    0.36
   4  -4  -3   38.04    1.86
   4  -4  -3   36.65    2.20
   4  -4  -3   41.82    2.24
  -4   4   3   36.92    2.22
   3  -4  -3   31.65    1.72
   3  -4  -3   29.47    1.43
   3  -4  -3   28.92    1.72
  -3   4   3   27.30    1.40
  -3   4   3   28.46    1.55
   2  -4  -3    2.12    0.36
   2  -4  -3    2.80    0.29
  -2   4   3    2.32    0.24
  -2   4   3    2.57    0.19
   1  -4  -3   25.54    1.69
   1  -4  -3   20.00    1.38
  -1   4   3   24.89    1.34
  -1   4   3   25.10    1.67
  -1   4   3   24.07    1.26
   0  -4  -3    7.49    0.63
   0  -4  -3    7.64    0.52
   0   4   3    7.89    0.47
   0   4   3    7.82    0.42
   0   4   3    7.22    0.46
   0   4   3    7.35    0.46
   0   4   3    8.06    0.64
  -1  -4  -3    4.78    0.43
  -1  -4  -3    4.32    0.34
   1   4   3    3.98    0.30
   1   4   3    4.52    0.29
   1   4   3    4.00    0.42
   1   4   3    4.22    0.30
   1   4   3    4.29    0.27
  -2  -4  -3   -0.05    0.11
  -2  -4  -3   -0.04    0.08
   2   4   3   -0.08    0.06
   2   4   3    0.00    0.13
   2   4   3   -0.03    0.09
  -3  -4  -3   11.90    0.90
  -3  -4  -3   12.05    0.73
   3   4   3   11.00    0.92
   3   4   3   10.85    0.68
   3   4   3   12.05    0.70
  -4  -4  -3    3.05    0.29
   4   4   3    3.26    0.26
   4   4   3    3.29    0.32
  -5  -4  -3    0.97    0.17
  -5  -4  -3    0.71    0.15
   5   4   3    0.73    0.16
  -6  -4  -3    1.11    0.18
  -6  -4  -3    1.27    0.17
   6   4   3    0.98    0.19
  -7  -4  -3    0.79    0.16
  -7  -4  -3    1.05    0.17
   7   4   3    1.07    0.19
  -8  -4  -3    4.15    0.31
   8   4   3    4.06    0.32
   5  -5  -3    1.46    0.18
   5  -5  -3    1.62    0.15
  -5   5   3    1.52    0.21
   4  -5  -3    8.99    0.62
   4  -5  -3    9.41    0.52
  -4   5   3    9.48    0.66
   3  -5  -3   26.93    1.57
   3  -5  -3   24.44    1.58
   3  -5  -3   26.84    1.31
  -3   5   3   27.13    1.57
   2  -5  -3    4.13    0.34
   2  -5  -3    4.24    0.28
   2  -5  -3    4.34    0.40
  -2   5   3    3.84    0.37
   1  -5  -3    0.05    0.15
   1  -5  -3    0.14    0.14
  -1   5   3    0.04    0.08
  -1   5   3    0.06    0.10
   0  -5  -3    0.68    0.16
   0  -5  -3    0.36    0.18
   0  -5  -3    0.47    0.09
   0   5   3    0.44    0.13
   0   5   3    0.21    0.11
  -1  -5  -3    0.72    0.10
  -1  -5  -3    1.03    0.23
  -1  -5  -3    0.90    0.16
   1   5   3    0.70    0.15
   1   5   3    1.08    0.16
   1   5   3    1.16    0.19
  -2  -5  -3    3.18    0.38
  -2  -5  -3    3.41    0.25
  -2  -5  -3    3.58    0.33
   2   5   3    3.49    0.31
   2   5   3    3.57    0.26
  -3  -5  -3    0.14    0.14
  -3  -5  -3    0.23    0.13
   3   5   3    0.05    0.12
  -4  -5  -3    1.97    0.25
  -4  -5  -3    1.34    0.19
  -4  -5  -3    1.73    0.19
   4   5   3    1.82    0.24
   4   5   3    1.35    0.25
  -5  -5  -3    0.71    0.13
  -5  -5  -3    0.89    0.17
  -5  -5  -3    0.94    0.16
   5   5   3    0.68    0.16
  -6  -5  -3    5.71    0.43
   6   5   3    5.39    0.44
  -7  -5  -3    2.59    0.26
   7   5   3    2.44    0.27
   8   5   3    5.70    0.38
   4  -6  -3    0.09    0.07
   4  -6  -3    0.10    0.09
  -4   6   3    0.08    0.12
   3  -6  -3    7.36    0.51
   3  -6  -3    7.03    0.43
  -3   6   3    7.47    0.55
   2  -6  -3    1.82    0.26
   2  -6  -3    2.52    0.21
   2  -6  -3    2.12    0.24
  -2   6   3    1.58    0.24
   1  -6  -3    0.70    0.19
   1  -6  -3    0.98    0.14
   1  -6  -3    0.66    0.15
  -1   6   3    0.64    0.17
   0  -6  -3    0.39    0.12
   0   6   3    0.52    0.16
  -1  -6  -3    8.64    0.61
  -1  -6  -3    8.52    0.56
  -1  -6  -3    8.03    0.45
   1   6   3    8.02    0.47
   1   6   3    7.64    0.48
   1   6   3    7.79    0.56
  -2  -6  -3    0.10    0.10
  -2  -6  -3    0.30    0.12
  -2  -6  -3    0.26    0.15
   2   6   3    0.41    0.16
   2   6   3    0.12    0.11
   2   6   3    0.29    0.10
   2   6   3    0.26    0.11
  -3  -6  -3    0.48    0.17
  -3  -6  -3    0.27    0.11
  -3  -6  -3    0.34    0.13
   3   6   3    0.42    0.14
   3   6   3    0.42    0.11
  -4  -6  -3   -0.05    0.11
  -4  -6  -3    0.02    0.09
  -4  -6  -3    0.08    0.10
   4   6   3    0.00    0.11
   4   6   3    0.13    0.09
  -5  -6  -3    5.64    0.36
  -5  -6  -3    5.77    0.46
  -5  -6  -3    5.56    0.44
   5   6   3    5.98    0.45
  -6  -6  -3    0.96    0.15
  -6  -6  -3    0.86    0.17
   6   6   3    1.23    0.20
  -7  -6  -3    0.70    0.13
   7   6   3    0.57    0.13
   3  -7  -3    2.83    0.27
   3  -7  -3    3.14    0.23
  -3   7   3    3.19    0.29
   2  -7  -3    5.55    0.43
   2  -7  -3    6.84    0.38
  -2   7   3    5.74    0.46
   1  -7  -3   14.60    0.76
   1  -7  -3   12.98    0.90
  -1   7   3   15.51    0.93
  -1   7   3   15.23    1.09
   0  -7  -3    2.18    0.24
   0  -7  -3    2.01    0.30
   0  -7  -3    1.66    0.18
   0   7   3    2.31    0.27
  -1  -7  -3   -0.02    0.13
  -1  -7  -3    0.13    0.10
  -1  -7  -3    0.01    0.09
   1   7   3    0.03    0.12
  -2  -7  -3    0.18    0.14
  -2  -7  -3    0.09    0.11
  -2  -7  -3    0.21    0.11
   2   7   3    0.14    0.13
  -3  -7  -3    8.40    0.63
  -3  -7  -3    8.19    0.66
  -3  -7  -3    9.57    0.52
   3   7   3   10.56    0.65
   3   7   3    9.59    0.54
  -4  -7  -3    0.32    0.13
  -4  -7  -3    0.24    0.11
   4   7   3    0.50    0.15
   4   7   3    0.16    0.09
  -5  -7  -3    1.16    0.16
  -5  -7  -3    1.23    0.19
   5   7   3    1.20    0.20
  -6  -7  -3    0.21    0.09
  -6  -7  -3    0.26    0.11
   6   7   3    0.39    0.13
  -7  -7  -3    1.19    0.14
   7   7   3    0.89    0.13
   2  -8  -3    0.27    0.07
   2  -8  -3    0.19    0.08
  -2   8   3    0.27    0.10
   1  -8  -3    2.43    0.20
   1  -8  -3    2.61    0.24
  -1   8   3    1.86    0.27
  -1   8   3    2.57    0.26
   0  -8  -3    7.36    0.54
   0  -8  -3    8.48    0.46
   0   8   3    8.07    0.55
   0   8   3    8.21    0.68
  -1  -8  -3    5.69    0.44
  -1  -8  -3    6.44    0.37
   1   8   3    6.09    0.45
   1   8   3    5.85    0.56
  -2  -8  -3    7.62    0.41
  -2  -8  -3    7.05    0.50
   2   8   3    6.72    0.51
  -3  -8  -3    1.47    0.17
  -3  -8  -3    1.37    0.18
   3   8   3    1.25    0.19
  -4  -8  -3    5.61    0.40
  -4  -8  -3    4.73    0.32
   4   8   3    4.72    0.39
  -5  -8  -3    2.10    0.22
  -5  -8  -3    1.67    0.17
   5   8   3    2.23    0.23
  -6  -8  -3   -0.01    0.06
  -6  -8  -3    0.02    0.07
   6   8   3    0.04    0.07
   0  -9  -3    1.77    0.16
   0  -9  -3    1.62    0.13
   0   9   3    1.19    0.18
  -1  -9  -3    0.60    0.09
  -1  -9  -3    0.64    0.11
   1   9   3    0.75    0.16
   1   9   3    0.68    0.11
  -2  -9  -3    0.75    0.12
   2   9   3    0.74    0.17
   2   9   3    0.85    0.12
  -3  -9  -3    0.32    0.09
  -3  -9  -3    0.33    0.08
   3   9   3    0.25    0.12
   3   9   3    0.26    0.08
  -4  -9  -3   -0.05    0.06
  -4  -9  -3   -0.04    0.06
   3   9  -4    0.07    0.06
   3   9  -4   -0.07    0.05
   2   9  -4    0.09    0.07
   1   9  -4   -0.03    0.06
   1   9  -4    0.10    0.10
   5   8  -4    0.58    0.10
   5   8  -4    0.58    0.10
  -5  -8   4    0.71    0.10
   4   8  -4    0.24    0.10
   4   8  -4    0.28    0.10
  -4  -8   4    0.26    0.07
   3   8  -4    0.63    0.12
   3   8  -4    0.56    0.13
  -3  -8   4    0.55    0.09
   2   8  -4    4.17    0.30
   2   8  -4    4.65    0.31
  -2  -8   4    4.65    0.31
   1   8  -4    0.41    0.17
   1   8  -4    0.58    0.13
  -1  -8   4    0.42    0.08
   0   8  -4    2.08    0.20
   0   8  -4    1.63    0.25
   0  -8   4    2.07    0.16
  -1   8  -4    3.45    0.24
  -1   8  -4    3.52    0.36
   1  -8   4    3.30    0.24
  -2   8  -4    1.23    0.18
  -2   8  -4    0.96    0.11
   6   7  -4    0.77    0.12
   6   7  -4    0.81    0.10
   5   7  -4    2.04    0.20
   5   7  -4    1.77    0.18
  -5  -7   4    2.00    0.18
   4   7  -4    0.50    0.13
   4   7  -4    0.30    0.11
  -4  -7   4    0.52    0.09
   3   7  -4   45.20    2.12
   3   7  -4   42.96    2.00
  -3  -7   4   41.73    2.45
   2   7  -4    3.47    0.28
   2   7  -4    3.16    0.27
  -2  -7   4    3.45    0.25
   1   7  -4   34.30    1.61
   1   7  -4   32.81    2.34
  -1  -7   4   34.98    1.95
   0   7  -4    2.68    0.37
   0   7  -4    2.58    0.25
   0  -7   4    2.77    0.21
  -1   7  -4    6.46    0.61
  -1   7  -4    6.68    0.42
   1  -7   4    7.05    0.44
  -2   7  -4    0.05    0.09
  -2   7  -4    0.03    0.12
   2  -7   4    0.01    0.05
  -3   7  -4    3.01    0.22
  -3   7  -4    3.08    0.31
   7   6  -4    0.07    0.07
  -7  -6   4    0.02    0.05
   6   6  -4   64.19    5.38
   6   6  -4   77.67    3.19
  -6  -6   4   70.35    3.97
   5   6  -4    8.02    0.76
   5   6  -4    7.86    0.47
   5   6  -4    8.82    0.50
  -5  -6   4    9.00    0.54
   4   6  -4   84.10    3.68
   4   6  -4   86.10    3.90
  -4  -6   4   74.60    4.57
   3   6  -4    0.36    0.12
   3   6  -4    0.33    0.11
  -3  -6   4    0.39    0.08
   2   6  -4   20.82    1.02
   2   6  -4   20.78    1.06
   1   6  -4    2.22    0.22
   1   6  -4    2.21    0.21
   1   6  -4    1.80    0.28
   0   6  -4   31.72    2.19
   0   6  -4   30.77    1.49
   0  -6   4   32.07    1.80
  -1   6  -4   27.00    1.32
  -1   6  -4   28.08    1.93
   1  -6   4   27.54    1.58
  -2   6  -4    0.08    0.15
  -2   6  -4    0.06    0.11
   2  -6   4   -0.02    0.05
  -3   6  -4   14.58    1.06
  -3   6  -4   13.70    0.73
   3  -6   4   14.42    0.85
  -4   6  -4    1.23    0.15
   7   5  -4    4.66    0.28
  -7  -5   4    4.16    0.32
   6   5  -4    6.78    0.71
   6   5  -4    7.89    0.45
   6   5  -4    8.51    0.46
  -6  -5   4    8.35    0.51
  -6  -5   4    7.65    0.54
   5   5  -4   19.50    0.98
   5   5  -4   20.34    0.95
   5   5  -4   18.40    1.57
   5   5  -4   19.63    0.99
  -5  -5   4   18.32    1.13
   4   5  -4   10.93    0.92
   4   5  -4    9.82    0.57
   4   5  -4   10.49    0.57
   4   5  -4   10.03    0.55
  -4  -5   4   10.67    0.64
   3   5  -4    0.22    0.10
   3   5  -4    0.08    0.08
   3   5  -4    0.25    0.12
   3   5  -4    0.10    0.08
   2   5  -4   22.21    1.10
   1   5  -4    6.18    0.40
   0   5  -4    4.42    0.33
  -1   5  -4   -0.09    0.09
  -1   5  -4   -0.02    0.14
  -2   5  -4   17.50    0.91
  -2   5  -4   18.94    1.35
   2  -5   4   18.59    1.07
  -3   5  -4   17.25    1.28
  -3   5  -4   17.52    0.88
   3  -5   4   17.52    1.03
  -4   5  -4    1.13    0.16
   4  -5   4    1.62    0.19
   4  -5   4    1.34    0.15
  -5   5  -4    5.73    0.34
   5  -5   4    5.55    0.38
   7   4  -4    1.19    0.15
   7   4  -4    1.18    0.13
   7   4  -4    0.91    0.20
   7   4  -4    1.42    0.16
  -7  -4   4    1.04    0.16
   6   4  -4    0.59    0.18
   6   4  -4    0.58    0.12
   6   4  -4    0.97    0.16
   6   4  -4    0.58    0.12
  -6  -4   4    0.41    0.11
  -6  -4   4    0.78    0.16
   5   4  -4   14.12    0.73
   5   4  -4   13.36    1.19
   5   4  -4   14.37    0.75
  -5  -4   4   15.20    0.87
  -5  -4   4   14.16    0.90
   4   4  -4    7.73    0.49
  -4  -4   4    7.24    0.48
  -4  -4   4    8.10    0.51
   3   4  -4   21.79    1.08
   2   4  -4    0.01    0.08
   1   4  -4    8.85    0.49
   0   4  -4    6.55    0.37
   0   4  -4    6.30    0.38
  -1   4  -4    6.24    0.38
  -1   4  -4    6.90    0.39
  -2   4  -4    3.19    0.26
   2  -4   4    2.76    0.20
  -3   4  -4    7.98    0.80
  -3   4  -4    7.95    0.70
  -3   4  -4    8.30    0.48
   3  -4   4    8.91    0.52
  -4   4  -4    3.72    0.49
  -4   4  -4    3.96    0.30
   4  -4   4    3.56    0.28
   4  -4   4    3.60    0.31
  -5   4  -4    2.97    0.26
  -5   4  -4    3.08    0.43
   5  -4   4    3.09    0.27
   5  -4   4    3.03    0.24
  -6   4  -4    4.17    0.45
   6  -4   4    4.51    0.32
   8   3  -4    0.51    0.09
  -8  -3   4    0.71    0.11
   7   3  -4    3.35    0.30
   7   3  -4    4.05    0.37
   7   3  -4    3.25    0.24
   7   3  -4    3.38    0.27
  -7  -3   4    3.72    0.32
   6   3  -4    7.42    0.43
   6   3  -4    7.55    0.44
   6   3  -4    6.82    0.49
  -6  -3   4    7.62    0.48
  -6  -3   4    6.21    0.51
   5   3  -4    1.74    0.18
   5   3  -4    1.46    0.28
   5   3  -4    1.96    0.22
  -5  -3   4    1.96    0.21
  -5  -3   4    2.09    0.23
  -4  -3   4    5.58    0.39
  -4  -3   4    6.16    0.42
  -4  -3   4    6.08    0.50
   3   3  -4   12.57    0.66
  -3  -3   4   12.79    0.88
  -3  -3   4   12.78    0.72
   2   3  -4   25.02    1.18
   1   3  -4   84.31    3.78
   1   3  -4   87.49    3.50
   1   3  -4   85.37    3.51
   0   3  -4   17.42    0.78
   0   3  -4   17.15    0.77
   0   3  -4   17.55    0.83
  -1   3  -4  116.57    4.76
  -1   3  -4  116.54    5.10
  -2   3  -4   27.76    1.24
   2  -3   4   28.80    1.89
  -3   3  -4   44.45    1.88
   3  -3   4   40.20    2.90
   3  -3   4   45.79    2.46
  -4   3  -4    2.19    0.22
  -4   3  -4    1.87    0.21
  -4   3  -4    2.08    0.36
   4  -3   4    1.70    0.18
   4  -3   4    1.97    0.22
  -5   3  -4    0.29    0.19
  -5   3  -4    0.20    0.12
  -5   3  -4    0.23    0.11
   5  -3   4    0.21    0.08
   5  -3   4    0.29    0.12
  -6   3  -4    0.20    0.16
  -6   3  -4    0.34    0.10
   6  -3   4    0.13    0.09
   8   2  -4    0.06    0.07
   8   2  -4    0.11    0.06
  -8  -2   4    0.04    0.08
   7   2  -4    0.98    0.12
   7   2  -4    0.98    0.17
  -7  -2   4    1.65    0.22
   6   2  -4    3.33    0.26
   6   2  -4    3.55    0.31
  -6  -2   4    3.29    0.32
   5   2  -4    2.83    0.22
   5   2  -4    2.18    0.37
   5   2  -4    2.23    0.25
  -5  -2   4    2.77    0.26
  -5  -2   4    2.82    0.28
  -5  -2   4    3.02    0.28
  -4  -2   4   15.93    0.90
  -4  -2   4   15.61    0.96
  -4  -2   4   17.40    1.16
   3   2  -4    1.22    0.16
  -3  -2   4    1.39    0.16
  -3  -2   4    1.13    0.17
   2   2  -4    4.68    0.29
  -2  -2   4    4.65    0.35
  -2  -2   4    5.05    0.31
   1   2  -4    9.65    0.49
   1   2  -4    9.78    0.44
   1   2  -4    9.77    0.44
   0   2  -4   79.82    3.51
   0   2  -4   79.69    3.26
   0   2  -4   80.43    3.26
  -1   2  -4   18.69    0.82
  -1   2  -4   17.87    0.81
  -1   2  -4   18.84    0.86
   1  -2   4   18.75    1.22
  -2   2  -4    5.19    0.30
  -2   2  -4    5.72    0.31
   2  -2   4    5.65    0.46
  -3   2  -4   65.37    2.74
   3  -2   4   70.85    4.30
   3  -2   4   61.87    3.69
   4  -2   4    5.77    0.37
   4  -2   4    5.10    0.58
  -5   2  -4   22.37    1.30
  -5   2  -4   21.18    1.07
   5  -2   4   21.64    1.29
   5  -2   4   22.88    1.33
  -6   2  -4    0.96    0.26
  -6   2  -4    0.53    0.14
   6  -2   4    0.97    0.17
  -7   2  -4    4.63    0.33
  -7   2  -4    4.73    0.49
   7  -2   4    4.61    0.35
   8   1  -4    0.43    0.08
   8   1  -4    0.42    0.10
  -8  -1   4    0.48    0.11
   7   1  -4    2.47    0.21
   7   1  -4    3.07    0.28
  -7  -1   4    2.75    0.29
   6   1  -4   14.96    0.88
   6   1  -4   13.88    0.74
  -6  -1   4   12.91    0.90
  -6  -1   4   14.30    0.92
  -4  -1   4    4.13    0.38
  -4  -1   4    3.62    0.28
  -4  -1   4    2.68    0.28
  -3  -1   4    5.95    0.37
  -3  -1   4    5.87    0.47
   2   1  -4   30.11    1.27
  -2  -1   4   30.98    1.98
  -2  -1   4   30.27    1.53
   1   1  -4    3.69    0.23
   1   1  -4    3.83    0.19
   1   1  -4    4.00    0.21
  -1  -1   4    3.94    0.28
  -1  -1   4    3.92    0.24
   0   1  -4   19.40    0.91
   0   1  -4   20.68    0.85
   0   1  -4   20.01    0.85
   0  -1   4   20.80    0.99
   0  -1   4   19.36    0.99
   0  -1   4   20.58    1.27
   0  -1   4   19.04    1.27
  -1   1  -4    0.06    0.05
  -1   1  -4    0.10    0.04
  -1   1  -4    0.04    0.06
   1  -1   4    0.06    0.07
   1  -1   4    0.02    0.04
  -2   1  -4    2.93    0.18
  -2   1  -4    3.22    0.20
   2  -1   4    2.80    0.29
  -3   1  -4    6.38    0.36
   3  -1   4    7.80    0.60
   4  -1   4   -0.02    0.05
   4  -1   4    0.03    0.16
  -5   1  -4    0.27    0.13
  -5   1  -4    0.45    0.13
   5  -1   4    0.35    0.09
   5  -1   4    0.46    0.13
  -6   1  -4    4.21    0.39
  -6   1  -4    4.19    0.55
   6  -1   4    5.37    0.39
  -7   1  -4    0.44    0.13
  -7   1  -4    0.33    0.17
   7  -1   4    0.35    0.12
   7   0  -4    0.47    0.09
   7   0  -4    0.44    0.14
  -7   0   4    0.47    0.15
   6   0  -4    8.07    0.47
  -6   0   4    8.32    0.60
  -6   0   4    8.26    0.58
   5   0  -4   20.52    1.20
   5   0  -4   20.37    1.02
  -5   0   4   21.88    1.24
  -5   0   4   18.56    1.25
  -4   0   4    5.81    0.43
  -4   0   4    6.05    0.41
  -4   0   4    6.47    0.54
  -3   0   4   26.31    1.36
  -3   0   4   27.70    1.80
  -3   0   4   26.74    1.38
   2   0  -4   13.64    0.61
  -2   0   4   14.19    0.73
  -2   0   4   13.67    0.73
  -2   0   4   13.54    0.94
   1   0  -4    2.63    0.26
   1   0  -4    3.01    0.18
   1   0  -4    2.79    0.15
  -1   0   4    3.03    0.25
  -1   0   4    3.43    0.22
  -1   0   4    3.30    0.21
   0   0  -4    8.31    0.36
   0   0  -4    6.68    0.34
   0   0   4    7.69    0.41
   0   0   4    7.43    0.40
   0   0   4    7.52    0.52
  -1   0  -4   28.65    1.14
  -1   0  -4   25.41    1.75
  -1   0  -4   28.71    1.14
   1   0   4   28.82    1.33
   1   0   4   25.67    1.76
   1   0   4   25.56    1.31
  -2   0  -4    5.36    0.29
  -2   0  -4    5.24    0.28
   2   0   4    6.02    0.32
   2   0   4    5.52    0.46
  -3   0  -4   -0.05    0.05
  -3   0  -4   -0.09    0.06
   3   0   4   -0.04    0.11
  -4   0  -4    1.18    0.14
   4   0   4    1.28    0.27
  -5   0  -4    4.70    0.40
   5   0   4    5.89    0.41
   5   0   4    5.43    0.46
  -6   0  -4   23.00    1.32
   6   0   4   22.54    1.34
   6   0   4   20.41    1.36
  -7   0  -4    6.55    0.70
  -7   0  -4    7.59    0.53
   7   0   4    7.87    0.53
   8   0   4    1.81    0.18
   7  -1  -4    0.29    0.08
   7  -1  -4    0.30    0.12
  -7   1   4    0.02    0.10
   6  -1  -4    0.72    0.17
   6  -1  -4    0.54    0.12
  -6   1   4    0.81    0.17
   5  -1  -4    0.15    0.09
   5  -1  -4    0.12    0.12
  -5   1   4    0.04    0.09
  -5   1   4    0.15    0.14
  -4   1   4    0.15    0.10
  -4   1   4    0.17    0.13
  -4   1   4    0.40    0.12
   3  -1  -4    1.07    0.11
  -3   1   4    1.01    0.15
  -3   1   4    0.87    0.18
  -3   1   4    0.96    0.14
  -3   1   4    0.66    0.13
   2  -1  -4   24.38    1.79
  -2   1   4   26.48    1.35
  -2   1   4   28.32    1.78
  -2   1   4   27.38    1.34
   1  -1  -4   57.11    2.17
   1  -1  -4   50.86    2.13
   1  -1  -4   50.30    3.39
  -1   1   4   56.88    2.55
  -1   1   4   45.72    3.37
  -1   1   4   54.42    2.57
   0  -1  -4    0.83    0.15
   0  -1  -4    0.85    0.09
   0  -1  -4    0.82    0.10
   0   1   4    0.96    0.11
   0   1   4    0.81    0.12
   0   1   4    0.83    0.14
  -1  -1  -4    4.56    0.23
  -1  -1  -4    4.46    0.23
  -1  -1  -4    3.85    0.34
   1   1   4    4.21    0.24
   1   1   4    4.68    0.27
   1   1   4    4.65    0.37
  -2  -1  -4    0.23    0.06
  -2  -1  -4    0.27    0.08
  -2  -1  -4    0.20    0.10
   2   1   4    0.26    0.12
   2   1   4    0.18    0.08
  -3  -1  -4    2.15    0.14
  -3  -1  -4    1.84    0.24
  -3  -1  -4    2.26    0.17
   3   1   4    2.11    0.28
   3   1   4    1.86    0.17
  -4  -1  -4   15.02    0.73
   4   1   4   16.43    0.99
   4   1   4   16.93    1.22
  -5  -1  -4   26.19    1.51
   5   1   4   27.94    1.53
   5   1   4   23.03    1.53
  -6  -1  -4   18.41    1.06
   6   1   4   15.57    1.06
   6   1   4   17.28    1.10
  -7  -1  -4    8.80    0.65
   7   1   4   10.56    0.66
  -8  -1  -4    1.69    0.20
   8   1   4    1.78    0.19
   7  -2  -4   -0.03    0.05
   7  -2  -4   -0.02    0.08
  -7   2   4   -0.11    0.07
   6  -2  -4    0.88    0.17
   6  -2  -4    0.74    0.13
  -6   2   4    0.71    0.17
  -6   2   4    0.75    0.17
   5  -2  -4    1.46    0.18
   5  -2  -4    1.48    0.22
  -5   2   4    1.42    0.24
  -5   2   4    1.32    0.19
   4  -2  -4    1.45    0.17
   4  -2  -4    1.50    0.16
  -4   2   4    1.42    0.20
  -4   2   4    1.38    0.20
  -4   2   4    1.68    0.25
   3  -2  -4    0.10    0.09
   3  -2  -4    0.17    0.15
  -3   2   4    0.22    0.10
  -3   2   4    0.25    0.15
  -3   2   4    0.24    0.11
   2  -2  -4   12.82    0.72
   2  -2  -4   11.57    0.91
  -2   2   4   11.28    0.67
  -2   2   4   12.78    0.73
  -2   2   4   11.83    0.89
  -2   2   4   11.51    0.65
   1  -2  -4    7.76    0.61
   1  -2  -4    7.16    0.47
  -1   2   4    8.09    0.44
  -1   2   4    6.77    0.47
  -1   2   4    7.98    0.44
  -1   2   4    8.09    0.59
   0  -2  -4    6.17    0.51
   0  -2  -4    6.04    0.39
   0   2   4    6.89    0.38
   0   2   4    6.25    0.40
   0   2   4    6.71    0.51
   0   2   4    6.45    0.37
  -1  -2  -4   25.67    1.70
  -1  -2  -4   25.97    1.42
  -1  -2  -4   24.80    1.08
   1   2   4   25.48    1.71
   1   2   4   25.44    1.27
   1   2   4   26.16    1.29
  -2  -2  -4   65.26    3.61
  -2  -2  -4   63.11    4.27
  -2  -2  -4   69.37    2.72
   2   2   4   58.30    4.29
   2   2   4   70.37    3.23
   2   2   4   72.19    3.64
  -3  -2  -4    1.18    0.21
  -3  -2  -4    1.15    0.13
  -3  -2  -4    1.17    0.14
   3   2   4    0.96    0.22
   3   2   4    1.12    0.16
   3   2   4    1.02    0.15
  -4  -2  -4   11.76    0.56
  -4  -2  -4   11.10    0.88
  -4  -2  -4   11.45    0.67
   4   2   4   11.11    0.73
   4   2   4   11.84    0.94
  -5  -2  -4    0.33    0.13
   5   2   4    0.95    0.18
   5   2   4    0.26    0.14
  -6  -2  -4    0.14    0.14
   6   2   4    0.63    0.21
   6   2   4    0.27    0.14
  -7  -2  -4   26.34    1.51
   7   2   4   24.75    1.52
  -8  -2  -4    3.23    0.27
   8   2   4    3.12    0.26
   6  -3  -4    0.06    0.10
   6  -3  -4    0.16    0.08
  -6   3   4    0.05    0.11
   5  -3  -4    3.18    0.26
   5  -3  -4    2.74    0.29
   5  -3  -4    3.03    0.29
  -5   3   4    3.01    0.32
  -5   3   4    3.21    0.34
   4  -3  -4    6.08    0.38
   4  -3  -4    6.39    0.44
   4  -3  -4    6.47    0.46
   4  -3  -4    5.83    0.45
  -4   3   4    5.71    0.48
  -4   3   4    6.31    0.42
  -4   3   4    6.39    0.50
   3  -3  -4   -0.09    0.15
   3  -3  -4    0.02    0.09
  -3   3   4    0.04    0.10
  -3   3   4    0.14    0.08
  -3   3   4    0.03    0.13
   2  -3  -4    0.86    0.16
   2  -3  -4    0.96    0.23
  -2   3   4    0.96    0.22
  -2   3   4    0.87    0.14
  -2   3   4    1.08    0.17
   1  -3  -4    4.93    0.35
   1  -3  -4    3.41    0.42
  -1   3   4    4.87    0.45
  -1   3   4    5.16    0.32
  -1   3   4    4.33    0.31
  -1   3   4    5.27    0.33
   0  -3  -4    0.12    0.08
   0  -3  -4   -0.07    0.10
   0   3   4    0.03    0.07
   0   3   4    0.02    0.07
   0   3   4   -0.03    0.10
   0   3   4   -0.02    0.07
  -1  -3  -4    2.51    0.19
  -1  -3  -4    2.94    0.32
  -1  -3  -4    3.28    0.25
   1   3   4    2.59    0.31
   1   3   4    2.87    0.22
   1   3   4    2.65    0.23
   1   3   4    3.75    0.25
  -2  -3  -4  137.33    9.24
  -2  -3  -4  158.66    7.87
  -2  -3  -4  146.89    5.88
   2   3   4  145.97    6.97
   2   3   4  130.94    9.26
   2   3   4  150.64    7.87
  -3  -3  -4   18.77    1.28
  -3  -3  -4   19.32    1.04
   3   3   4   18.74    0.97
   3   3   4   15.52    1.29
   3   3   4   16.70    1.05
  -4  -3  -4    0.71    0.21
  -4  -3  -4    0.38    0.10
  -4  -3  -4    0.54    0.11
   4   3   4    0.51    0.13
   4   3   4    0.46    0.21
   4   3   4    0.56    0.15
  -5  -3  -4   14.29    0.86
  -5  -3  -4   13.68    0.85
  -5  -3  -4   13.91    0.81
   5   3   4   11.59    0.85
   5   3   4   13.90    0.86
   5   3   4   14.29    0.86
  -6  -3  -4   -0.03    0.12
   6   3   4    0.05    0.11
   6   3   4    0.10    0.15
   6   3   4    0.06    0.11
  -7  -3  -4    3.04    0.30
   7   3   4    2.73    0.28
   7   3   4    1.96    0.25
  -8  -3  -4    0.91    0.14
   8   3   4    1.57    0.18
   6  -4  -4    0.27    0.07
  -6   4   4    0.27    0.10
   5  -4  -4    0.60    0.11
   5  -4  -4    0.35    0.13
   5  -4  -4    0.79    0.15
  -5   4   4    0.33    0.15
   4  -4  -4   16.40    1.11
   4  -4  -4   19.29    0.94
   4  -4  -4   19.70    1.11
  -4   4   4   17.52    1.13
   3  -4  -4    1.86    0.19
   3  -4  -4    1.82    0.22
   3  -4  -4    1.30    0.21
   3  -4  -4    1.99    0.24
  -3   4   4    1.84    0.17
  -3   4   4    1.59    0.24
  -3   4   4    1.92    0.25
   2  -4  -4    4.13    0.37
   2  -4  -4    4.61    0.51
  -2   4   4    4.61    0.48
  -2   4   4    4.56    0.32
  -2   4   4    4.20    0.35
   1  -4  -4    5.16    0.50
   1  -4  -4    4.34    0.37
  -1   4   4    5.06    0.34
  -1   4   4    4.59    0.35
  -1   4   4    4.97    0.48
   0  -4  -4    9.67    0.76
   0   4   4    8.77    0.75
   0   4   4   10.11    0.58
   0   4   4    8.26    0.54
   0   4   4    9.25    0.55
  -1  -4  -4   16.80    1.06
  -1  -4  -4   16.84    1.29
   1   4   4   18.68    1.04
   1   4   4   18.65    0.97
   1   4   4   19.10    0.87
   1   4   4   16.39    1.29
   1   4   4   19.23    0.97
  -2  -4  -4   84.55    4.61
  -2  -4  -4   75.53    5.42
   2   4   4   81.53    5.47
   2   4   4   94.45    4.12
   2   4   4   84.04    4.58
  -3  -4  -4    2.05    0.31
  -3  -4  -4    1.88    0.21
   3   4   4    2.11    0.36
   3   4   4    2.16    0.25
   3   4   4    2.05    0.21
  -4  -4  -4    0.05    0.08
  -4  -4  -4    0.03    0.10
   4   4   4    0.00    0.17
   4   4   4    0.12    0.10
   4   4   4    0.07    0.12
  -5  -4  -4    3.14    0.28
  -5  -4  -4    3.17    0.31
  -5  -4  -4    3.12    0.30
   5   4   4    2.78    0.30
   5   4   4    2.92    0.30
   5   4   4    3.31    0.30
  -6  -4  -4    1.37    0.21
  -6  -4  -4    2.00    0.23
   6   4   4    1.68    0.25
   6   4   4    1.79    0.24
  -7  -4  -4   -0.06    0.10
   7   4   4   -0.01    0.10
  -8  -4  -4    0.12    0.07
   8   4   4    0.16    0.08
   5  -5  -4    2.37    0.24
   5  -5  -4    2.96    0.21
  -5   5   4    2.75    0.28
   4  -5  -4    6.37    0.45
   4  -5  -4    5.63    0.37
  -4   5   4    5.80    0.48
   3  -5  -4    9.43    0.54
   3  -5  -4    9.80    0.66
   3  -5  -4    9.67    0.64
  -3   5   4    9.45    0.67
   2  -5  -4    2.14    0.19
   2  -5  -4    2.39    0.29
   2  -5  -4    2.19    0.24
  -2   5   4    2.38    0.30
   1  -5  -4    4.45    0.51
   1  -5  -4    4.85    0.40
  -1   5   4    4.66    0.34
  -1   5   4    4.85    0.38
   0  -5  -4    0.08    0.10
   0  -5  -4    0.01    0.14
   0   5   4    0.19    0.06
   0   5   4   -0.03    0.08
   0   5   4    0.04    0.09
  -1  -5  -4    0.11    0.11
  -1  -5  -4    0.24    0.16
   1   5   4    0.06    0.11
   1   5   4    0.06    0.10
   1   5   4    0.08    0.08
   1   5   4    0.13    0.06
  -2  -5  -4    1.78    0.23
  -2  -5  -4    1.38    0.27
   2   5   4    1.33    0.21
   2   5   4    1.38    0.14
  -3  -5  -4    6.44    0.50
  -3  -5  -4    7.87    0.67
   3   5   4    7.10    0.50
  -4  -5  -4    1.10    0.15
  -4  -5  -4    0.84    0.16
  -4  -5  -4    0.92    0.17
   4   5   4    0.80    0.17
  -5  -5  -4    1.68    0.18
  -5  -5  -4    1.66    0.21
  -5  -5  -4    1.96    0.24
   5   5   4    1.07    0.19
  -6  -5  -4    7.65    0.56
   6   5   4    9.03    0.59
  -7  -5  -4    0.20    0.10
  -7  -5  -4    0.07    0.09
   7   5   4    0.12    0.11
   4  -6  -4    0.56    0.10
   4  -6  -4    0.42    0.11
  -4   6   4    0.45    0.14
   3  -6  -4    0.69    0.12
   3  -6  -4    0.97    0.17
  -3   6   4    1.13    0.21
   2  -6  -4    0.06    0.08
   2  -6  -4    0.03    0.10
  -2   6   4   -0.02    0.13
   1  -6  -4    1.61    0.21
   1  -6  -4    1.83    0.26
   1  -6  -4    1.71    0.18
  -1   6   4    2.02    0.26
   0  -6  -4    4.38    0.39
   0  -6  -4    3.96    0.28
   0  -6  -4    4.27    0.35
   0   6   4    4.37    0.38
  -1  -6  -4    3.64    0.31
  -1  -6  -4    3.01    0.34
  -1  -6  -4    3.79    0.27
   1   6   4    3.64    0.34
  -2  -6  -4    2.50    0.29
  -2  -6  -4    2.34    0.25
  -2  -6  -4    2.40    0.22
   2   6   4    2.31    0.26
  -3  -6  -4    0.06    0.12
  -3  -6  -4    0.00    0.09
  -3  -6  -4    0.20    0.10
   3   6   4    0.11    0.09
   3   6   4    0.10    0.12
  -4  -6  -4    4.94    0.39
  -4  -6  -4    4.88    0.40
  -4  -6  -4    4.51    0.32
   4   6   4    4.48    0.39
  -5  -6  -4    6.40    0.47
  -5  -6  -4    5.89    0.37
   5   6   4    6.16    0.48
  -6  -6  -4    4.26    0.35
   6   6   4    4.34    0.37
  -7  -6  -4    2.31    0.22
   7   6   4    2.48    0.25
   3  -7  -4    0.91    0.14
   3  -7  -4    0.80    0.11
  -3   7   4    0.67    0.15
   2  -7  -4    3.64    0.30
   2  -7  -4    3.33    0.26
  -2   7   4    3.76    0.35
   1  -7  -4    1.38    0.16
   1  -7  -4    1.11    0.18
  -1   7   4    1.29    0.25
  -1   7   4    1.42    0.22
   0  -7  -4    0.37    0.13
   0  -7  -4    0.38    0.11
   0  -7  -4    0.10    0.14
   0   7   4    0.33    0.14
  -1  -7  -4    2.34    0.30
  -1  -7  -4    2.04    0.24
  -1  -7  -4    1.54    0.17
   1   7   4    1.31    0.22
  -2  -7  -4    5.04    0.34
  -2  -7  -4    4.56    0.43
  -2  -7  -4    5.37    0.41
   2   7   4    5.62    0.44
  -3  -7  -4    1.64    0.26
  -3  -7  -4    2.15    0.26
  -3  -7  -4    2.36    0.23
   3   7   4    2.17    0.28
  -4  -7  -4   -0.02    0.10
  -4  -7  -4   -0.01    0.09
   4   7   4   -0.09    0.12
  -5  -7  -4    2.85    0.28
  -5  -7  -4    2.88    0.24
   5   7   4    2.70    0.30
  -6  -7  -4    0.56    0.13
  -6  -7  -4    0.42    0.09
   6   7   4    0.43    0.13
   2  -8  -4    0.21    0.08
   2  -8  -4    0.11    0.06
  -2   8   4    0.31    0.10
   1  -8  -4    2.91    0.22
   1  -8  -4    3.11    0.27
  -1   8   4    3.32    0.30
  -1   8   4    3.48    0.35
   0  -8  -4    3.61    0.30
   0  -8  -4    3.43    0.24
   0   8   4    3.33    0.32
   0   8   4    3.00    0.38
  -1  -8  -4    8.01    0.55
  -1  -8  -4    7.95    0.45
   1   8   4    8.59    0.57
   1   8   4    7.95    0.68
  -2  -8  -4    6.21    0.36
  -2  -8  -4    5.83    0.44
   2   8   4    6.41    0.47
  -3  -8  -4    2.07    0.23
  -3  -8  -4    1.71    0.17
   3   8   4    1.98    0.24
  -4  -8  -4    0.01    0.08
  -4  -8  -4    0.05    0.09
   4   8   4   -0.03    0.11
  -5  -8  -4    0.95    0.14
  -5  -8  -4    0.82    0.12
   5   8   4    0.81    0.15
   0  -9  -4   12.74    0.74
   0  -9  -4   11.83    0.62
   0   9   4   12.54    0.88
  -1  -9  -4    2.99    0.24
  -1  -9  -4    2.77    0.18
   1   9   4    2.93    0.24
   1   9   4    2.80    0.31
  -2  -9  -4    0.67    0.11
   2   9   4    0.70    0.16
   2   9   4    0.71    0.12
  -3  -9  -4    0.88    0.12
  -3  -9  -4    0.82    0.10
   3   9   4    0.83    0.12
   3   9   4    0.77    0.15
  -4  -9  -4    0.02    0.06
  -4  -9  -4    0.05    0.06
   4   9   4   -0.01    0.07
   5   8  -5    2.40    0.18
   5   8  -5    2.42    0.17
  -5  -8   5    2.53    0.17
   4   8  -5    3.18    0.22
   4   8  -5    3.07    0.23
  -4  -8   5    2.74    0.21
   3   8  -5    2.10    0.20
   3   8  -5    2.12    0.20
  -3  -8   5    2.19    0.17
   2   8  -5   -0.04    0.08
   2   8  -5    0.00    0.09
  -2  -8   5    0.05    0.05
   1   8  -5    4.83    0.46
   1   8  -5    4.90    0.32
  -1  -8   5    4.78    0.32
   0   8  -5   -0.01    0.11
   0   8  -5    0.04    0.09
   0  -8   5    0.06    0.04
  -1   8  -5    0.45    0.10
  -1   8  -5    0.34    0.12
   6   7  -5    0.03    0.07
   6   7  -5   -0.06    0.05
   5   7  -5    3.07    0.23
   5   7  -5    2.78    0.23
  -5  -7   5    2.39    0.20
   4   7  -5    0.50    0.12
   4   7  -5    0.42    0.12
  -4  -7   5    0.35    0.08
   3   7  -5    0.18    0.12
   3   7  -5    0.11    0.11
  -3  -7   5    0.24    0.07
   2   7  -5    7.09    0.43
   2   7  -5    6.61    0.43
  -2  -7   5    7.34    0.45
   1   7  -5   14.22    1.09
   1   7  -5   15.29    0.76
  -1  -7   5   14.05    0.85
   0   7  -5    1.94    0.21
   0   7  -5    1.58    0.28
   0  -7   5    1.59    0.15
  -1   7  -5    0.24    0.15
  -1   7  -5    0.36    0.12
   1  -7   5    0.45    0.08
  -2   7  -5    1.02    0.20
  -2   7  -5    1.04    0.14
   2  -7   5    1.12    0.12
  -3   7  -5    5.78    0.33
  -3   7  -5    6.03    0.47
   7   6  -5    5.39    0.30
   6   6  -5    2.77    0.37
   6   6  -5    2.84    0.23
   6   6  -5    3.04    0.22
  -6  -6   5    2.79    0.22
   5   6  -5   14.00    0.70
   5   6  -5   14.40    0.74
   5   6  -5   12.30    1.15
  -5  -6   5   14.36    0.83
   4   6  -5    0.54    0.12
   4   6  -5    0.57    0.12
   3   6  -5   83.05    3.67
   3   6  -5   81.56    3.89
  -3  -6   5   79.31    4.56
   2   6  -5    9.80    0.53
   2   6  -5    9.37    0.54
   1   6  -5   67.61    3.01
   1   6  -5   64.44    3.17
   1   6  -5   66.48    4.36
   0   6  -5   16.75    0.83
   0   6  -5   15.70    1.20
  -1   6  -5    0.14    0.16
  -1   6  -5    0.08    0.11
   1  -6   5    0.19    0.06
  -2   6  -5    0.05    0.10
  -2   6  -5    0.20    0.15
   2  -6   5    0.12    0.06
  -3   6  -5    2.75    0.34
  -3   6  -5    3.25    0.25
   3  -6   5    2.73    0.22
  -4   6  -5    1.10    0.13
   7   5  -5    0.27    0.16
   7   5  -5    0.57    0.10
  -7  -5   5    0.66    0.11
   6   5  -5   14.06    1.31
   6   5  -5   16.02    0.82
   6   5  -5   17.19    0.80
  -6  -5   5   16.74    0.95
   5   5  -5    0.27    0.22
   5   5  -5    0.25    0.10
   5   5  -5    0.38    0.11
   5   5  -5    0.55    0.13
  -5  -5   5    0.47    0.10
   4   5  -5   19.18    0.98
   4   5  -5   18.64    0.94
   4   5  -5   19.24    1.60
   4   5  -5   19.79    0.99
  -4  -5   5   18.99    1.12
   3   5  -5    0.32    0.10
   3   5  -5    0.50    0.12
   3   5  -5    0.45    0.10
   2   5  -5    0.14    0.10
   2   5  -5    0.23    0.09
   2   5  -5    0.35    0.13
   1   5  -5    1.30    0.19
   0   5  -5   22.74    1.12
   0   5  -5   22.56    1.59
   0   5  -5   22.74    1.09
  -1   5  -5   33.06    1.54
  -1   5  -5   32.43    2.24
  -2   5  -5    0.29    0.11
  -2   5  -5    0.03    0.15
   2  -5   5    0.20    0.06
  -3   5  -5    4.79    0.50
  -3   5  -5    4.65    0.34
   3  -5   5    4.97    0.33
  -4   5  -5    3.33    0.25
   4  -5   5    2.74    0.23
  -5   5  -5    0.11    0.08
   5  -5   5    0.08    0.06
   7   4  -5    0.83    0.13
   7   4  -5    0.71    0.11
  -7  -4   5    0.67    0.12
   6   4  -5    0.72    0.13
   6   4  -5    0.55    0.11
   6   4  -5    0.50    0.21
  -6  -4   5    0.84    0.16
  -6  -4   5    0.69    0.12
   5   4  -5   19.78    1.03
   5   4  -5   20.82    0.99
   5   4  -5   20.74    1.02
   5   4  -5   19.83    1.66
  -5  -4   5   19.75    1.19
   4   4  -5    0.51    0.12
   4   4  -5    0.73    0.12
   4   4  -5    0.95    0.14
  -4  -4   5    0.73    0.12
   3   4  -5    2.49    0.27
  -3  -4   5    2.50    0.28
   2   4  -5    7.14    0.44
   1   4  -5    5.78    0.37
   0   4  -5    1.12    0.17
   0   4  -5    1.09    0.16
  -1   4  -5    1.43    0.18
  -2   4  -5    3.08    0.26
  -2   4  -5    3.43    0.28
  -2   4  -5    3.16    0.40
  -3   4  -5    1.97    0.30
  -3   4  -5    2.01    0.21
  -3   4  -5    1.93    0.33
   3  -4   5    2.13    0.18
  -4   4  -5   11.97    0.65
  -4   4  -5   12.03    1.09
   4  -4   5   12.07    0.73
  -5   4  -5    0.02    0.15
  -5   4  -5    0.17    0.11
   5  -4   5    0.07    0.08
   5  -4   5    0.04    0.06
  -6   4  -5    8.89    0.77
   6  -4   5    8.86    0.55
   7   3  -5    2.08    0.20
   7   3  -5    2.59    0.27
   7   3  -5    2.05    0.21
   7   3  -5    1.99    0.18
  -7  -3   5    2.09    0.24
   6   3  -5    3.95    0.30
   6   3  -5    4.76    0.43
   6   3  -5    3.86    0.33
   6   3  -5    4.03    0.29
  -6  -3   5    4.55    0.33
  -6  -3   5    4.12    0.36
   5   3  -5    0.28    0.11
   5   3  -5    0.24    0.10
   5   3  -5    0.33    0.12
  -5  -3   5    0.22    0.11
  -5  -3   5    0.39    0.13
  -4  -3   5    0.12    0.10
   3   3  -5   38.65    1.81
  -3  -3   5   39.27    1.99
   2   3  -5   26.01    1.24
   1   3  -5   -0.07    0.05
   1   3  -5    0.06    0.07
   1   3  -5    0.05    0.07
   0   3  -5    7.85    0.43
   0   3  -5    7.71    0.40
   0   3  -5    8.84    0.42
  -1   3  -5    0.06    0.07
  -1   3  -5    0.03    0.07
  -2   3  -5   12.93    0.64
  -3   3  -5    5.81    0.38
  -3   3  -5    5.91    0.37
   3  -3   5    6.37    0.39
  -4   3  -5   60.84    4.50
  -4   3  -5   57.35    2.62
   4  -3   5   59.82    3.24
   4  -3   5   51.16    3.25
  -5   3  -5    0.06    0.17
  -5   3  -5    0.18    0.12
   5  -3   5    0.21    0.10
   5  -3   5    0.27    0.09
  -6   3  -5    2.13    0.32
   6  -3   5    1.89    0.21
   7   2  -5    2.31    0.23
   7   2  -5    2.36    0.21
   7   2  -5    1.91    0.18
  -7  -2   5    2.23    0.25
   6   2  -5    5.31    0.39
   6   2  -5    5.75    0.35
  -6  -2   5    4.85    0.42
  -6  -2   5    5.14    0.38
   5   2  -5   24.00    1.14
   5   2  -5   19.18    1.84
   5   2  -5   20.25    1.31
  -5  -2   5   24.24    1.35
  -5  -2   5   26.50    1.39
  -4  -2   5    5.78    0.49
  -4  -2   5    6.23    0.41
  -4  -2   5    5.24    0.39
  -3  -2   5   41.77    2.01
  -3  -2   5   37.57    2.57
   2   2  -5    2.30    0.20
  -2  -2   5    1.85    0.19
  -2  -2   5    2.13    0.19
   1   2  -5  192.32    8.52
   1   2  -5  199.43    7.89
   1   2  -5  202.95    7.91
  -1  -2   5  187.72    9.41
   0   2  -5   64.70    2.73
   0   2  -5   66.59    2.73
   0   2  -5   68.40    2.93
   0  -2   5   65.93    3.21
  -1   2  -5  155.27    6.33
  -1   2  -5  156.48    6.32
  -2   2  -5    0.09    0.07
  -2   2  -5    0.09    0.08
   2  -2   5    0.06    0.09
  -3   2  -5   43.74    1.78
   3  -2   5   38.00    2.75
   3  -2   5   42.53    2.34
  -4   2  -5    5.31    0.34
  -4   2  -5    4.97    0.37
  -4   2  -5    5.23    0.58
   4  -2   5    4.76    0.38
   4  -2   5    5.44    0.35
  -5   2  -5    1.35    0.31
  -5   2  -5    1.46    0.19
  -5   2  -5    1.38    0.19
   5  -2   5    1.37    0.17
   5  -2   5    1.50    0.21
  -6   2  -5    3.53    0.30
  -6   2  -5    3.55    0.47
   6  -2   5    3.54    0.31
  -7   2  -5    0.72    0.17
   7  -2   5    0.81    0.12
   7   1  -5    0.94    0.15
   7   1  -5    0.60    0.10
  -7  -1   5    0.67    0.15
   6   1  -5    0.45    0.11
   6   1  -5    0.65    0.15
  -6  -1   5    0.72    0.18
  -6  -1   5    0.30    0.15
  -4  -1   5    0.57    0.14
  -4  -1   5    0.93    0.20
  -4  -1   5    0.41    0.13
  -3  -1   5    2.55    0.23
  -3  -1   5    2.63    0.27
   2   1  -5   15.06    0.63
  -2  -1   5   14.47    0.76
  -2  -1   5   13.22    0.96
   1   1  -5   10.72    0.48
   1   1  -5   11.07    0.55
   1   1  -5   11.60    0.50
  -1  -1   5   10.45    0.58
  -1  -1   5   11.11    0.73
   0   1  -5   18.45    0.88
   0   1  -5   20.40    0.83
   0   1  -5   19.84    0.83
   0  -1   5   19.55    1.23
   0  -1   5   18.80    0.96
   0  -1   5   18.10    0.97
  -1   1  -5    0.21    0.08
  -1   1  -5    0.14    0.07
   1  -1   5    0.26    0.08
   1  -1   5    0.22    0.07
  -2   1  -5   32.90    1.43
  -2   1  -5   33.45    1.43
   2  -1   5   34.75    2.22
  -3   1  -5    2.21    0.19
  -3   1  -5    1.75    0.18
   3  -1   5    2.08    0.28
  -4   1  -5   -0.02    0.08
   4  -1   5    0.05    0.15
   4  -1   5   -0.04    0.05
  -5   1  -5    1.73    0.19
  -5   1  -5    2.27    0.26
  -5   1  -5    1.79    0.34
   5  -1   5    2.03    0.19
   5  -1   5    2.38    0.24
  -6   1  -5    1.23    0.19
  -6   1  -5    1.48    0.31
   6  -1   5    1.54    0.21
  -7   1  -5    1.05    0.15
  -7   1  -5    1.06    0.23
   7  -1   5    1.26    0.17
   7   0  -5    0.86    0.11
   7   0  -5    1.16    0.17
  -7   0   5    0.84    0.16
   6   0  -5    0.32    0.10
  -6   0   5    0.43    0.14
   5   0  -5   33.03    1.86
   5   0  -5   32.52    1.59
  -5   0   5   33.42    1.89
  -5   0   5   31.09    1.93
  -4   0   5   17.92    1.12
  -4   0   5   18.03    1.03
  -4   0   5   20.73    1.37
  -3   0   5    9.95    0.75
  -3   0   5   10.38    0.59
  -3   0   5    9.76    0.58
   2   0  -5    0.53    0.09
  -2   0   5    0.50    0.11
  -2   0   5    0.51    0.11
  -2   0   5    0.41    0.12
   1   0  -5   16.84    0.69
   1   0  -5   14.52    0.66
  -1   0   5   15.30    0.81
  -1   0   5   15.50    0.81
  -1   0   5   15.88    1.05
   0   0  -5    5.06    0.25
   0   0  -5    5.38    0.27
   0   0   5    4.93    0.38
   0   0   5    4.81    0.31
   0   0   5    5.02    0.29
  -1   0  -5    4.51    0.25
  -1   0  -5    4.37    0.24
   1   0   5    5.04    0.37
   1   0   5    3.95    0.28
  -2   0  -5    1.58    0.15
  -2   0  -5    1.27    0.12
   2   0   5    1.29    0.13
   2   0   5    1.14    0.19
  -3   0  -5   15.43    0.68
  -3   0  -5   15.88    0.70
   3   0   5   13.41    1.08
  -4   0  -5    7.65    0.43
   4   0   5    8.24    0.50
  -5   0  -5    0.47    0.14
  -5   0  -5    0.45    0.20
   5   0   5    0.34    0.09
   5   0   5    0.60    0.14
  -6   0  -5    8.78    0.83
  -6   0  -5    8.95    0.59
   6   0   5    7.14    0.65
   6   0   5    8.13    0.58
  -7   0  -5    7.99    0.78
  -7   0  -5    8.58    0.57
   7   0   5    9.05    0.59
   7  -1  -5    8.30    0.46
   7  -1  -5    9.54    0.56
  -7   1   5    7.86    0.56
   6  -1  -5    0.36    0.11
   6  -1  -5    0.28    0.13
  -6   1   5    0.10    0.12
   5  -1  -5   62.43    2.74
   5  -1  -5   51.85    3.20
  -5   1   5   57.49    3.22
  -5   1   5   57.89    3.31
  -4   1   5    0.15    0.10
  -4   1   5    0.12    0.13
  -4   1   5    0.21    0.12
   3  -1  -5   17.87    0.85
  -3   1   5   18.98    1.11
  -3   1   5   18.64    1.01
  -3   1   5   18.28    0.99
  -3   1   5   19.69    1.33
   2  -1  -5   17.76    0.77
  -2   1   5   15.75    0.88
  -2   1   5   16.96    0.89
  -2   1   5   16.88    1.17
   1  -1  -5   18.14    0.80
   1  -1  -5   20.21    0.84
  -1   1   5   18.18    0.97
  -1   1   5   18.76    0.98
  -1   1   5   19.61    1.29
   0  -1  -5    6.58    0.33
   0  -1  -5    6.85    0.32
   0   1   5    6.00    0.36
   0   1   5    6.63    0.49
   0   1   5    6.49    0.38
  -1  -1  -5   19.78    0.86
  -1  -1  -5   21.39    0.86
   1   1   5   20.73    0.99
   1   1   5   19.90    1.01
   1   1   5   17.54    1.33
  -2  -1  -5   40.13    1.70
  -2  -1  -5   38.44    1.71
   2   1   5   41.45    2.01
   2   1   5   43.65    2.70
  -3  -1  -5   49.70    1.98
  -3  -1  -5   49.91    1.96
   3   1   5   41.55    3.10
  -4  -1  -5   25.64    1.09
   4   1   5   25.53    1.41
   4   1   5   21.72    1.73
  -5  -1  -5    0.36    0.13
   5   1   5    0.35    0.16
   5   1   5    0.42    0.13
  -6  -1  -5    4.99    0.42
   6   1   5    5.79    0.44
   6   1   5    5.03    0.50
  -7  -1  -5    7.51    0.53
   7   1   5    7.29    0.53
  -8  -1  -5    2.79    0.23
   8   1   5    2.49    0.22
   7  -2  -5    3.42    0.21
   7  -2  -5    3.51    0.27
   6  -2  -5   -0.02    0.08
   6  -2  -5    0.00    0.10
  -6   2   5   -0.04    0.11
   5  -2  -5    1.06    0.16
   5  -2  -5    1.09    0.19
  -5   2   5    0.86    0.17
  -5   2   5    0.97    0.21
   4  -2  -5    6.76    0.40
   4  -2  -5    7.59    0.49
  -4   2   5    5.50    0.49
  -4   2   5    7.09    0.49
  -3   2   5   10.55    0.67
  -3   2   5   10.53    0.63
  -3   2   5    9.76    0.82
   2  -2  -5    2.76    0.20
  -2   2   5    2.49    0.22
  -2   2   5    2.70    0.24
  -2   2   5    2.75    0.25
  -2   2   5    2.69    0.31
   1  -2  -5   34.96    1.95
   1  -2  -5   37.74    2.39
   1  -2  -5   34.22    1.52
  -1   2   5   34.69    1.79
  -1   2   5   37.10    1.99
  -1   2   5   34.02    1.77
  -1   2   5   36.80    2.36
   0  -2  -5   20.04    0.88
   0  -2  -5   19.06    1.10
   0  -2  -5   21.52    1.38
   0   2   5   18.46    1.02
   0   2   5   21.75    1.38
   0   2   5   19.69    1.03
  -1  -2  -5  142.73    8.15
  -1  -2  -5  152.66    6.13
  -1  -2  -5  154.92    9.61
   1   2   5  137.80    9.61
   1   2   5  162.66    7.28
   1   2   5  156.71    7.24
  -2  -2  -5   34.74    1.51
  -2  -2  -5   36.24    1.50
  -2  -2  -5   33.95    1.95
  -2  -2  -5   38.25    2.37
   2   2   5   35.56    2.39
   2   2   5   36.90    2.01
   2   2   5   35.13    1.79
  -3  -2  -5   49.35    2.09
  -3  -2  -5   49.66    2.70
   3   2   5   52.26    3.32
   3   2   5   49.42    2.78
   3   2   5   49.12    2.47
  -4  -2  -5    5.94    0.34
   4   2   5    4.63    0.54
   4   2   5    5.81    0.43
  -5  -2  -5   46.75    2.54
   5   2   5   46.86    2.57
   5   2   5   41.30    2.58
  -6  -2  -5    0.22    0.14
   6   2   5    0.24    0.19
   6   2   5    0.15    0.13
  -7  -2  -5    2.99    0.31
   7   2   5    3.65    0.32
  -8  -2  -5    2.04    0.20
   8   2   5    1.93    0.19
   6  -3  -5    1.36    0.18
   6  -3  -5    1.52    0.15
  -6   3   5    1.46    0.21
   5  -3  -5    0.01    0.11
   5  -3  -5    0.27    0.10
  -5   3   5    0.36    0.15
  -5   3   5    0.25    0.16
   4  -3  -5    1.32    0.20
   4  -3  -5    0.88    0.14
  -4   3   5    1.15    0.22
  -4   3   5    1.09    0.22
  -4   3   5    1.20    0.17
   3  -3  -5    0.16    0.08
  -3   3   5    0.11    0.14
  -3   3   5    0.11    0.11
  -3   3   5    0.28    0.11
   2  -3  -5    3.99    0.42
  -2   3   5    3.28    0.28
  -2   3   5    2.96    0.37
  -2   3   5    3.39    0.28
   1  -3  -5   14.49    1.13
   1  -3  -5   16.07    0.90
  -1   3   5   15.11    0.83
  -1   3   5   14.49    0.90
  -1   3   5   14.52    0.82
  -1   3   5   17.13    1.13
   0  -3  -5    1.48    0.16
   0  -3  -5    1.68    0.17
   0  -3  -5    1.51    0.26
   0   3   5    1.37    0.16
   0   3   5    1.49    0.18
   0   3   5    1.71    0.19
   0   3   5    1.60    0.26
  -1  -3  -5    1.20    0.22
  -1  -3  -5    1.21    0.14
  -1  -3  -5    1.31    0.15
   1   3   5    1.30    0.24
   1   3   5    1.55    0.18
   1   3   5    1.30    0.17
   1   3   5    1.37    0.16
  -2  -3  -5  278.27   10.76
  -2  -3  -5  282.05   14.37
   2   3   5  230.83   14.39
   2   3   5  266.62   16.91
   2   3   5  274.30   12.72
  -3  -3  -5    1.93    0.31
  -3  -3  -5    2.52    0.20
  -3  -3  -5    2.50    0.20
   3   3   5    2.10    0.23
   3   3   5    2.56    0.38
   3   3   5    2.93    0.26
  -4  -3  -5    0.26    0.10
   4   3   5    0.40    0.15
   4   3   5    0.46    0.21
   4   3   5    0.31    0.13
  -5  -3  -5    0.17    0.12
   5   3   5    0.29    0.13
   5   3   5    0.31    0.15
  -6  -3  -5    2.60    0.30
   6   3   5    3.06    0.30
   6   3   5    2.80    0.32
  -7  -3  -5    0.05    0.11
   7   3   5    0.00    0.11
  -8  -3  -5    0.09    0.07
   6  -4  -5    2.27    0.16
  -6   4   5    1.98    0.21
   5  -4  -5    0.94    0.13
   5  -4  -5    0.77    0.15
  -5   4   5    0.56    0.16
   4  -4  -5    0.04    0.11
   4  -4  -5    0.09    0.09
   4  -4  -5    0.00    0.10
  -4   4   5    0.26    0.15
  -4   4   5    0.13    0.13
   3  -4  -5    0.59    0.11
   3  -4  -5    0.83    0.14
   3  -4  -5    0.64    0.15
   3  -4  -5    0.68    0.14
  -3   4   5    1.17    0.20
  -3   4   5    0.91    0.19
  -3   4   5    0.93    0.14
   2  -4  -5    0.17    0.18
  -2   4   5    0.24    0.10
  -2   4   5    0.20    0.12
  -2   4   5    0.09    0.16
   1  -4  -5   26.69    1.81
   1  -4  -5   25.66    1.46
  -1   4   5   20.57    1.75
  -1   4   5   27.38    1.45
  -1   4   5   25.65    1.34
   0  -4  -5    9.94    0.59
   0  -4  -5    8.77    0.75
   0   4   5    9.16    0.76
   0   4   5    9.28    0.55
   0   4   5    8.59    0.55
   0   4   5    8.23    0.57
  -1  -4  -5    0.72    0.13
  -1  -4  -5    0.84    0.21
  -1  -4  -5    0.93    0.15
   1   4   5    0.91    0.14
   1   4   5    0.82    0.13
   1   4   5    0.74    0.21
   1   4   5    0.67    0.14
   1   4   5    0.63    0.13
  -2  -4  -5  134.24    8.00
  -2  -4  -5  163.37    9.46
   2   4   5  135.20    9.47
   2   4   5  146.97    8.01
   2   4   5  158.42    7.13
  -3  -4  -5    7.64    0.46
  -3  -4  -5    5.86    0.60
   3   4   5    6.26    0.47
   3   4   5    6.78    0.47
   3   4   5    6.79    0.65
  -4  -4  -5    1.08    0.15
  -4  -4  -5    0.95    0.16
   4   4   5    0.77    0.17
   4   4   5    0.87    0.29
   4   4   5    1.07    0.17
  -5  -4  -5    0.16    0.08
  -5  -4  -5    0.15    0.11
  -5  -4  -5    0.07    0.13
   5   4   5    0.13    0.12
   5   4   5    0.16    0.11
   5   4   5    0.38    0.15
  -6  -4  -5    3.50    0.33
   6   4   5    3.02    0.32
   6   4   5    3.40    0.32
  -7  -4  -5    0.32    0.12
   7   4   5    0.17    0.12
   5  -5  -5    1.41    0.16
   5  -5  -5    1.11    0.12
  -5   5   5    1.04    0.16
   4  -5  -5    1.19    0.18
   4  -5  -5    0.86    0.13
   4  -5  -5    1.39    0.18
  -4   5   5    0.67    0.17
   3  -5  -5    1.30    0.17
   3  -5  -5    1.60    0.18
   3  -5  -5    1.48    0.20
   3  -5  -5    1.54    0.22
  -3   5   5    1.16    0.22
   2  -5  -5    3.21    0.29
   2  -5  -5    3.07    0.29
   2  -5  -5    3.15    0.30
   2  -5  -5    2.83    0.23
  -2   5   5    3.06    0.34
   1  -5  -5   18.79    0.92
   1  -5  -5   19.65    1.12
   1  -5  -5   17.38    1.11
  -1   5   5   19.77    1.14
  -1   5   5   18.56    1.05
  -1   5   5   15.93    1.12
   0  -5  -5    1.19    0.27
   0  -5  -5    1.03    0.17
   0   5   5    1.31    0.15
   0   5   5    0.98    0.16
   0   5   5    0.98    0.18
  -1  -5  -5    9.39    0.50
  -1  -5  -5   10.02    0.62
  -1  -5  -5   10.38    0.82
   1   5   5    8.81    0.51
   1   5   5    8.80    0.57
   1   5   5    8.72    0.56
   1   5   5    8.93    0.81
   1   5   5    8.12    0.57
  -2  -5  -5    5.40    0.56
  -2  -5  -5    5.67    0.42
   2   5   5    5.50    0.38
   2   5   5    5.16    0.42
   2   5   5    6.34    0.63
  -3  -5  -5   30.41    1.44
  -3  -5  -5   30.46    1.77
  -3  -5  -5   31.75    1.81
   3   5   5   28.86    1.64
   3   5   5   33.13    1.80
   3   5   5   30.33    1.73
  -4  -5  -5   25.81    1.52
  -4  -5  -5   25.05    1.48
  -4  -5  -5   24.34    1.21
   4   5   5   25.93    1.51
   4   5   5   26.27    1.52
  -5  -5  -5    5.03    0.40
  -5  -5  -5    4.81    0.36
  -5  -5  -5    5.23    0.41
   5   5   5    5.18    0.42
  -6  -5  -5   19.53    1.17
  -6  -5  -5   20.49    1.16
   6   5   5   17.98    1.17
  -7  -5  -5    0.06    0.09
   7   5   5   -0.01    0.10
   4  -6  -5    1.78    0.19
   4  -6  -5    1.87    0.16
  -4   6   5    1.55    0.20
   3  -6  -5   14.05    0.91
   3  -6  -5   15.49    0.77
  -3   6   5   14.84    0.93
   2  -6  -5    0.22    0.12
   2  -6  -5    0.15    0.10
  -2   6   5    0.15    0.14
   1  -6  -5    0.15    0.08
   1  -6  -5    0.15    0.12
   1  -6  -5    0.30    0.12
  -1   6   5    0.22    0.15
   0  -6  -5   10.39    0.56
   0  -6  -5   10.20    0.54
   0  -6  -5   10.96    0.68
   0  -6  -5    9.76    0.69
   0   6   5   10.02    0.70
  -1  -6  -5    9.48    0.55
  -1  -6  -5   10.14    0.68
  -1  -6  -5   11.07    0.70
   1   6   5   10.77    0.70
  -2  -6  -5    3.86    0.37
  -2  -6  -5    4.09    0.30
  -2  -6  -5    4.61    0.37
   2   6   5    4.64    0.39
  -3  -6  -5    3.83    0.29
  -3  -6  -5    4.26    0.35
  -3  -6  -5    3.83    0.34
   3   6   5    3.55    0.35
  -4  -6  -5    0.45    0.14
  -4  -6  -5    0.30    0.11
  -4  -6  -5    0.25    0.12
   4   6   5    0.43    0.15
  -5  -6  -5    2.79    0.29
  -5  -6  -5    2.69    0.24
   5   6   5    3.09    0.31
  -6  -6  -5    0.52    0.13
   6   6   5    0.30    0.14
   7   6   5    7.28    0.48
   3  -7  -5    5.44    0.39
   3  -7  -5    5.74    0.33
  -3   7   5    5.95    0.41
   2  -7  -5   12.18    0.63
   2  -7  -5   11.70    0.75
  -2   7   5   12.32    0.77
   1  -7  -5    0.13    0.09
   1  -7  -5    0.24    0.11
  -1   7   5    0.21    0.14
  -1   7   5    0.08    0.13
   0  -7  -5    0.16    0.12
   0  -7  -5    0.14    0.08
   0   7   5    0.10    0.13
  -1  -7  -5    0.05    0.10
  -1  -7  -5    0.17    0.12
  -1  -7  -5    0.08    0.10
   1   7   5    0.23    0.14
  -2  -7  -5    2.99    0.25
  -2  -7  -5    3.04    0.30
  -2  -7  -5    2.70    0.31
   2   7   5    3.32    0.33
  -3  -7  -5    0.20    0.10
  -3  -7  -5    0.43    0.14
   3   7   5    0.15    0.14
  -4  -7  -5    0.27    0.13
  -4  -7  -5    0.29    0.11
   4   7   5    0.37    0.15
  -5  -7  -5    2.03    0.19
  -5  -7  -5    2.33    0.24
   5   7   5    1.40    0.21
  -6  -7  -5    0.05    0.07
  -6  -7  -5    0.07    0.08
   6   7   5    0.19    0.11
   2  -8  -5    0.83    0.11
  -2   8   5    0.73    0.12
   1  -8  -5    1.93    0.21
   1  -8  -5    2.12    0.17
  -1   8   5    1.94    0.27
  -1   8   5    2.53    0.25
   0  -8  -5    0.50    0.10
   0  -8  -5    0.49    0.12
   0   8   5    0.48    0.15
   0   8   5    0.48    0.16
  -1  -8  -5    0.92    0.16
   1   8   5    1.49    0.21
  -2  -8  -5    0.72    0.12
  -2  -8  -5    1.01    0.16
   2   8   5    0.87    0.18
  -3  -8  -5    2.00    0.22
  -3  -8  -5    1.58    0.17
   3   8   5    2.37    0.26
  -4  -8  -5    3.06    0.28
  -4  -8  -5    3.25    0.23
   4   8   5    3.64    0.31
  -5  -8  -5    0.41    0.10
  -5  -8  -5    0.28    0.08
   5   8   5    0.37    0.12
  -1  -9  -5    0.65    0.10
   1   9   5    0.64    0.12
   1   9   5    0.63    0.14
  -2  -9  -5    0.42    0.08
  -2  -9  -5    0.62    0.10
   2   9   5    0.31    0.12
   2   9   5    0.49    0.11
  -3  -9  -5    0.13    0.07
  -3  -9  -5    0.27    0.07
   3   9   5    0.07    0.10
   3   9   5    0.26    0.09
   4   8  -6    1.32    0.13
   4   8  -6    1.45    0.15
   3   8  -6    0.15    0.09
   3   8  -6    0.10    0.09
   2   8  -6    0.11    0.09
   2   8  -6    0.18    0.08
  -2  -8   6    0.05    0.04
   1   8  -6    0.49    0.15
   1   8  -6    0.65    0.12
  -1  -8   6    0.59    0.08
   0   8  -6    0.02    0.08
   0   8  -6    0.04    0.10
  -1   8  -6    0.29    0.08
  -1   8  -6    0.34    0.11
   5   7  -6    2.00    0.19
   5   7  -6    2.13    0.18
  -5  -7   6    1.83    0.16
   4   7  -6    5.90    0.34
   4   7  -6    5.38    0.35
  -4  -7   6    5.11    0.35
   3   7  -6    2.02    0.21
   3   7  -6    1.41    0.18
  -3  -7   6    1.90    0.16
   2   7  -6    1.03    0.15
   2   7  -6    0.89    0.14
  -2  -7   6    0.86    0.10
   1   7  -6    2.85    0.36
   1   7  -6    2.77    0.25
   0   7  -6    1.47    0.26
   0   7  -6    2.31    0.22
   0  -7   6    2.28    0.17
  -1   7  -6    4.29    0.29
  -1   7  -6    3.88    0.42
   1  -7   6    3.59    0.25
  -2   7  -6    0.96    0.14
  -2   7  -6    1.02    0.19
   2  -7   6    1.04    0.11
   6   6  -6    0.07    0.07
   6   6  -6    0.03    0.08
  -6  -6   6    0.03    0.05
   5   6  -6    3.43    0.51
   5   6  -6    4.98    0.31
   5   6  -6    4.14    0.29
  -5  -6   6    4.44    0.30
   4   6  -6    2.74    0.24
   4   6  -6    2.41    0.23
   4   6  -6    3.28    0.46
  -4  -6   6    2.38    0.20
   3   6  -6    0.05    0.10
   3   6  -6    0.05    0.10
   2   6  -6    9.55    0.53
   2   6  -6    9.39    0.54
   1   6  -6    0.25    0.11
   1   6  -6    0.04    0.12
   0   6  -6    0.31    0.12
   0   6  -6    0.32    0.16
  -1   6  -6   14.45    0.75
  -1   6  -6   14.49    1.10
   1  -6   6   14.42    0.85
  -2   6  -6    0.62    0.14
  -2   6  -6    0.34    0.18
   2  -6   6    0.47    0.08
  -3   6  -6    0.11    0.11
  -3   6  -6    0.01    0.10
   3  -6   6   -0.07    0.04
  -4   6  -6    0.19    0.08
   7   5  -6    0.49    0.08
   7   5  -6    0.07    0.12
   6   5  -6    2.06    0.35
   6   5  -6    3.09    0.23
   6   5  -6    2.79    0.22
  -6  -5   6    3.00    0.22
   5   5  -6   10.01    1.00
   5   5  -6   11.43    0.61
   5   5  -6   10.72    0.58
   5   5  -6   10.90    0.60
  -5  -5   6   11.49    0.68
   4   5  -6    0.09    0.30
   4   5  -6    0.02    0.09
   4   5  -6    0.07    0.10
   4   5  -6    0.16    0.09
  -4  -5   6   -0.08    0.07
   3   5  -6   17.06    0.84
   3   5  -6   17.14    0.88
   3   5  -6   17.05    0.86
   3   5  -6   15.40    1.47
   2   5  -6   31.92    1.58
   2   5  -6   32.28    1.51
   1   5  -6    2.64    0.22
   1   5  -6    2.77    0.34
   1   5  -6    2.72    0.23
   0   5  -6    8.44    0.48
   0   5  -6    8.60    0.71
  -1   5  -6   10.60    0.59
  -1   5  -6   11.08    0.87
  -2   5  -6    6.71    0.42
  -2   5  -6    6.90    0.63
   2  -5   6    6.57    0.42
  -3   5  -6    7.07    0.44
  -3   5  -6    7.13    0.64
   3  -5   6    7.61    0.47
  -4   5  -6    0.67    0.17
  -4   5  -6    0.90    0.14
   4  -5   6    0.70    0.10
   7   4  -6    0.68    0.11
   7   4  -6    0.63    0.18
   7   4  -6    0.93    0.11
  -7  -4   6    1.02    0.13
   6   4  -6    0.18    0.19
   6   4  -6    0.51    0.12
   6   4  -6    0.42    0.10
  -6  -4   6    0.59    0.11
  -6  -4   6    0.58    0.13
   5   4  -6   23.80    1.26
   5   4  -6   24.95    2.06
   5   4  -6   26.36    1.21
   5   4  -6   26.00    1.26
  -5  -4   6   25.24    1.48
   4   4  -6    1.64    0.41
   4   4  -6    2.20    0.20
   4   4  -6    2.13    0.20
   4   4  -6    1.44    0.17
  -4  -4   6    1.69    0.19
   3   4  -6    1.33    0.16
   3   4  -6    1.41    0.16
   3   4  -6    1.73    0.18
  -3  -4   6    2.23    0.26
   2   4  -6    9.62    0.56
  -2  -4   6    9.37    0.59
   1   4  -6    0.14    0.09
   0   4  -6    7.92    0.46
   0   4  -6    7.52    0.44
  -1   4  -6    0.08    0.11
  -2   4  -6    0.12    0.16
  -2   4  -6    0.21    0.11
  -2   4  -6    0.13    0.17
  -3   4  -6    3.25    0.40
  -3   4  -6    3.23    0.44
  -3   4  -6    3.08    0.26
   3  -4   6    3.12    0.23
  -4   4  -6    2.57    0.24
  -4   4  -6    2.13    0.36
  -4   4  -6    2.11    0.30
   4  -4   6    2.42    0.20
  -5   4  -6    0.28    0.11
  -5   4  -6    0.45    0.18
   5  -4   6    0.46    0.09
   7   3  -6    2.10    0.25
   7   3  -6    2.15    0.19
   7   3  -6    2.18    0.18
  -7  -3   6    2.24    0.22
   6   3  -6    3.97    0.48
   6   3  -6    4.31    0.31
   6   3  -6    4.79    0.32
  -6  -3   6    5.13    0.38
  -6  -3   6    4.80    0.34
   5   3  -6   41.17    1.81
   5   3  -6   38.19    1.90
   5   3  -6   39.67    3.07
   5   3  -6   39.68    1.88
  -5  -3   6   35.93    2.23
   4   3  -6   50.89    2.35
   4   3  -6   47.24    2.25
   4   3  -6   50.55    2.39
   4   3  -6   46.47    3.88
  -4  -3   6   51.43    2.80
   3   3  -6    1.23    0.19
  -3  -3   6    1.04    0.17
   2   3  -6   13.81    0.72
  -2  -3   6   13.88    0.78
   1   3  -6    3.97    0.28
   1   3  -6    3.37    0.24
   1   3  -6    3.55    0.23
  -1  -3   6    4.13    0.29
   0   3  -6    0.18    0.09
   0   3  -6    0.01    0.07
   0   3  -6    0.06    0.07
  -1   3  -6    5.13    0.33
  -1   3  -6    5.49    0.32
  -2   3  -6    0.10    0.09
  -3   3  -6    0.87    0.15
  -3   3  -6    0.42    0.20
  -3   3  -6    0.62    0.19
   3  -3   6    0.63    0.09
  -4   3  -6   27.04    2.17
  -4   3  -6   26.33    1.26
  -4   3  -6   26.39    1.83
   4  -3   6   25.47    1.52
  -5   3  -6    0.02    0.17
  -5   3  -6    0.10    0.10
   5  -3   6   -0.04    0.06
   5  -3   6   -0.01    0.07
  -6   3  -6    0.40    0.16
   6  -3   6    0.32    0.10
   7   2  -6    9.92    0.53
   7   2  -6   10.05    0.60
   7   2  -6    9.11    0.51
  -7  -2   6   10.79    0.66
   6   2  -6    0.85    0.13
   6   2  -6    1.10    0.16
   6   2  -6    0.79    0.14
  -6  -2   6    0.80    0.14
  -6  -2   6    1.07    0.19
   5   2  -6   16.08    0.83
   5   2  -6   16.14    0.81
   5   2  -6   16.67    0.95
  -5  -2   6   15.10    0.98
  -5  -2   6   16.47    1.01
  -4  -2   6    4.61    0.37
  -4  -2   6    6.17    0.41
  -3  -2   6   79.19    3.91
   2   2  -6    0.60    0.12
  -2  -2   6    0.69    0.12
   1   2  -6   37.80    1.58
   1   2  -6   37.75    1.57
   1   2  -6   36.63    1.71
  -1  -2   6   37.55    1.87
   0   2  -6    2.18    0.17
   0   2  -6    1.91    0.17
   0   2  -6    2.20    0.18
   0  -2   6    2.21    0.18
  -1   2  -6    1.19    0.14
  -1   2  -6    1.25    0.14
  -2   2  -6   21.90    1.02
  -2   2  -6   23.85    1.03
  -3   2  -6   -0.06    0.08
   3  -2   6    0.04    0.05
  -4   2  -6   40.04    1.87
  -4   2  -6   39.73    3.21
  -4   2  -6   39.59    2.71
   4  -2   6   41.68    2.30
  -5   2  -6   12.84    0.66
  -5   2  -6   12.62    1.13
  -5   2  -6   11.60    0.75
   5  -2   6   13.41    0.80
   5  -2   6   11.82    0.76
  -6   2  -6    0.13    0.16
   6  -2   6    0.20    0.09
   7   1  -6    0.45    0.11
   7   1  -6    0.45    0.09
  -7  -1   6    0.48    0.12
   6   1  -6    3.69    0.28
   6   1  -6    4.16    0.32
  -6  -1   6    3.60    0.35
  -4  -1   6    0.36    0.13
  -4  -1   6    0.36    0.13
  -4  -1   6    0.10    0.13
  -4  -1   6    0.40    0.16
  -3  -1   6    0.09    0.06
  -3  -1   6    0.11    0.10
  -3  -1   6    0.16    0.10
  -3  -1   6    0.12    0.10
   2   1  -6   13.14    0.61
  -2  -1   6   13.89    0.92
  -2  -1   6   13.37    0.74
  -2  -1   6   13.36    0.75
   1   1  -6   18.96    0.83
   1   1  -6   19.02    0.85
  -1  -1   6   19.52    1.00
  -1  -1   6   19.75    1.26
  -1  -1   6   19.49    1.01
   0   1  -6   12.03    0.55
   0   1  -6   11.56    0.54
   0  -1   6   11.25    0.62
   0  -1   6   12.25    0.64
  -1   1  -6   34.88    1.52
  -1   1  -6   36.44    1.53
   1  -1   6   36.24    1.78
   1  -1   6   36.85    2.33
  -2   1  -6   52.04    2.25
  -2   1  -6   53.85    2.25
   2  -1   6   55.38    3.48
  -3   1  -6   25.35    1.08
  -3   1  -6   24.68    1.07
   3  -1   6   23.70    1.37
   3  -1   6   22.09    1.65
  -4   1  -6    3.13    0.45
  -4   1  -6    3.15    0.27
  -4   1  -6    3.55    0.28
   4  -1   6    3.37    0.25
  -5   1  -6   -0.10    0.15
  -5   1  -6    0.07    0.10
   5  -1   6    0.01    0.07
   5  -1   6    0.09    0.10
  -6   1  -6   -0.03    0.15
  -6   1  -6   -0.04    0.10
   6  -1   6   -0.03    0.09
  -7   1  -6    0.30    0.14
  -7   1  -6    0.36    0.08
   7  -1   6    0.28    0.10
   7   0  -6    0.02    0.08
   7   0  -6    0.00    0.06
  -7   0   6   -0.04    0.09
   6   0  -6    0.14    0.10
   6   0  -6    0.05    0.11
  -6   0   6    0.14    0.12
   5   0  -6   10.36    0.60
   5   0  -6   10.91    0.69
  -5   0   6   11.54    0.75
   4   0  -6    9.28    0.51
  -4   0   6    7.04    0.74
  -4   0   6    9.10    0.57
  -4   0   6    9.66    0.60
  -4   0   6    8.35    0.55
  -3   0   6    0.34    0.11
  -3   0   6    0.36    0.12
  -3   0   6    0.17    0.11
  -3   0   6    0.20    0.09
   2   0  -6   19.38    0.91
  -2   0   6   20.75    1.09
  -2   0   6   22.10    1.41
  -2   0   6   20.82    1.09
   1   0  -6   31.98    1.40
  -1   0   6   33.87    1.65
  -1   0   6   33.99    2.16
  -1   0   6   32.32    1.65
   0   0  -6   12.04    0.57
   0   0  -6   13.22    0.56
   0   0   6   12.58    0.65
   0   0   6   12.22    0.67
   0   0   6   12.19    0.85
  -1   0  -6    7.16    0.38
  -1   0  -6    7.71    0.39
   1   0   6    7.85    0.44
   1   0   6    7.58    0.57
  -2   0  -6    5.03    0.30
  -2   0  -6    4.97    0.28
   2   0   6    5.20    0.45
  -3   0  -6    1.31    0.16
  -3   0  -6    1.40    0.15
   3   0   6    1.41    0.13
   3   0   6    1.04    0.23
  -4   0  -6    9.92    0.52
   4   0   6   10.19    0.61
   4   0   6    9.47    0.84
  -5   0  -6    0.78    0.16
  -5   0  -6    0.81    0.23
   5   0   6    0.63    0.14
   5   0   6    0.56    0.10
  -6   0  -6    0.42    0.20
  -6   0  -6    0.56    0.15
   6   0   6    0.53    0.15
  -7   0  -6    0.36    0.15
  -7   0  -6    0.32    0.11
   7   0   6    0.30    0.12
   7  -1  -6    0.79    0.13
   7  -1  -6    0.52    0.08
  -7   1   6    0.69    0.12
   6  -1  -6    0.82    0.13
  -6   1   6    0.50    0.14
   5  -1  -6    5.19    0.35
   5  -1  -6    5.64    0.41
  -5   1   6    5.81    0.46
  -5   1   6    4.70    0.42
   4  -1  -6   31.62    1.80
   4  -1  -6   32.17    1.54
   4  -1  -6   30.18    2.47
  -4   1   6   31.92    1.85
  -4   1   6   32.58    1.88
   3  -1  -6   31.72    1.46
  -3   1   6   36.69    2.29
  -3   1   6   34.70    1.72
  -3   1   6   30.24    1.93
  -3   1   6   35.53    1.75
   2  -1  -6   43.13    1.81
  -2   1   6   44.24    2.13
  -2   1   6   44.69    2.14
  -2   1   6   38.42    2.79
   1  -1  -6   36.14    1.52
  -1   1   6   33.50    2.35
  -1   1   6   37.48    1.80
  -1   1   6   36.48    1.80
   0  -1  -6   71.55    3.01
   0  -1  -6   75.42    2.99
   0   1   6   75.26    3.56
   0   1   6   73.98    3.55
   0   1   6   69.08    4.68
  -1  -1  -6    3.15    0.21
  -1  -1  -6    3.14    0.21
   1   1   6    3.15    0.24
   1   1   6    3.71    0.33
  -2  -1  -6   11.01    0.55
  -2  -1  -6   11.52    0.54
   2   1   6   12.19    0.64
   2   1   6   11.52    0.86
  -3  -1  -6    1.19    0.13
  -3  -1  -6    1.19    0.15
   3   1   6    0.87    0.22
   3   1   6    0.97    0.11
  -4  -1  -6    0.28    0.11
   4   1   6    0.39    0.09
   4   1   6    0.22    0.17
  -5  -1  -6    0.98    0.18
   5   1   6    0.71    0.16
  -6  -1  -6   -0.09    0.11
   6   1   6    0.08    0.12
  -7  -1  -6    0.39    0.12
   7   1   6    0.08    0.11
   6  -2  -6    0.78    0.15
   6  -2  -6    0.94    0.13
  -6   2   6    1.11    0.19
   5  -2  -6   15.50    0.80
   5  -2  -6   14.05    0.93
  -5   2   6   15.87    0.98
   4  -2  -6    5.54    0.36
   4  -2  -6    6.53    0.45
  -4   2   6    6.15    0.48
  -4   2   6    5.06    0.44
   3  -2  -6    2.88    0.25
  -3   2   6    3.26    0.29
  -3   2   6    2.42    0.34
  -3   2   6    3.02    0.29
   2  -2  -6   12.16    0.59
  -2   2   6   12.04    0.89
  -2   2   6   11.80    0.67
  -2   2   6   10.45    0.71
  -2   2   6   11.97    0.68
   1  -2  -6   65.83    2.68
  -1   2   6   66.61    3.15
  -1   2   6   57.81    4.16
  -1   2   6   66.58    3.17
   0  -2  -6    6.88    0.36
   0  -2  -6    6.92    0.34
   0   2   6    6.25    0.54
   0   2   6    6.47    0.42
   0   2   6    6.47    0.39
  -1  -2  -6    3.79    0.25
  -1  -2  -6    4.23    0.26
   1   2   6    4.48    0.31
   1   2   6    4.45    0.42
  -2  -2  -6    3.64    0.24
  -2  -2  -6    3.77    0.23
   2   2   6    3.82    0.29
   2   2   6    3.69    0.39
  -3  -2  -6    3.76    0.26
   3   2   6    4.03    0.42
   3   2   6    3.51    0.30
   3   2   6    3.85    0.27
  -4  -2  -6    1.71    0.19
   4   2   6    2.01    0.26
   4   2   6    1.89    0.17
   4   2   6    1.33    0.31
  -5  -2  -6    2.63    0.27
   5   2   6    2.55    0.31
   5   2   6    2.12    0.26
  -6  -2  -6   12.65    0.80
   6   2   6   11.91    0.81
  -7  -2  -6   10.14    0.62
   7   2   6    8.50    0.62
   6  -3  -6    0.22    0.08
   6  -3  -6    0.08    0.09
  -6   3   6   -0.03    0.07
   5  -3  -6    1.20    0.16
   5  -3  -6    1.76    0.23
  -5   3   6    1.46    0.23
   4  -3  -6    0.08    0.08
   4  -3  -6    0.13    0.12
  -4   3   6    0.16    0.13
  -4   3   6    0.04    0.10
   2  -3  -6   11.11    0.59
  -2   3   6   11.60    0.72
  -2   3   6   10.69    0.67
   1  -3  -6    3.39    0.26
   1  -3  -6    3.53    0.24
  -1   3   6    3.62    0.29
  -1   3   6    3.51    0.29
  -1   3   6    3.70    0.28
  -1   3   6    3.39    0.39
   0  -3  -6    2.79    0.23
   0  -3  -6    2.94    0.21
   0   3   6    2.87    0.23
   0   3   6    2.82    0.26
   0   3   6    3.25    0.36
   0   3   6    2.86    0.25
  -1  -3  -6    3.02    0.20
  -1  -3  -6    2.76    0.21
   1   3   6    2.88    0.34
   1   3   6    2.63    0.25
   1   3   6    3.05    0.26
   1   3   6    2.88    0.23
  -2  -3  -6  121.26    4.79
  -2  -3  -6  116.25    4.80
  -2  -3  -6  118.92    6.32
   2   3   6  100.85    6.38
   2   3   6  121.05    5.68
   2   3   6  125.10    7.57
  -3  -3  -6    3.68    0.28
   3   3   6    4.38    0.35
   3   3   6    4.12    0.46
   3   3   6    4.06    0.34
  -4  -3  -6   10.14    0.54
   4   3   6   10.30    0.69
   4   3   6   10.09    0.94
  -5  -3  -6    7.32    0.55
   5   3   6    8.03    0.59
   5   3   6    8.62    0.57
  -6  -3  -6    0.17    0.13
   6   3   6    0.12    0.12
  -7  -3  -6    4.29    0.34
   7   3   6    3.85    0.34
   5  -4  -6    0.10    0.09
   5  -4  -6    0.04    0.10
  -5   4   6    0.13    0.12
   4  -4  -6   10.71    0.59
   4  -4  -6   10.67    0.70
  -4   4   6   10.61    0.73
  -4   4   6   11.01    0.74
   3  -4  -6    0.14    0.12
   3  -4  -6    0.08    0.08
  -3   4   6    0.35    0.15
  -3   4   6    0.09    0.10
  -3   4   6    0.07    0.12
   2  -4  -6    4.93    0.32
   2  -4  -6    4.48    0.38
   2  -4  -6    4.88    0.39
   2  -4  -6    5.17    0.35
  -2   4   6    5.91    0.44
  -2   4   6    5.30    0.39
   1  -4  -6    5.99    0.40
   1  -4  -6    5.45    0.38
  -1   4   6    5.23    0.42
  -1   4   6    6.25    0.43
  -1   4   6    5.87    0.57
   0  -4  -6    4.38    0.47
   0  -4  -6    4.16    0.31
   0  -4  -6    4.20    0.31
   0   4   6    4.28    0.34
   0   4   6    4.07    0.33
   0   4   6    3.86    0.45
   0   4   6    4.03    0.32
  -1  -4  -6    0.77    0.15
  -1  -4  -6    0.63    0.12
  -1  -4  -6    0.78    0.22
   1   4   6    0.54    0.15
   1   4   6    0.69    0.14
   1   4   6    0.78    0.15
   1   4   6    0.72    0.22
   1   4   6    0.51    0.11
  -2  -4  -6    8.54    0.54
  -2  -4  -6    8.20    0.73
   2   4   6    8.99    0.78
   2   4   6    8.64    0.57
   2   4   6    8.92    0.56
  -3  -4  -6   20.27    0.91
  -3  -4  -6   18.38    1.08
   3   4   6   19.52    1.07
   3   4   6   19.00    1.45
   3   4   6   18.52    1.14
  -4  -4  -6    6.57    0.48
   4   4   6    6.61    0.49
   4   4   6    6.81    0.49
  -5  -4  -6    2.97    0.30
   5   4   6    3.05    0.32
   5   4   6    2.98    0.30
  -6  -4  -6    0.93    0.17
   6   4   6    0.99    0.18
   6   4   6    1.30    0.21
  -7  -4  -6    1.15    0.16
   7   4   6    1.19    0.17
   7   4   6    1.19    0.17
   5  -5  -6    2.31    0.16
   5  -5  -6    2.16    0.19
  -5   5   6    1.73    0.20
   4  -5  -6    0.86    0.15
   4  -5  -6    0.73    0.12
  -4   5   6    0.93    0.18
   3  -5  -6   31.58    1.94
   3  -5  -6   32.95    1.65
   3  -5  -6   35.75    1.98
  -3   5   6   34.39    1.99
  -3   5   6   35.49    2.01
   2  -5  -6   17.70    1.06
   2  -5  -6   17.80    0.89
   2  -5  -6   16.94    1.02
   2  -5  -6   17.79    1.04
  -2   5   6   17.19    1.08
  -2   5   6   15.94    1.08
   1  -5  -6    0.07    0.07
   1  -5  -6    0.07    0.10
   1  -5  -6    0.16    0.10
   1  -5  -6    0.10    0.11
  -1   5   6    0.16    0.13
  -1   5   6    0.23    0.09
  -1   5   6    0.23    0.14
   0  -5  -6   63.58    3.19
   0  -5  -6   57.11    3.26
   0  -5  -6   57.62    2.59
   0  -5  -6   56.68    3.19
   0  -5  -6   56.53    2.46
   0   5   6   56.68    3.17
   0   5   6   58.44    2.93
   0   5   6   60.37    3.24
   0   5   6   53.98    2.61
   0   5   6   53.29    3.28
   0   5   6   55.70    2.87
  -1  -5  -6    1.20    0.16
  -1  -5  -6    1.39    0.19
  -1  -5  -6    1.19    0.20
  -1  -5  -6    1.15    0.28
   1   5   6    1.29    0.22
   1   5   6    0.89    0.17
   1   5   6    1.44    0.17
   1   5   6    1.41    0.32
  -2  -5  -6   35.31    1.62
  -2  -5  -6   30.06    2.02
  -2  -5  -6   37.59    1.98
  -2  -5  -6   35.11    2.00
   2   5   6   32.53    1.83
   2   5   6   36.56    1.98
   2   5   6   35.08    2.04
   2   5   6   37.70    2.06
  -3  -5  -6    5.39    0.44
  -3  -5  -6    6.07    0.41
  -3  -5  -6    5.80    0.36
  -3  -5  -6    5.54    0.43
   3   5   6    5.53    0.45
   3   5   6    6.12    0.42
  -4  -5  -6   20.59    1.17
  -4  -5  -6   20.32    1.11
  -4  -5  -6   18.28    1.17
  -4  -5  -6   19.25    0.94
   4   5   6   20.04    1.13
   4   5   6   16.86    1.18
   4   5   6   19.60    1.18
  -5  -5  -6    9.55    0.62
  -5  -5  -6    8.37    0.61
   5   5   6    9.07    0.62
   5   5   6    9.13    0.63
  -6  -5  -6    3.33    0.31
   6   5   6    3.25    0.31
  -7  -5  -6    3.89    0.31
   7   5   6    4.18    0.33
   4  -6  -6    2.40    0.21
   4  -6  -6    2.25    0.18
  -4   6   6    2.50    0.25
   3  -6  -6    5.88    0.43
   3  -6  -6    6.69    0.44
   3  -6  -6    6.86    0.38
  -3   6   6    5.13    0.46
   2  -6  -6   10.89    0.58
   2  -6  -6    9.38    0.68
   2  -6  -6    9.99    0.68
  -2   6   6   12.56    0.74
   1  -6  -6   15.55    0.82
   1  -6  -6   17.24    1.00
   1  -6  -6   14.40    0.97
   1  -6  -6   15.58    0.95
  -1   6   6   17.54    1.02
   0  -6  -6    0.55    0.13
   0  -6  -6    0.54    0.12
   0  -6  -6    0.53    0.14
   0  -6  -6    0.68    0.16
   0   6   6    0.36    0.15
  -1  -6  -6    3.63    0.27
  -1  -6  -6    3.01    0.31
  -1  -6  -6    4.46    0.34
  -1  -6  -6    4.13    0.33
   1   6   6    3.71    0.36
  -2  -6  -6   10.99    0.70
  -2  -6  -6   11.75    0.71
  -2  -6  -6   10.72    0.69
  -2  -6  -6   11.34    0.58
   2   6   6    8.98    0.71
  -3  -6  -6    0.12    0.12
  -3  -6  -6    0.23    0.10
  -3  -6  -6    0.43    0.14
  -3  -6  -6    0.11    0.09
   3   6   6    0.19    0.14
  -4  -6  -6    1.08    0.18
  -4  -6  -6    1.45    0.20
  -4  -6  -6    1.46    0.18
  -4  -6  -6    1.62    0.18
   4   6   6    1.49    0.23
  -5  -6  -6    1.26    0.19
  -5  -6  -6    1.50    0.19
  -5  -6  -6    1.12    0.14
   5   6   6    1.60    0.24
  -6  -6  -6   14.72    0.88
   6   6   6   14.31    0.90
   7   6   6    1.86    0.19
   3  -7  -6    2.04    0.16
  -3   7   6    2.07    0.21
   2  -7  -6    8.95    0.47
   2  -7  -6    8.77    0.56
  -2   7   6    8.39    0.59
   1  -7  -6    1.02    0.16
   1  -7  -6    0.93    0.13
  -1   7   6    0.68    0.16
   0  -7  -6    1.00    0.16
   0   7   6    0.65    0.17
  -1  -7  -6    0.08    0.09
  -1  -7  -6    0.07    0.09
   1   7   6    0.13    0.14
  -2  -7  -6    2.40    0.25
  -2  -7  -6    2.42    0.22
   2   7   6    2.39    0.30
  -3  -7  -6    0.20    0.11
  -3  -7  -6    0.04    0.09
   3   7   6    0.08    0.13
  -4  -7  -6    6.05    0.42
  -4  -7  -6    5.21    0.34
   4   7   6    4.88    0.43
  -5  -7  -6   -0.01    0.09
  -5  -7  -6    0.04    0.08
   5   7   6    0.08    0.12
  -6  -7  -6    1.24    0.14
   6   7   6    1.20    0.17
   1  -8  -6    1.53    0.14
   1  -8  -6    1.52    0.17
  -1   8   6    2.00    0.21
   0  -8  -6    0.06    0.08
   0   8   6    0.01    0.11
   0   8   6   -0.05    0.10
  -1  -8  -6    3.23    0.29
  -1  -8  -6    3.26    0.22
   1   8   6    3.67    0.31
  -2  -8  -6    1.15    0.16
  -2  -8  -6    0.79    0.12
   2   8   6    0.67    0.16
  -3  -8  -6    0.43    0.11
  -3  -8  -6    0.60    0.11
   3   8   6    0.76    0.16
  -4  -8  -6    2.67    0.25
  -4  -8  -6    3.02    0.21
   4   8   6    3.48    0.30
  -5  -8  -6    0.78    0.11
  -5  -8  -6    0.82    0.10
   5   8   6    0.88    0.13
   3   8  -7    0.05    0.07
   3   8  -7    0.06    0.07
   2   8  -7    0.96    0.12
   1   8  -7    0.02    0.08
   0   8  -7    0.18    0.09
   0   8  -7    0.33    0.09
   5   7  -7    0.88    0.12
   5   7  -7    0.99    0.12
   4   7  -7    0.17    0.10
   4   7  -7   -0.01    0.08
  -4  -7   7    0.01    0.04
   3   7  -7    2.77    0.23
   3   7  -7    2.40    0.22
  -3  -7   7    2.34    0.18
   2   7  -7   -0.11    0.10
   2   7  -7    0.18    0.10
   1   7  -7    0.99    0.15
   1   7  -7    1.01    0.21
   0   7  -7    0.09    0.10
   0   7  -7    0.00    0.13
  -1   7  -7    0.07    0.09
  -1   7  -7    0.12    0.11
   1  -7   7    0.19    0.05
  -2   7  -7    1.67    0.23
  -2   7  -7    1.66    0.16
   6   6  -7    0.02    0.14
   6   6  -7    0.37    0.08
   6   6  -7    0.52    0.08
   5   6  -7    0.16    0.09
   5   6  -7   -0.12    0.21
   5   6  -7    0.13    0.09
  -5  -6   7    0.11    0.05
   4   6  -7    0.02    0.10
   4   6  -7    0.09    0.09
   4   6  -7    0.29    0.28
  -4  -6   7    0.03    0.05
   3   6  -7    0.15    0.10
   3   6  -7    0.12    0.10
   2   6  -7    4.57    0.32
   2   6  -7    4.74    0.32
   1   6  -7    0.11    0.10
   1   6  -7    0.04    0.12
   0   6  -7    8.72    0.49
   0   6  -7    7.98    0.70
  -1   6  -7    1.33    0.24
  -1   6  -7    1.96    0.21
  -2   6  -7    0.90    0.15
  -2   6  -7    1.02    0.22
   2  -6   7    0.85    0.10
  -3   6  -7    0.37    0.10
  -3   6  -7    0.24    0.13
   3  -6   7    0.35    0.07
   6   5  -7   -0.36    0.19
   6   5  -7    0.33    0.08
   6   5  -7    0.22    0.08
   6   5  -7    0.13    0.08
  -6  -5   7    0.25    0.07
   5   5  -7    3.41    0.27
   5   5  -7    3.59    0.27
   5   5  -7    3.57    0.26
   5   5  -7    3.12    0.50
  -5  -5   7    3.90    0.27
   4   5  -7    1.26    0.17
   4   5  -7    1.16    0.16
   4   5  -7    1.30    0.16
   4   5  -7    1.62    0.42
  -4  -5   7    1.35    0.15
   3   5  -7   22.07    1.09
   3   5  -7   21.01    1.04
   3   5  -7   20.68    1.82
   2   5  -7   10.63    0.57
   2   5  -7   10.52    0.58
   1   5  -7    0.40    0.11
   1   5  -7    0.39    0.11
   0   5  -7   14.18    0.74
   0   5  -7   14.19    1.07
  -1   5  -7    5.35    0.53
  -1   5  -7    5.43    0.36
  -2   5  -7    3.94    0.44
  -2   5  -7    3.60    0.29
   2  -5   7    3.61    0.25
  -3   5  -7    0.16    0.11
  -3   5  -7    0.10    0.13
   3  -5   7    0.17    0.06
  -4   5  -7    0.12    0.09
  -4   5  -7    0.24    0.13
   4  -5   7    0.23    0.06
   7   4  -7    0.27    0.07
   7   4  -7    0.38    0.07
   7   4  -7    0.08    0.10
   6   4  -7    0.44    0.11
   6   4  -7   -0.18    0.19
   6   4  -7    0.30    0.09
  -6  -4   7    0.29    0.09
   5   4  -7   13.68    0.75
   5   4  -7   14.71    1.34
   5   4  -7   14.61    0.78
   5   4  -7   15.24    0.79
  -5  -4   7   16.25    0.91
   4   4  -7    0.94    0.44
   4   4  -7    1.13    0.15
   4   4  -7    0.99    0.15
   4   4  -7    1.13    0.15
  -4  -4   7    0.52    0.13
   3   4  -7   10.79    0.55
   3   4  -7   10.19    0.55
   3   4  -7    9.63    0.53
   3   4  -7    8.52    1.00
   2   4  -7   19.74    0.98
   2   4  -7   18.06    1.56
   2   4  -7   18.16    0.91
   2   4  -7   18.85    0.95
   2   4  -7   18.68    0.95
  -2  -4   7   18.41    1.03
   1   4  -7    5.24    0.38
   0   4  -7   14.65    0.73
  -1   4  -7   13.19    0.99
  -1   4  -7   12.64    0.66
  -2   4  -7    5.95    0.57
  -2   4  -7    6.22    0.39
  -2   4  -7    6.11    0.64
  -3   4  -7    4.57    0.46
  -3   4  -7    4.36    0.31
  -3   4  -7    4.26    0.53
   3  -4   7    4.33    0.30
  -4   4  -7    0.13    0.16
  -4   4  -7    0.08    0.10
  -4   4  -7    0.20    0.14
   4  -4   7    0.16    0.07
  -5   4  -7    0.02    0.11
  -5   4  -7    0.03    0.08
   7   3  -7    2.34    0.19
   7   3  -7    2.81    0.27
  -7  -3   7    2.64    0.23
   6   3  -7   -0.01    0.17
   6   3  -7    0.20    0.09
   6   3  -7    0.08    0.10
  -6  -3   7    0.20    0.10
  -6  -3   7    0.18    0.09
   5   3  -7    5.40    0.34
   5   3  -7    4.82    0.65
   5   3  -7    4.51    0.32
   5   3  -7    5.26    0.33
  -5  -3   7    5.28    0.40
   4   3  -7    0.95    0.14
   4   3  -7    0.93    0.14
   4   3  -7    0.55    0.11
  -4  -3   7    0.40    0.13
   3   3  -7    0.05    0.08
  -3  -3   7    0.27    0.12
   2   3  -7    0.94    0.16
  -2  -3   7    0.87    0.15
   1   3  -7    1.37    0.15
   1   3  -7    1.84    0.20
  -1  -3   7    2.08    0.19
  -1  -3   7    1.50    0.19
   0   3  -7    0.22    0.10
   0   3  -7    0.26    0.09
  -1   3  -7    5.43    0.34
  -1   3  -7    5.46    0.35
  -2   3  -7   18.28    0.87
  -2   3  -7   17.81    1.51
  -2   3  -7   17.93    1.30
  -3   3  -7    2.01    0.36
  -3   3  -7    1.86    0.20
  -3   3  -7    2.11    0.31
   3  -3   7    1.90    0.17
  -4   3  -7    0.40    0.22
  -4   3  -7    0.19    0.16
  -4   3  -7    0.26    0.12
   4  -3   7    0.36    0.08
  -5   3  -7   -0.06    0.09
  -5   3  -7    0.05    0.16
   5  -3   7   -0.02    0.06
  -6   3  -7    0.07    0.10
   6  -3   7   -0.04    0.05
   7   2  -7    0.77    0.10
  -7  -2   7    0.57    0.12
   6   2  -7    1.05    0.14
  -6  -2   7    1.02    0.17
  -6  -2   7    0.94    0.15
   4   2  -7    0.17    0.10
   4   2  -7    0.16    0.09
   4   2  -7    0.35    0.10
  -4  -2   7   -0.02    0.11
  -3  -2   7    0.05    0.10
  -3  -2   7    0.16    0.10
  -2  -2   7   13.17    0.72
  -2  -2   7   11.92    0.72
   1   2  -7    0.04    0.06
  -1  -2   7    0.12    0.10
  -1  -2   7    0.00    0.07
   0   2  -7    0.67    0.11
   0   2  -7    0.66    0.12
   0   2  -7    0.43    0.10
   0  -2   7    0.60    0.12
  -1   2  -7    5.67    0.33
  -1   2  -7    5.50    0.33
  -2   2  -7    0.77    0.12
  -2   2  -7    0.64    0.13
  -3   2  -7    1.16    0.26
  -3   2  -7    1.20    0.19
  -3   2  -7    1.39    0.24
   3  -2   7    1.51    0.14
  -4   2  -7    6.30    0.66
  -4   2  -7    5.59    0.37
  -4   2  -7    5.62    0.55
   4  -2   7    5.66    0.39
  -5   2  -7    9.54    0.93
  -5   2  -7   10.12    0.54
   5  -2   7   10.15    0.61
   5  -2   7    9.08    0.63
  -6   2  -7    0.48    0.18
   6  -2   7    0.69    0.13
   7   1  -7    0.13    0.07
  -7  -1   7    0.03    0.08
   6   1  -7    0.24    0.10
   6   1  -7    0.37    0.11
  -6  -1   7    0.11    0.11
   5   1  -7    7.72    0.45
   5   1  -7    7.16    0.49
  -5  -1   7    7.83    0.55
  -5  -1   7    7.11    0.54
   4   1  -7    2.68    0.22
   4   1  -7    2.70    0.23
   4   1  -7    2.78    0.21
   4   1  -7    2.81    0.23
  -4  -1   7    2.71    0.28
  -3  -1   7    0.54    0.13
  -3  -1   7    0.40    0.14
  -3  -1   7    0.57    0.16
   2   1  -7    1.21    0.13
  -2  -1   7    1.19    0.18
  -2  -1   7    1.54    0.19
   1   1  -7   33.30    1.43
  -1  -1   7   34.15    1.69
  -1  -1   7   33.30    1.70
   0   1  -7   11.21    0.54
   0   1  -7   11.06    0.53
   0  -1   7   11.38    0.63
  -1   1  -7    0.15    0.08
  -1   1  -7    0.09    0.07
  -2   1  -7    8.51    0.45
  -2   1  -7    8.01    0.44
  -3   1  -7    1.23    0.17
  -3   1  -7    1.39    0.18
   3  -1   7    0.95    0.11
  -4   1  -7    1.41    0.25
  -4   1  -7    1.27    0.27
   4  -1   7    1.72    0.16
  -5   1  -7   21.76    1.77
  -5   1  -7   18.95    1.20
   5  -1   7   20.73    1.26
   5  -1   7   22.16    1.23
  -6   1  -7    3.07    0.25
  -6   1  -7    3.39    0.43
   6  -1   7    2.71    0.28
  -7   1  -7    0.06    0.10
   7  -1   7    0.11    0.08
   7   0  -7    0.16    0.08
   7   0  -7    0.14    0.06
  -7   0   7    0.04    0.09
   6   0  -7   -0.07    0.09
   6   0  -7    0.02    0.08
  -6   0   7    0.10    0.11
   4   0  -7    7.54    0.42
   4   0  -7    6.47    0.46
   4   0  -7    7.02    0.39
  -4   0   7    6.77    0.52
  -4   0   7    7.17    0.52
  -3   0   7    9.11    0.58
  -3   0   7    9.50    0.59
  -3   0   7    9.39    0.74
  -3   0   7    9.63    0.59
   2   0  -7    4.98    0.30
  -2   0   7    5.53    0.45
  -2   0   7    5.01    0.37
  -2   0   7    5.09    0.35
   1   0  -7    3.03    0.21
  -1   0   7    2.96    0.28
  -1   0   7    3.05    0.24
  -1   0   7    2.82    0.24
   0   0  -7    3.82    0.24
   0   0  -7    3.62    0.22
   0   0   7    3.79    0.28
   0   0   7    3.54    0.32
  -1   0  -7   56.95    2.43
  -1   0  -7   58.32    2.44
   1   0   7   61.23    3.77
   1   0   7   57.22    2.86
  -2   0  -7    0.50    0.11
  -2   0  -7    0.45    0.11
   2   0   7    0.42    0.15
  -3   0  -7    0.91    0.14
  -3   0  -7    0.84    0.15
   3   0   7    0.83    0.11
   3   0   7    0.46    0.19
  -4   0  -7    3.52    0.44
  -4   0  -7    3.30    0.28
  -4   0  -7    3.64    0.38
   4   0   7    3.57    0.26
   4   0   7    3.24    0.29
  -5   0  -7    2.68    0.26
  -5   0  -7    2.63    0.41
   5   0   7    2.79    0.23
   5   0   7    2.46    0.27
  -6   0  -7    2.69    0.39
  -6   0  -7    2.88    0.26
   6   0   7    2.31    0.27
  -7   0  -7    0.75    0.17
  -7   0  -7    0.79    0.12
   7   0   7    0.86    0.14
   6  -1  -7   11.51    0.58
  -6   1   7    9.70    0.70
   5  -1  -7    7.71    0.46
   5  -1  -7    7.80    0.53
  -5   1   7    7.32    0.57
   4  -1  -7    1.41    0.18
   4  -1  -7    1.88    0.18
  -4   1   7    1.36    0.21
  -4   1   7    1.86    0.27
  -3   1   7    2.93    0.28
  -3   1   7    2.87    0.36
  -3   1   7    2.75    0.30
  -3   1   7    2.71    0.28
   2  -1  -7    0.99    0.15
  -2   1   7    0.97    0.20
  -2   1   7    0.96    0.17
  -2   1   7    1.08    0.17
   1  -1  -7   15.94    0.74
  -1   1   7   16.70    1.13
  -1   1   7   15.45    0.86
  -1   1   7   15.88    0.87
   0  -1  -7   18.70    0.84
   0  -1  -7   19.24    0.86
   0   1   7   20.14    1.02
   0   1   7   19.95    1.00
   0   1   7   18.12    1.32
  -1  -1  -7    0.68    0.11
  -1  -1  -7    0.70    0.11
   1   1   7    0.83    0.14
   1   1   7    0.81    0.17
  -2  -1  -7    5.98    0.34
  -2  -1  -7    6.69    0.36
   2   1   7    6.87    0.41
   2   1   7    5.53    0.53
  -3  -1  -7   25.27    1.07
  -3  -1  -7   24.61    1.09
   3   1   7   24.18    1.71
   3   1   7   22.73    1.39
  -4  -1  -7    0.22    0.10
  -4  -1  -7    0.24    0.11
   4   1   7    0.14    0.07
   4   1   7    0.11    0.11
  -5  -1  -7    0.79    0.16
   5   1   7    0.58    0.11
   5   1   7    0.76    0.16
  -6  -1  -7    0.06    0.11
   6   1   7    0.05    0.11
  -7  -1  -7    7.80    0.53
   7   1   7    8.88    0.56
   6  -2  -7    0.19    0.09
  -6   2   7    0.27    0.12
   5  -2  -7    4.58    0.32
   5  -2  -7    5.00    0.38
  -5   2   7    4.11    0.40
   4  -2  -7   34.91    2.16
   4  -2  -7   39.91    1.85
  -4   2   7   40.75    2.20
  -4   2   7   37.11    2.24
   3  -2  -7   23.69    1.12
   3  -2  -7   25.13    1.40
   3  -2  -7   23.79    1.19
   3  -2  -7   24.39    1.14
  -3   2   7   25.24    1.44
  -3   2   7   22.41    1.45
   2  -2  -7   26.52    1.17
  -2   2   7   24.91    1.35
  -2   2   7   27.23    1.37
  -2   2   7   23.07    1.78
  -2   2   7   26.63    1.50
   1  -2  -7    0.31    0.11
  -1   2   7    0.21    0.13
  -1   2   7    0.41    0.12
  -1   2   7    0.45    0.11
   0  -2  -7    1.10    0.15
   0  -2  -7    0.95    0.13
   0   2   7    0.82    0.20
   0   2   7    1.07    0.15
   0   2   7    1.10    0.18
  -1  -2  -7    0.32    0.09
  -1  -2  -7    0.39    0.10
   1   2   7    0.27    0.14
   1   2   7    0.46    0.13
  -2  -2  -7    0.21    0.09
  -2  -2  -7    0.18    0.09
   2   2   7    0.04    0.09
   2   2   7    0.06    0.13
   2   2   7    0.21    0.07
  -3  -2  -7    0.02    0.08
   3   2   7    0.00    0.05
   3   2   7    0.06    0.14
   3   2   7    0.05    0.10
  -4  -2  -7    6.48    0.41
  -4  -2  -7    7.05    0.49
   4   2   7    7.10    0.50
   4   2   7    7.18    0.46
  -5  -2  -7    0.74    0.17
   5   2   7    0.86    0.18
   5   2   7    0.91    0.21
  -6  -2  -7    0.83    0.17
   6   2   7    1.08    0.19
  -7  -2  -7    7.31    0.48
   7   2   7    6.77    0.49
   6  -3  -7    0.81    0.10
  -6   3   7    0.71    0.12
   5  -3  -7    0.35    0.11
   5  -3  -7    0.28    0.12
  -5   3   7    0.22    0.13
   4  -3  -7    3.56    0.34
   4  -3  -7    3.54    0.28
  -4   3   7    3.57    0.32
  -4   3   7    4.00    0.37
   2  -3  -7    0.30    0.11
   2  -3  -7    0.08    0.11
  -2   3   7    0.26    0.11
  -2   3   7    0.50    0.16
  -2   3   7    0.31    0.13
   1  -3  -7   13.03    0.65
  -1   3   7   11.59    0.77
  -1   3   7   12.47    0.73
  -1   3   7   12.59    0.73
  -1   3   7   13.00    0.79
  -1   3   7   12.01    0.97
   0  -3  -7   11.21    0.57
   0  -3  -7   11.17    0.54
   0   3   7   11.21    0.65
   0   3   7   10.18    0.65
   0   3   7    9.71    0.69
   0   3   7   12.31    0.89
   0   3   7   11.06    0.63
  -1  -3  -7    0.77    0.13
  -1  -3  -7    0.78    0.13
   1   3   7    0.86    0.16
   1   3   7    0.64    0.14
   1   3   7    0.76    0.22
  -2  -3  -7    3.46    0.26
  -2  -3  -7    3.47    0.25
   2   3   7    3.21    0.29
   2   3   7    3.55    0.31
   2   3   7    2.95    0.40
  -3  -3  -7    0.22    0.10
   3   3   7    0.20    0.12
   3   3   7    0.20    0.12
   3   3   7    0.26    0.19
  -4  -3  -7    0.13    0.11
   4   3   7    0.34    0.12
   4   3   7    0.29    0.14
  -5  -3  -7    0.15    0.12
   5   3   7    0.06    0.12
   5   3   7    0.08    0.14
  -6  -3  -7    3.67    0.33
   6   3   7    3.71    0.34
  -7  -3  -7    0.04    0.09
   7   3   7   -0.01    0.09
   5  -4  -7    0.39    0.09
   5  -4  -7    0.44    0.11
  -5   4   7    0.29    0.11
   4  -4  -7    1.78    0.23
   4  -4  -7    1.87    0.19
  -4   4   7    2.06    0.26
   3  -4  -7    9.88    0.61
   3  -4  -7    8.52    0.50
  -3   4   7    8.04    0.58
  -3   4   7    9.24    0.64
   2  -4  -7    0.66    0.11
   2  -4  -7    0.52    0.13
  -2   4   7    0.75    0.15
  -2   4   7    0.82    0.18
   1  -4  -7    6.72    0.50
   1  -4  -7    7.12    0.41
  -1   4   7    7.97    0.55
  -1   4   7    7.64    0.52
  -1   4   7    7.50    0.52
  -1   4   7    7.53    0.53
   0  -4  -7    0.10    0.11
   0   4   7    0.32    0.13
   0   4   7    0.06    0.10
   0   4   7    0.10    0.10
   0   4   7    0.04    0.17
  -1  -4  -7   16.09    0.79
   1   4   7   15.35    0.93
   1   4   7   16.67    1.00
   1   4   7   16.61    1.26
  -2  -4  -7    7.33    0.43
   2   4   7    6.48    0.51
   2   4   7    7.80    0.51
   2   4   7    8.11    0.73
  -3  -4  -7   20.42    0.99
  -3  -4  -7   17.60    1.21
   3   4   7   20.64    1.19
   3   4   7   22.29    1.25
   3   4   7   22.90    1.26
  -4  -4  -7   11.10    0.73
   4   4   7   11.53    0.75
   4   4   7   10.95    0.74
  -5  -4  -7   -0.10    0.10
   5   4   7    0.04    0.11
   5   4   7    0.03    0.13
  -6  -4  -7   11.13    0.70
   6   4   7   10.36    0.71
  -7  -4  -7    0.41    0.11
   7   4   7    0.32    0.10
   4  -5  -7   19.43    0.98
   4  -5  -7   19.04    1.16
  -4   5   7   21.05    1.19
   3  -5  -7    1.62    0.22
   3  -5  -7    2.00    0.20
  -3   5   7    2.36    0.28
  -3   5   7    2.42    0.27
   2  -5  -7   24.58    1.28
   2  -5  -7   20.62    1.06
  -2   5   7   17.48    1.28
  -2   5   7   22.59    1.31
   1  -5  -7    5.14    0.32
   1  -5  -7    4.84    0.40
  -1   5   7    5.25    0.38
  -1   5   7    4.64    0.43
  -1   5   7    5.71    0.44
   0  -5  -7    8.85    0.47
   0  -5  -7    8.89    0.58
   0  -5  -7    8.55    0.59
   0   5   7    7.87    0.60
   0   5   7    9.38    0.58
   0   5   7    7.79    0.61
  -1  -5  -7   23.93    1.41
  -1  -5  -7   25.59    1.19
  -1  -5  -7   21.76    1.48
  -1  -5  -7   26.85    1.47
   1   5   7   27.37    1.52
   1   5   7   25.65    1.46
  -2  -5  -7   24.24    1.16
  -2  -5  -7   24.22    1.43
   2   5   7   26.92    1.43
   2   5   7   22.71    1.47
  -3  -5  -7  173.26    7.24
  -3  -5  -7  139.76    8.90
   3   5   7  170.72    9.12
   3   5   7  164.64    8.94
   3   5   7  167.21    8.88
  -4  -5  -7    4.56    0.37
  -4  -5  -7    4.28    0.29
   4   5   7    4.42    0.35
   4   5   7    3.60    0.37
  -5  -5  -7   14.67    0.82
   5   5   7   10.95    0.81
  -6  -5  -7    2.92    0.27
   6   5   7    2.81    0.28
   6   5   7    2.59    0.28
  -7  -5  -7    5.25    0.36
   7   5   7    5.36    0.38
   3  -6  -7   10.94    0.58
   3  -6  -7   10.65    0.68
  -3   6   7   11.43    0.71
   2  -6  -7    9.68    0.52
   2  -6  -7    9.24    0.62
   1  -6  -7    0.16    0.11
   1  -6  -7    0.17    0.12
   1  -6  -7    0.17    0.09
  -1   6   7    0.11    0.14
   0  -6  -7   37.36    1.71
   0  -6  -7   38.83    2.15
   0  -6  -7   37.16    2.11
   0   6   7   34.36    2.14
   0   6   7   37.38    2.17
  -1  -6  -7    3.78    0.31
  -1  -6  -7    3.29    0.30
  -1  -6  -7    3.53    0.26
   1   6   7    3.00    0.34
   1   6   7    3.12    0.34
  -2  -6  -7    8.66    0.46
  -2  -6  -7    8.94    0.56
  -2  -6  -7    7.07    0.54
   2   6   7    7.32    0.57
   2   6   7    8.01    0.59
  -3  -6  -7   18.09    1.11
  -3  -6  -7   18.30    1.12
  -3  -6  -7   18.08    0.91
   3   6   7   20.13    1.16
   3   6   7   17.84    1.14
  -4  -6  -7   24.18    1.52
  -4  -6  -7   27.00    1.52
  -4  -6  -7   26.17    1.22
   4   6   7   28.97    1.55
   4   6   7   23.39    1.53
  -5  -6  -7    1.04    0.17
  -5  -6  -7    1.10    0.14
   5   6   7    1.20    0.20
  -6  -6  -7    3.36    0.29
   6   6   7    3.64    0.31
   2  -7  -7    2.34    0.19
   2  -7  -7    2.79    0.23
  -2   7   7    2.81    0.27
   1  -7  -7    0.14    0.09
   1  -7  -7    0.19    0.10
   1  -7  -7    0.18    0.07
  -1   7   7    0.20    0.13
   0  -7  -7    0.10    0.10
   0  -7  -7   -0.03    0.09
   0  -7  -7    0.02    0.08
   0   7   7   -0.02    0.10
  -1  -7  -7   -0.02    0.10
  -1  -7  -7    0.13    0.09
  -1  -7  -7    0.13    0.10
   1   7   7    0.13    0.13
  -2  -7  -7    0.82    0.16
  -2  -7  -7    1.00    0.16
  -2  -7  -7    0.75    0.13
   2   7   7    0.65    0.17
  -3  -7  -7    0.30    0.11
  -3  -7  -7    0.14    0.09
  -3  -7  -7    0.37    0.12
   3   7   7    0.16    0.13
  -4  -7  -7    2.10    0.22
  -4  -7  -7    2.12    0.22
  -4  -7  -7    2.15    0.20
   4   7   7    1.60    0.22
  -5  -7  -7    0.04    0.07
  -5  -7  -7    0.07    0.08
   5   7   7    0.08    0.11
   6   7   7    0.04    0.08
  -1   8   7    0.54    0.11
   0  -8  -7    0.09    0.08
   0   8   7    0.27    0.11
   0   8   7    0.13    0.11
  -1  -8  -7    6.12    0.43
  -1  -8  -7    6.66    0.34
   1   8   7    6.22    0.45
  -2  -8  -7    0.79    0.13
  -2  -8  -7    1.12    0.13
   2   8   7    0.99    0.17
  -3  -8  -7    0.55    0.11
  -3  -8  -7    0.78    0.11
   3   8   7    0.56    0.14
  -4  -8  -7    0.34    0.08
  -4  -8  -7    0.35    0.08
   4   8   7    0.39    0.12
   4   7  -8    0.48    0.09
   4   7  -8    0.54    0.10
   3   7  -8    2.46    0.21
   3   7  -8    2.38    0.21
   2   7  -8    1.11    0.15
   2   7  -8    0.84    0.12
   1   7  -8    0.15    0.09
   0   7  -8    0.16    0.11
   0   7  -8    0.09    0.09
  -1   7  -8    0.80    0.16
  -1   7  -8    0.83    0.12
   5   6  -8    1.89    0.18
   5   6  -8    2.21    0.19
   5   6  -8    1.92    0.31
  -5  -6   8    2.03    0.16
   4   6  -8    1.88    0.19
   4   6  -8    1.95    0.19
   4   6  -8    2.64    0.39
  -4  -6   8    1.65    0.15
   3   6  -8    1.00    0.15
   3   6  -8    0.72    0.13
   2   6  -8    0.13    0.10
   2   6  -8    0.05    0.10
   1   6  -8    0.10    0.10
   0   6  -8   10.00    0.80
   0   6  -8    9.96    0.55
  -1   6  -8    0.15    0.10
  -1   6  -8   -0.01    0.12
  -2   6  -8    0.19    0.10
  -2   6  -8    0.33    0.14
   2  -6   8    0.23    0.05
  -3   6  -8   -0.01    0.10
  -3   6  -8   -0.01    0.07
   6   5  -8    0.88    0.23
   6   5  -8    1.22    0.12
   6   5  -8    0.73    0.10
   5   5  -8    2.88    0.22
   5   5  -8    2.89    0.23
   5   5  -8    2.50    0.22
   5   5  -8    2.61    0.46
  -5  -5   8    2.68    0.21
   4   5  -8    6.66    0.40
   4   5  -8    6.58    0.41
   4   5  -8    8.07    0.86
  -4  -5   8    6.21    0.43
   3   5  -8    1.12    0.47
   3   5  -8    0.80    0.14
   3   5  -8    0.63    0.12
   2   5  -8   11.52    0.61
   2   5  -8   11.37    0.63
   1   5  -8    7.14    0.42
   0   5  -8   32.67    2.29
   0   5  -8   34.20    1.58
  -1   5  -8    0.55    0.14
  -1   5  -8    0.28    0.16
  -2   5  -8    0.01    0.12
  -2   5  -8   -0.11    0.09
   2  -5   8    0.03    0.04
  -3   5  -8    0.00    0.09
  -3   5  -8   -0.01    0.12
   3  -5   8    0.05    0.05
  -4   5  -8   11.06    0.80
   6   4  -8    0.03    0.07
  -6  -4   8    0.01    0.06
   5   4  -8    0.76    0.13
   5   4  -8    0.50    0.10
   5   4  -8    0.82    0.13
   5   4  -8    0.99    0.43
  -5  -4   8    0.89    0.14
   4   4  -8    1.03    0.49
   4   4  -8    0.47    0.11
   4   4  -8    0.48    0.11
   4   4  -8    0.62    0.13
  -4  -4   8    0.13    0.11
   3   4  -8   13.04    0.67
   3   4  -8   13.19    0.71
   3   4  -8   12.39    0.69
   3   4  -8   14.03    1.26
   2   4  -8   16.33    1.37
   2   4  -8   15.43    0.79
   2   4  -8   16.17    0.84
   1   4  -8    1.68    0.18
   1   4  -8    1.77    0.18
   0   4  -8    1.64    0.26
   0   4  -8    1.44    0.17
  -1   4  -8   24.51    2.02
  -1   4  -8   25.39    1.75
  -2   4  -8   17.99    1.55
  -2   4  -8   18.88    1.34
  -2   4  -8   18.21    0.91
  -3   4  -8    5.52    0.61
  -3   4  -8    5.32    0.53
  -3   4  -8    5.46    0.35
   3  -4   8    5.42    0.36
  -4   4  -8    3.96    0.28
  -4   4  -8    4.04    0.42
  -4   4  -8    4.43    0.49
   4  -4   8    3.85    0.28
  -5   4  -8    6.55    0.61
   7   3  -8    1.84    0.14
   6   3  -8   -0.09    0.19
   6   3  -8   -0.01    0.08
  -6  -3   8    0.04    0.08
   5   3  -8   -0.16    0.35
   5   3  -8    0.01    0.07
   5   3  -8    0.19    0.09
  -5  -3   8    0.21    0.13
   4   3  -8   16.62    1.44
   4   3  -8   15.73    0.83
   4   3  -8   16.10    0.82
  -4  -3   8   15.05    0.95
   3   3  -8    1.64    0.17
   3   3  -8    1.58    0.17
   3   3  -8    1.76    0.41
   2   3  -8   11.35    0.61
   2   3  -8   11.15    0.97
   2   3  -8   10.11    0.56
  -2  -3   8   11.33    0.68
  -2  -3   8   11.39    0.67
   0   3  -8    0.50    0.13
   0   3  -8    0.44    0.12
  -1   3  -8    1.98    0.28
  -1   3  -8    1.88    0.31
  -1   3  -8    1.41    0.18
  -1   3  -8    1.64    0.21
  -2   3  -8    8.21    0.69
  -2   3  -8    8.35    0.81
  -3   3  -8    8.31    0.71
  -3   3  -8    8.72    0.83
   3  -3   8    8.29    0.52
  -4   3  -8    1.83    0.19
  -4   3  -8    1.22    0.28
  -4   3  -8    1.17    0.24
   4  -3   8    1.77    0.16
  -5   3  -8    2.68    0.36
   5  -3   8    2.06    0.19
   7   2  -8    1.45    0.13
  -7  -2   8    1.64    0.16
  -6  -2   8    0.11    0.09
  -6  -2   8    0.06    0.08
   5   2  -8    3.93    0.28
   5   2  -8    3.70    0.54
   5   2  -8    4.07    0.29
  -5  -2   8    4.92    0.40
   4   2  -8   35.35    1.64
   4   2  -8   34.01    2.86
   4   2  -8   36.97    1.72
   4   2  -8   36.29    1.75
  -4  -2   8   34.90    2.05
   3   2  -8    0.15    0.09
   3   2  -8    0.46    0.10
   3   2  -8    0.03    0.20
   3   2  -8    0.00    0.07
  -3  -2   8    0.05    0.09
  -2  -2   8    0.76    0.17
  -2  -2   8    0.55    0.13
   1   2  -8    8.08    0.43
  -1  -2   8    8.05    0.51
   0   2  -8   -0.07    0.08
   0   2  -8    0.07    0.08
  -1   2  -8    9.10    0.49
  -1   2  -8    9.70    0.50
  -2   2  -8    0.46    0.13
  -2   2  -8    0.23    0.11
  -2   2  -8    0.34    0.16
  -2   2  -8    0.25    0.15
  -3   2  -8    3.43    0.47
  -3   2  -8    3.24    0.41
   3  -2   8    3.76    0.25
  -4   2  -8    0.38    0.20
  -4   2  -8    0.64    0.20
   4  -2   8    0.59    0.10
  -5   2  -8   18.70    1.54
   5  -2   8   17.88    1.08
  -6   2  -8    0.34    0.15
   6  -2   8    0.50    0.10
   7   1  -8    1.04    0.11
  -7  -1   8    0.99    0.13
   6   1  -8    0.26    0.09
  -6  -1   8    0.41    0.12
   5   1  -8    0.04    0.09
  -5  -1   8    0.00    0.10
   4   1  -8   20.62    1.02
   4   1  -8   20.60    0.97
   4   1  -8   20.20    1.03
  -4  -1   8   19.30    1.21
   3   1  -8   28.42    1.32
   3   1  -8   28.58    2.28
   3   1  -8   28.31    1.41
  -3  -1   8   28.52    1.64
  -3  -1   8   28.26    1.51
  -3  -1   8   28.74    1.52
  -2  -1   8    0.88    0.15
  -2  -1   8    0.98    0.17
   1   1  -8    1.78    0.18
  -1  -1   8    2.19    0.20
  -1  -1   8    1.65    0.21
   0   1  -8   24.15    1.10
   0   1  -8   25.62    1.11
   0  -1   8   25.47    1.30
  -1   1  -8    0.11    0.08
  -1   1  -8    0.13    0.09
  -2   1  -8   35.08    1.50
  -2   1  -8   33.51    1.50
  -3   1  -8    1.29    0.27
  -3   1  -8    1.26    0.18
  -3   1  -8    1.43    0.25
   3  -1   8    1.39    0.14
  -4   1  -8   27.41    2.30
  -4   1  -8   27.64    1.95
   4  -1   8   29.43    1.63
  -5   1  -8   24.15    2.08
   5  -1   8   27.80    1.48
   5  -1   8   23.89    1.49
  -6   1  -8    7.34    0.69
   6  -1   8    7.01    0.49
   6   0  -8    0.61    0.12
   6   0  -8    0.37    0.10
  -6   0   8    0.51    0.13
   5   0  -8    2.89    0.26
  -5   0   8    3.48    0.34
  -5   0   8    4.11    0.36
   4   0  -8    0.65    0.12
   4   0  -8    0.53    0.12
   4   0  -8    0.41    0.11
   4   0  -8    0.30    0.11
  -4   0   8    0.62    0.21
  -4   0   8    0.34    0.13
   3   0  -8    6.11    0.37
   3   0  -8    5.32    0.36
   3   0  -8    6.09    0.35
  -3   0   8    5.72    0.43
  -3   0   8    5.93    0.41
   2   0  -8    0.05    0.07
  -2   0   8    0.02    0.10
  -2   0   8   -0.01    0.08
  -2   0   8    0.02    0.10
   1   0  -8    1.13    0.15
  -1   0   8    1.23    0.20
  -1   0   8    0.98    0.15
  -1   0   8    1.37    0.19
   0   0  -8    2.46    0.20
   0   0  -8    2.05    0.18
   0   0   8    2.26    0.26
   0   0   8    2.53    0.24
  -1   0  -8   12.53    0.60
  -1   0  -8   12.18    0.60
   1   0   8   12.06    0.69
  -2   0  -8   14.24    0.66
  -2   0  -8   13.54    0.66
   2   0   8   13.45    0.79
   2   0   8   13.18    0.99
  -3   0  -8    1.89    0.22
  -3   0  -8    1.85    0.20
   3   0   8    1.67    0.16
   3   0   8    1.55    0.27
  -4   0  -8    3.31    0.38
  -4   0  -8    3.17    0.44
  -4   0  -8    3.15    0.41
  -4   0  -8    2.91    0.26
   4   0   8    3.29    0.29
   4   0   8    3.05    0.25
  -5   0  -8    1.30    0.28
  -5   0  -8    1.33    0.18
   5   0   8    1.51    0.17
   5   0   8    1.47    0.20
  -6   0  -8    5.99    0.41
  -6   0  -8    6.49    0.62
   6   0   8    6.12    0.44
   7   0   8    2.72    0.23
   6  -1  -8   -0.03    0.08
   6  -1  -8    0.08    0.08
  -6   1   8   -0.04    0.09
   5  -1  -8    0.09    0.09
   5  -1  -8    0.07    0.09
  -5   1   8   -0.03    0.11
   4  -1  -8    9.20    0.51
   4  -1  -8    9.75    0.55
   4  -1  -8   10.19    0.83
   4  -1  -8    9.78    0.62
  -4   1   8    9.24    0.67
  -4   1   8   10.08    0.70
   3  -1  -8    0.10    0.09
   3  -1  -8    0.11    0.09
   3  -1  -8    0.14    0.09
   3  -1  -8   -0.04    0.08
  -3   1   8    0.17    0.12
  -3   1   8    0.01    0.16
   2  -1  -8    0.85    0.14
  -2   1   8    1.43    0.20
  -2   1   8    1.38    0.21
  -2   1   8    0.99    0.21
   1  -1  -8    0.86    0.13
  -1   1   8    0.91    0.16
  -1   1   8    1.24    0.19
  -1   1   8    1.00    0.20
   0  -1  -8   21.69    1.00
   0  -1  -8   23.06    1.02
   0   1   8   23.31    1.21
   0   1   8   21.47    1.31
   0   1   8   24.84    1.58
  -1  -1  -8    2.08    0.18
  -1  -1  -8    1.81    0.19
   1   1   8    2.22    0.28
   1   1   8    2.25    0.23
   1   1   8    1.83    0.16
  -2  -1  -8    0.80    0.13
  -2  -1  -8    0.86    0.13
   2   1   8    1.05    0.22
   2   1   8    0.54    0.13
   2   1   8    0.79    0.10
  -3  -1  -8    9.31    0.54
  -3  -1  -8   11.23    0.57
   3   1   8   11.23    0.89
   3   1   8   11.13    0.66
  -4  -1  -8    4.46    0.34
   4   1   8    4.55    0.33
   4   1   8    4.25    0.36
  -5  -1  -8    0.36    0.12
   5   1   8    0.47    0.14
   5   1   8    0.37    0.10
  -6  -1  -8   -0.09    0.13
  -6  -1  -8   -0.02    0.09
   6   1   8   -0.01    0.10
  -7  -1  -8    0.89    0.11
   7   1   8    0.78    0.13
   6  -2  -8    0.28    0.08
   6  -2  -8    0.34    0.10
  -6   2   8    0.37    0.11
   5  -2  -8    0.02    0.10
   5  -2  -8    0.03    0.09
  -5   2   8    0.09    0.13
   4  -2  -8   20.73    1.18
   4  -2  -8   18.89    1.00
  -4   2   8   19.24    1.21
  -4   2   8   20.25    1.24
   3  -2  -8   10.65    0.57
   3  -2  -8   10.52    0.69
   3  -2  -8   10.51    0.59
   3  -2  -8   10.52    0.60
  -3   2   8   11.80    0.76
  -3   2   8   12.04    0.76
   2  -2  -8    0.13    0.10
   2  -2  -8    0.05    0.09
  -2   2   8    0.19    0.13
  -2   2   8   -0.01    0.14
  -2   2   8    0.11    0.11
   1  -2  -8    2.46    0.25
  -1   2   8    2.12    0.31
  -1   2   8    2.28    0.26
  -1   2   8    2.55    0.27
  -1   2   8    2.91    0.20
   0  -2  -8    6.30    0.40
   0   2   8    8.07    0.43
   0   2   8    6.44    0.60
   0   2   8    6.20    0.46
  -1  -2  -8    0.43    0.11
  -1  -2  -8    0.41    0.11
   1   2   8    0.42    0.16
   1   2   8    0.41    0.14
   1   2   8    0.26    0.07
  -2  -2  -8    0.90    0.14
  -2  -2  -8    0.96    0.16
   2   2   8    1.02    0.18
   2   2   8    1.02    0.24
   2   2   8    0.96    0.13
  -3  -2  -8    0.77    0.14
   3   2   8    0.66    0.11
   3   2   8    0.92    0.27
  -4  -2  -8    7.24    0.48
   4   2   8    6.46    0.45
   4   2   8    6.53    0.48
  -5  -2  -8    9.54    0.63
   5   2   8   10.43    0.66
   5   2   8    8.67    0.69
  -6  -2  -8    0.06    0.10
   6   2   8    0.04    0.10
  -7  -2  -8    0.12    0.12
  -7  -2  -8    0.14    0.08
   7   2   8    0.14    0.09
   5  -3  -8    0.40    0.12
   5  -3  -8    0.44    0.11
  -5   3   8    0.70    0.16
   4  -3  -8   19.45    0.95
   4  -3  -8   19.49    1.12
  -4   3   8   16.82    1.15
   2  -3  -8    1.15    0.14
   2  -3  -8    1.15    0.17
  -2   3   8    1.64    0.23
  -2   3   8    1.62    0.24
   1  -3  -8    0.67    0.16
   1  -3  -8    0.79    0.15
   1  -3  -8    0.64    0.12
  -1   3   8    0.90    0.18
  -1   3   8    1.08    0.21
  -1   3   8    0.78    0.17
  -1   3   8    0.73    0.16
  -1   3   8    0.58    0.16
   0  -3  -8    0.43    0.13
   0   3   8    0.65    0.17
   0   3   8    0.82    0.13
   0   3   8    0.54    0.19
  -1  -3  -8    0.63    0.13
  -1  -3  -8    0.77    0.14
   1   3   8    1.10    0.12
   1   3   8    0.57    0.22
   1   3   8    0.71    0.17
  -2  -3  -8    2.73    0.23
  -2  -3  -8    2.68    0.23
   2   3   8    2.60    0.41
   2   3   8    2.23    0.28
  -3  -3  -8    0.17    0.11
   3   3   8    0.04    0.12
   3   3   8    0.03    0.10
   3   3   8    0.05    0.13
   3   3   8    0.08    0.07
  -4  -3  -8    0.76    0.16
   4   3   8    1.03    0.18
   4   3   8    0.76    0.18
  -5  -3  -8    0.11    0.12
   5   3   8    0.25    0.13
   5   3   8    0.14    0.15
  -6  -3  -8    0.29    0.11
   6   3   8    0.19    0.12
  -7  -3  -8    1.69    0.18
  -7  -3  -8    1.56    0.26
   7   3   8    1.56    0.18
   5  -4  -8    2.98    0.24
   5  -4  -8    3.09    0.21
  -5   4   8    2.47    0.23
   4  -4  -8    0.90    0.14
   4  -4  -8    1.06    0.17
  -4   4   8    0.72    0.16
   3  -4  -8    1.50    0.21
   3  -4  -8    1.41    0.17
  -3   4   8    1.08    0.20
   2  -4  -8    0.08    0.08
   2  -4  -8    0.18    0.12
   2  -4  -8    0.32    0.10
  -2   4   8    0.26    0.13
  -2   4   8    0.15    0.15
   1  -4  -8   11.37    0.61
   1  -4  -8   11.34    0.75
  -1   4   8   12.64    0.79
  -1   4   8   12.83    0.81
   0  -4  -8   12.12    0.78
   0  -4  -8   11.81    0.63
   0   4   8   13.58    0.82
   0   4   8   12.84    0.82
  -1  -4  -8    0.17    0.11
  -1  -4  -8    0.10    0.11
  -1  -4  -8    0.21    0.09
  -1  -4  -8    0.13    0.09
   1   4   8    0.22    0.12
   1   4   8    0.14    0.12
  -2  -4  -8    0.03    0.09
  -2  -4  -8   -0.05    0.07
   2   4   8    0.10    0.11
   2   4   8   -0.09    0.09
  -3  -4  -8   10.52    0.55
  -3  -4  -8   10.59    0.69
   3   4   8   10.08    0.71
   3   4   8   11.75    0.73
  -4  -4  -8    0.03    0.11
   4   4   8    0.02    0.11
   4   4   8    0.19    0.13
  -5  -4  -8    0.19    0.12
   5   4   8    0.12    0.12
  -6  -4  -8    2.96    0.28
   6   4   8    3.07    0.29
  -7  -4  -8    6.02    0.58
  -7  -4  -8    6.46    0.41
   7   4   8    6.48    0.42
   4  -5  -8    6.05    0.35
   4  -5  -8    7.13    0.43
  -4   5   8    5.56    0.44
   3  -5  -8   14.36    0.95
   3  -5  -8   16.48    0.81
  -3   5   8   16.89    1.00
   2  -5  -8    8.10    0.48
   2  -5  -8    9.18    0.58
  -2   5   8    8.46    0.61
   1  -5  -8    6.75    0.50
   1  -5  -8    7.22    0.40
  -1   5   8    7.24    0.50
  -1   5   8    6.65    0.53
   0  -5  -8   14.43    0.73
   0  -5  -8   15.59    0.90
   0   5   8   14.07    0.90
   0   5   8   13.80    0.93
  -1  -5  -8   10.07    0.53
  -1  -5  -8    8.26    0.62
   1   5   8   11.01    0.68
   1   5   8    9.98    0.65
  -2  -5  -8    0.00    0.08
  -2  -5  -8   -0.04    0.10
   2   5   8   -0.10    0.10
   2   5   8    0.09    0.10
  -3  -5  -8   19.05    0.94
  -3  -5  -8   20.88    1.16
   3   5   8   18.47    1.19
   3   5   8   18.80    1.16
  -4  -5  -8    1.06    0.18
  -4  -5  -8    1.29    0.16
  -5  -5  -8    1.79    0.23
  -6  -5  -8    2.03    0.23
   3  -6  -8    1.62    0.19
   3  -6  -8    1.52    0.14
  -3   6   8    1.42    0.18
   2  -6  -8    9.97    0.66
   2  -6  -8   10.54    0.56
  -2   6   8   11.40    0.71
   1  -6  -8    0.06    0.08
   1  -6  -8    0.07    0.10
  -1   6   8    0.18    0.13
  -1   6   8    0.16    0.13
   0  -6  -8    0.11    0.09
   0  -6  -8    0.04    0.11
   0   6   8    0.01    0.13
   0   6   8    0.21    0.14
  -1  -6  -8    1.79    0.18
  -1  -6  -8    1.60    0.21
   1   6   8    1.38    0.21
   1   6   8    2.09    0.27
  -2  -6  -8    0.58    0.12
  -2  -6  -8    1.08    0.18
   2   6   8    1.06    0.19
   2   6   8    0.97    0.21
  -3  -6  -8   13.32    0.81
  -3  -6  -8   12.07    0.65
   3   6   8   12.95    0.85
   3   6   8   13.02    0.83
  -4  -6  -8    1.65    0.17
  -4  -6  -8    2.08    0.23
   4   6   8    1.41    0.22
   4   6   8    1.25    0.19
  -5  -6  -8   -0.03    0.09
   5   6   8    0.00    0.09
   5   6   8    0.18    0.12
  -6  -6  -8    0.09    0.10
  -6  -6  -8    0.17    0.08
   6   6   8    0.09    0.09
   2  -7  -8   10.93    0.66
  -2   7   8   10.85    0.67
   1  -7  -8    0.21    0.09
  -1   7   8    0.37    0.13
   0  -7  -8    1.48    0.15
   0  -7  -8    1.28    0.18
   0   7   8    1.33    0.20
  -1  -7  -8    0.14    0.09
  -1  -7  -8    0.27    0.11
   1   7   8    0.23    0.13
  -2  -7  -8   -0.03    0.08
  -2  -7  -8    0.09    0.10
   2   7   8    0.11    0.12
  -3  -7  -8    0.26    0.11
  -3  -7  -8    0.36    0.10
   3   7   8    0.45    0.15
  -4  -7  -8    0.08    0.08
  -4  -7  -8    0.00    0.08
   4   7   8   -0.04    0.11
  -5  -7  -8    0.06    0.07
  -5  -7  -8   -0.01    0.06
   5   7   8    0.13    0.10
   0   8   8    2.08    0.22
  -1  -8  -8    0.20    0.08
  -1  -8  -8    0.12    0.06
   1   8   8    0.37    0.11
  -2  -8  -8    0.46    0.10
  -2  -8  -8    0.56    0.09
   2   8   8    0.66    0.14
  -3  -8  -8    0.12    0.07
  -3  -8  -8    0.19    0.07
   3   8   8    0.09    0.09
   3   7  -9    0.09    0.07
   3   7  -9   -0.08    0.06
   2   7  -9    0.63    0.10
   1   7  -9    0.22    0.08
   0   7  -9    2.06    0.26
   0   7  -9    2.12    0.17
  -1   7  -9    1.68    0.21
   5   6  -9    0.60    0.09
   5   6  -9    0.93    0.18
   5   6  -9    0.51    0.09
   4   6  -9    0.99    0.26
   4   6  -9    0.35    0.10
   4   6  -9    0.29    0.09
   3   6  -9    0.07    0.09
   3   6  -9    0.04    0.08
   2   6  -9    4.87    0.32
   2   6  -9    4.77    0.31
   1   6  -9   -0.04    0.09
   0   6  -9    0.05    0.09
   0   6  -9    0.00    0.12
  -1   6  -9    0.00    0.11
  -1   6  -9    0.01    0.08
  -2   6  -9    0.87    0.11
  -2   6  -9    1.27    0.20
   5   5  -9    1.85    0.17
   5   5  -9    1.99    0.39
  -5  -5   9    1.57    0.15
   4   5  -9    2.70    0.21
   4   5  -9    2.02    0.19
  -4  -5   9    2.14    0.19
   3   5  -9    3.78    0.29
   3   5  -9    4.19    0.30
   3   5  -9    6.42    0.79
   2   5  -9   12.70    0.68
   2   5  -9   12.72    0.65
   1   5  -9    0.00    0.10
   0   5  -9    0.72    0.19
   0   5  -9    1.03    0.16
  -1   5  -9    0.21    0.14
  -1   5  -9    0.07    0.10
  -2   5  -9   10.73    0.83
  -2   5  -9   10.37    0.56
  -3   5  -9    0.95    0.19
  -3   5  -9    0.88    0.12
   3  -5   9    1.34    0.11
   6   4  -9    0.08    0.19
   6   4  -9    0.40    0.08
   5   4  -9    2.35    0.20
   5   4  -9    2.17    0.19
   5   4  -9    2.42    0.47
  -5  -4   9    2.49    0.22
   4   4  -9    1.61    0.51
   4   4  -9    0.30    0.10
   4   4  -9    0.09    0.09
   3   4  -9    2.24    0.21
   3   4  -9    2.44    0.22
   3   4  -9    3.11    0.54
   2   4  -9    5.83    0.37
   2   4  -9    6.01    0.67
   1   4  -9   42.54    2.08
   1   4  -9   43.31    3.36
   0   4  -9    0.21    0.14
  -1   4  -9   23.41    1.63
  -1   4  -9   22.65    1.89
  -2   4  -9    0.37    0.17
  -2   4  -9    0.06    0.15
  -3   4  -9    1.28    0.25
  -3   4  -9    1.62    0.29
   3  -4   9    1.45    0.14
  -4   4  -9    2.56    0.36
  -4   4  -9    2.80    0.31
   4  -4   9    2.68    0.20
   6   3  -9   -0.05    0.19
   6   3  -9    0.04    0.07
   5   3  -9    0.11    0.09
   5   3  -9    0.27    0.09
   5   3  -9    0.26    0.40
  -5  -3   9    0.47    0.14
   4   3  -9    9.51    0.52
   4   3  -9   10.04    0.54
  -4  -3   9    8.71    0.60
   3   3  -9    1.35    0.17
   3   3  -9    1.45    0.16
   3   3  -9    0.84    0.36
   2   3  -9   11.75    0.61
   2   3  -9   12.34    1.07
   2   3  -9   12.39    0.66
   1   3  -9   14.92    1.27
   1   3  -9   14.97    0.78
   1   3  -9   14.49    1.25
   0   3  -9   11.18    0.98
   0   3  -9   11.00    0.84
   0   3  -9   10.07    0.93
  -1   3  -9    8.21    0.68
  -1   3  -9    7.90    0.78
  -2   3  -9    0.62    0.20
  -2   3  -9    0.56    0.21
  -3   3  -9    0.63    0.20
  -3   3  -9    1.02    0.26
   3  -3   9    0.62    0.09
  -4   3  -9   10.18    0.81
  -4   3  -9   10.52    0.96
   4  -3   9   10.37    0.63
  -5   3  -9    0.09    0.13
   6   2  -9    0.07    0.07
  -6  -2   9    0.16    0.08
  -6  -2   9    0.09    0.08
   5   2  -9    2.83    0.23
   5   2  -9    2.71    0.24
   5   2  -9    3.34    0.52
  -5  -2   9    3.82    0.35
   4   2  -9   42.59    2.06
   4   2  -9   44.55    1.97
   4   2  -9   43.92    3.42
   4   2  -9   42.62    2.10
  -4  -2   9   41.11    2.46
   3   2  -9   12.89    0.63
   3   2  -9   12.46    1.12
   3   2  -9   11.76    0.66
  -3  -2   9   12.77    0.76
   2   2  -9    8.88    0.47
   2   2  -9    9.10    0.83
   2   2  -9    8.99    0.51
   1   2  -9    0.69    0.20
   1   2  -9    0.31    0.09
   1   2  -9    0.67    0.20
  -1  -2   9    0.16    0.12
   0   2  -9    1.82    0.20
  -1   2  -9    2.84    0.34
  -1   2  -9    3.16    0.29
  -1   2  -9    2.48    0.35
  -1   2  -9    2.72    0.39
  -1   2  -9    2.96    0.25
  -2   2  -9   24.50    2.01
  -2   2  -9   24.58    1.72
  -3   2  -9    8.62    0.73
  -3   2  -9    8.55    0.84
   3  -2   9    8.64    0.53
  -4   2  -9   -0.12    0.13
  -4   2  -9    0.07    0.17
   4  -2   9    0.05    0.06
  -5   2  -9    0.17    0.15
  -5   2  -9    0.29    0.17
  -6   2  -9    1.48    0.23
   6   1  -9    5.56    0.33
  -6  -1   9    5.40    0.40
   5   1  -9    1.84    0.20
   5   1  -9    2.33    0.42
  -5  -1   9    2.95    0.33
  -5  -1   9    1.73    0.23
   4   1  -9    0.25    0.10
   4   1  -9    0.59    0.12
   4   1  -9    0.23    0.10
  -4  -1   9    0.57    0.19
   3   1  -9   11.58    1.03
   3   1  -9   11.31    0.62
   3   1  -9   12.34    0.64
   3   1  -9   11.98    0.59
  -3  -1   9   10.85    0.71
   2   1  -9   36.81    3.45
   2   1  -9   46.98    3.41
   2   1  -9   45.22    2.12
   2   1  -9   44.84    1.98
  -2  -1   9   42.59    2.22
   1   1  -9    4.51    0.29
  -1  -1   9    3.92    0.34
   0   1  -9   38.89    1.65
   0  -1   9   37.08    1.93
  -1   1  -9    4.22    0.29
  -1   1  -9    4.01    0.29
  -2   1  -9   15.14    1.09
  -2   1  -9   13.98    0.76
  -2   1  -9   14.58    1.25
  -2   1  -9   15.08    1.27
  -3   1  -9    1.49    0.27
  -3   1  -9    1.30    0.28
  -3   1  -9    1.44    0.28
   3  -1   9    1.73    0.16
  -4   1  -9   24.00    1.63
  -4   1  -9   22.63    1.91
   4  -1   9   22.56    1.34
  -5   1  -9   35.97    2.48
  -5   1  -9   35.52    2.90
   5  -1   9   39.83    2.11
   5  -1   9   35.03    2.09
  -6   1  -9   16.30    1.29
   6  -1   9   14.80    0.92
   6   0  -9    2.25    0.19
  -6   0   9    2.57    0.24
   5   0  -9    1.05    0.15
  -5   0   9    1.17    0.19
  -5   0   9    1.48    0.21
   4   0  -9   11.57    0.64
   4   0  -9   11.34    0.64
   4   0  -9   11.53    0.60
  -4   0   9   11.40    0.78
  -4   0   9   13.35    0.81
   3   0  -9    0.74    0.13
   3   0  -9    0.64    0.12
   3   0  -9    0.71    0.12
   3   0  -9    0.70    0.24
  -3   0   9    0.68    0.17
   2   0  -9    6.87    0.40
   2   0  -9    7.13    0.41
   2   0  -9    6.72    0.38
   2   0  -9    6.22    0.67
  -2   0   9    7.09    0.49
  -2   0   9    6.08    0.44
   1   0  -9    2.60    0.22
  -1   0   9    2.58    0.20
  -1   0   9    3.02    0.29
   0   0  -9    0.67    0.14
   0   0   9    0.71    0.16
  -1   0  -9   16.57    0.79
  -1   0  -9   16.25    0.78
   1   0   9   16.93    0.94
  -2   0  -9   23.44    1.06
  -2   0  -9   20.63    1.61
  -2   0  -9   22.97    1.05
   2   0   9   24.40    1.32
  -3   0  -9   11.92    1.09
  -3   0  -9   12.85    0.95
  -3   0  -9   12.21    1.08
   3   0   9   12.06    0.74
  -4   0  -9   22.98    1.63
  -4   0  -9   22.37    1.88
  -4   0  -9   22.83    1.87
   4   0   9   22.32    1.33
   4   0   9   23.38    1.36
  -5   0  -9    8.39    0.81
   5   0   9    8.42    0.58
   5   0   9    8.50    0.55
  -6   0  -9    0.54    0.16
   6   0   9    0.46    0.11
   6  -1  -9    0.01    0.06
   6  -1  -9    0.05    0.06
  -6   1   9   -0.03    0.08
   5  -1  -9    3.89    0.28
   5  -1  -9    3.77    0.30
  -5   1   9    3.93    0.35
   4  -1  -9    0.44    0.11
   4  -1  -9    0.55    0.13
   4  -1  -9    0.45    0.11
   4  -1  -9    0.72    0.13
  -4   1   9    0.46    0.15
  -4   1   9    1.42    0.27
   3  -1  -9    9.10    0.56
   3  -1  -9    8.66    0.48
   3  -1  -9    8.59    0.50
   3  -1  -9    8.39    0.50
  -3   1   9    8.90    0.64
   2  -1  -9    2.25    0.23
   2  -1  -9    1.89    0.19
   2  -1  -9    1.68    0.17
   2  -1  -9    1.71    0.18
  -2   1   9    2.18    0.20
  -2   1   9    1.58    0.22
  -2   1   9    1.23    0.20
   1  -1  -9    6.88    0.44
  -1   1   9    9.05    0.49
  -1   1   9    7.99    0.54
  -1   1   9    7.51    0.66
   0  -1  -9   17.49    0.83
   0   1   9   17.89    0.99
   0   1   9   16.89    1.03
   0   1   9   18.40    1.26
  -1  -1  -9   10.60    0.56
  -1  -1  -9   11.02    0.57
   1   1   9   11.73    0.66
   1   1   9   10.39    0.66
   1   1   9   10.41    0.85
  -2  -1  -9    4.17    0.29
  -2  -1  -9    3.78    0.28
   2   1   9    3.60    0.42
   2   1   9    4.02    0.28
  -3  -1  -9   10.85    1.00
  -3  -1  -9   11.45    0.69
  -3  -1  -9   11.21    0.94
  -3  -1  -9   11.12    1.01
   3   1   9   11.94    0.73
   3   1   9   11.11    0.69
  -4  -1  -9    0.18    0.09
  -4  -1  -9    0.19    0.19
   4   1   9    0.07    0.09
   4   1   9    0.15    0.08
  -5  -1  -9    0.45    0.11
  -5  -1  -9    0.33    0.19
   5   1   9    0.36    0.11
   5   1   9    0.29    0.11
  -6  -1  -9    7.46    0.69
  -6  -1  -9    7.30    0.47
   6   1   9    8.12    0.52
   5  -2  -9    0.26    0.10
   5  -2  -9    0.13    0.09
  -5   2   9    0.10    0.11
   3  -2  -9   12.49    0.70
   3  -2  -9   13.35    0.81
   3  -2  -9   13.06    0.72
   3  -2  -9   13.19    0.67
  -3   2   9   14.50    0.92
   2  -2  -9    0.12    0.09
   2  -2  -9    0.02    0.08
   2  -2  -9    0.06    0.09
  -2   2   9    0.01    0.11
  -2   2   9    0.10    0.19
   1  -2  -9   10.74    0.66
   1  -2  -9   11.26    0.56
   1  -2  -9   11.46    0.59
  -1   2   9   10.51    0.73
  -1   2   9   10.96    0.68
  -1   2   9   10.87    0.68
  -1   2   9   10.39    0.67
   0  -2  -9    6.79    0.42
   0   2   9    7.88    0.51
   0   2   9    6.72    0.43
   0   2   9    7.11    0.63
  -1  -2  -9    7.67    0.43
  -1  -2  -9    7.39    0.43
   1   2   9    7.23    0.47
   1   2   9    7.18    0.66
   1   2   9    7.34    0.50
  -2  -2  -9   13.86    0.85
  -2  -2  -9   13.60    0.69
  -2  -2  -9   13.13    1.19
  -2  -2  -9   13.62    0.69
   2   2   9   14.22    0.82
   2   2   9   14.62    0.84
  -3  -2  -9    0.18    0.09
  -3  -2  -9    0.27    0.19
   3   2   9    0.18    0.11
   3   2   9    0.11    0.08
  -4  -2  -9    0.36    0.11
   4   2   9    0.14    0.09
   4   2   9    0.15    0.11
  -5  -2  -9    3.19    0.28
   5   2   9    3.21    0.31
  -6  -2  -9    0.11    0.16
  -6  -2  -9    0.00    0.08
   6   2   9    0.07    0.10
   7   2   9    1.22    0.15
   5  -3  -9    0.62    0.11
   5  -3  -9    0.58    0.10
  -5   3   9    0.58    0.13
   4  -3  -9    5.03    0.38
   4  -3  -9    5.03    0.33
  -4   3   9    4.94    0.41
   3  -3  -9   11.88    0.61
   3  -3  -9   12.80    0.76
   3  -3  -9   10.90    0.64
   3  -3  -9   11.48    0.65
  -3   3   9   13.24    0.82
   2  -3  -9    5.64    0.42
   2  -3  -9    6.01    0.37
   2  -3  -9    6.12    0.35
  -2   3   9    5.55    0.47
  -2   3   9    5.94    0.47
   1  -3  -9    3.06    0.25
   1  -3  -9    3.41    0.29
  -1   3   9    3.68    0.34
  -1   3   9    3.48    0.42
   0  -3  -9    0.61    0.11
   0  -3  -9    0.46    0.11
   0   3   9    0.45    0.14
   0   3   9    0.55    0.15
  -1  -3  -9    0.01    0.08
  -1  -3  -9    0.10    0.10
  -1  -3  -9    0.19    0.09
  -1  -3  -9   -0.24    0.25
  -1  -3  -9   -0.03    0.10
   1   3   9   -0.05    0.10
   1   3   9    0.12    0.08
  -2  -3  -9    0.89    0.23
  -2  -3  -9    0.30    0.10
  -2  -3  -9    0.73    0.14
   2   3   9    0.82    0.17
  -3  -3  -9    0.80    0.24
  -3  -3  -9    0.78    0.15
   3   3   9    0.56    0.14
  -4  -3  -9    2.44    0.26
   4   3   9    1.95    0.28
   4   3   9    2.93    0.29
  -5  -3  -9    1.16    0.17
   5   3   9    1.31    0.19
  -6  -3  -9    0.84    0.23
  -6  -3  -9    0.74    0.14
   6   3   9    0.68    0.14
   4  -4  -9    2.75    0.25
   4  -4  -9    2.57    0.21
  -4   4   9    2.92    0.27
   3  -4  -9    7.70    0.45
   3  -4  -9    8.03    0.54
  -3   4   9    7.56    0.56
   2  -4  -9    5.50    0.35
   2  -4  -9    5.54    0.33
   2  -4  -9    5.51    0.41
  -2   4   9    5.22    0.46
   1  -4  -9   12.97    0.65
   1  -4  -9   12.98    0.79
  -1   4   9   11.92    0.82
  -1   4   9   12.51    0.84
   0  -4  -9    2.26    0.21
   0  -4  -9    2.51    0.24
   0   4   9    2.62    0.29
   0   4   9    1.77    0.25
  -1  -4  -9    1.56    0.19
  -1  -4  -9    1.55    0.17
   1   4   9    1.48    0.22
   1   4   9    1.68    0.22
  -2  -4  -9    0.04    0.09
  -2  -4  -9    0.06    0.10
   2   4   9    0.20    0.13
   2   4   9    0.16    0.13
  -3  -4  -9    4.23    0.33
  -3  -4  -9    3.64    0.45
  -3  -4  -9    3.59    0.26
   3   4   9    3.10    0.34
  -4  -4  -9    0.21    0.12
   4   4   9    0.14    0.13
  -5  -4  -9    4.20    0.33
   5   4   9    3.77    0.35
  -6  -4  -9    0.08    0.10
  -6  -4  -9   -0.15    0.13
   6   4   9    0.08    0.10
   4  -5  -9    1.42    0.15
   3  -5  -9    5.49    0.34
   3  -5  -9    6.27    0.42
  -3   5   9    5.84    0.43
   2  -5  -9    2.38    0.24
   2  -5  -9    2.05    0.18
  -2   5   9    1.62    0.23
   1  -5  -9    6.39    0.38
   1  -5  -9    6.50    0.47
  -1   5   9    6.75    0.52
   0  -5  -9    6.48    0.47
   0  -5  -9    6.05    0.37
   0   5   9    7.41    0.49
   0   5   9    5.97    0.50
  -1  -5  -9    0.31    0.12
  -1  -5  -9    0.28    0.10
   1   5   9    0.50    0.16
   1   5   9    0.40    0.14
  -2  -5  -9    1.94    0.23
  -2  -5  -9    1.73    0.19
   2   5   9    1.69    0.23
   2   5   9    1.49    0.22
  -3  -5  -9    5.51    0.41
  -3  -5  -9    4.99    0.33
   3   5   9    5.26    0.44
  -4  -5  -9    1.59    0.29
  -4  -5  -9    2.00    0.23
   4   5   9    1.93    0.25
  -5  -5  -9    0.25    0.11
  -5  -5  -9    0.24    0.15
   5   5   9    0.21    0.12
  -6  -5  -9    0.26    0.09
  -6  -5  -9    0.20    0.13
   6   5   9    0.01    0.08
   2  -6  -9    0.92    0.14
  -2   6   9    0.77    0.14
   1  -6  -9    0.17    0.10
   1  -6  -9    0.18    0.08
  -1   6   9    0.22    0.12
   0  -6  -9    3.08    0.23
   0  -6  -9    3.05    0.29
   0   6   9    3.24    0.33
  -1  -6  -9    0.12    0.09
  -1  -6  -9    0.02    0.10
   1   6   9    0.08    0.12
  -2  -6  -9    2.23    0.21
  -2  -6  -9    2.34    0.25
   2   6   9    2.30    0.27
  -3  -6  -9    0.01    0.09
  -3  -6  -9   -0.06    0.08
   3   6   9    0.09    0.12
  -4  -6  -9   10.66    0.67
  -4  -6  -9   10.36    0.54
   4   6   9   10.74    0.69
  -5  -6  -9    1.17    0.15
   5   6   9    1.41    0.17
   1  -7  -9    0.50    0.10
   1  -7  -9    0.38    0.07
  -1   7   9    0.47    0.11
   0  -7  -9   -0.04    0.07
   0  -7  -9   -0.01    0.06
   0   7   9   -0.14    0.09
  -1  -7  -9    3.37    0.23
  -1  -7  -9    3.42    0.28
   1   7   9    2.83    0.30
  -2  -7  -9    2.03    0.17
  -2  -7  -9    1.36    0.17
   2   7   9    1.49    0.21
  -3  -7  -9    0.21    0.09
  -3  -7  -9    0.17    0.09
   3   7   9    0.17    0.12
  -4  -7  -9   18.16    0.84
  -4  -7  -9   18.70    1.04
   4   7   9   16.82    1.06
   4   6 -10    0.33    0.09
   3   6 -10    0.03    0.08
   2   6 -10    1.15    0.13
   2   6 -10    1.14    0.13
   1   6 -10    2.70    0.21
   0   6 -10    0.20    0.08
   0   6 -10    0.09    0.12
  -1   6 -10    0.44    0.14
  -1   6 -10    0.40    0.08
   5   5 -10    0.18    0.07
   5   5 -10    0.02    0.22
   4   5 -10    0.56    0.11
   4   5 -10    1.73    0.44
  -4  -5  10    0.62    0.09
   3   5 -10    2.32    0.50
   2   5 -10    0.22    0.09
   0   5 -10    2.65    0.34
  -1   5 -10    0.10    0.13
  -2   5 -10    0.13    0.13
  -3   5 -10    4.38    0.39
   5   4 -10    6.48    0.72
   5   4 -10    6.39    0.36
   5   4 -10    6.05    0.35
  -5  -4  10    5.95    0.40
   4   4 -10    6.55    0.39
   4   4 -10    6.99    0.40
  -4  -4  10    6.55    0.44
   3   4 -10    2.15    0.55
   2   4 -10    1.42    0.16
   2   4 -10    1.76    0.40
   1   4 -10    0.62    0.23
   0   4 -10    6.17    0.61
   0   4 -10    5.80    0.55
  -1   4 -10   14.49    1.26
  -1   4 -10   15.03    1.11
  -2   4 -10    3.15    0.42
  -2   4 -10    3.19    0.38
  -3   4 -10    0.18    0.15
  -3   4 -10    0.03    0.12
   3  -4  10    0.12    0.05
  -4   4 -10    0.22    0.12
  -4   4 -10    0.32    0.11
   6   3 -10    0.33    0.14
   6   3 -10   -0.02    0.05
   5   3 -10    0.14    0.08
   5   3 -10    0.58    0.39
   5   3 -10    0.08    0.07
  -5  -3  10    0.18    0.11
   4   3 -10    7.53    1.01
   3   3 -10    1.56    0.18
   3   3 -10    2.33    0.50
   2   3 -10   27.49    1.37
   2   3 -10   26.49    2.32
   2   3 -10   28.13    2.22
   1   3 -10   22.16    1.14
   1   3 -10   23.58    1.87
   1   3 -10   22.09    1.84
   0   3 -10    0.38    0.18
   0   3 -10    0.35    0.17
   0   3 -10    0.32    0.16
  -1   3 -10   20.71    1.48
  -1   3 -10   20.34    1.71
  -2   3 -10   17.77    1.32
  -2   3 -10   18.28    1.53
  -3   3 -10    3.99    0.48
  -3   3 -10    3.70    0.43
   3  -3  10    3.94    0.27
  -4   3 -10    1.24    0.22
  -4   3 -10    1.04    0.23
   4  -3  10    0.94    0.12
  -5   3 -10    0.10    0.10
   6   2 -10    7.72    0.42
   5   2 -10    0.46    0.10
   5   2 -10    0.74    0.35
   5   2 -10    0.55    0.11
  -5  -2  10    0.91    0.17
   4   2 -10    1.63    0.56
   4   2 -10    0.84    0.48
  -4  -2  10    0.20    0.16
   3   2 -10    5.94    0.34
   3   2 -10    5.58    0.36
   3   2 -10    3.61    0.78
   3   2 -10    5.66    0.68
  -3  -2  10    5.88    0.39
   2   2 -10    0.66    0.51
   2   2 -10    0.54    0.11
   2   2 -10    0.63    0.22
   2   2 -10    0.92    0.14
   1   2 -10   27.44    1.37
   1   2 -10   27.06    2.21
   1   2 -10   27.72    2.22
   0   2 -10   11.84    1.05
   0   2 -10   12.31    1.08
  -1   2 -10   10.76    0.96
  -1   2 -10   10.61    0.83
  -1   2 -10    9.82    0.93
  -2   2 -10   10.50    0.81
  -2   2 -10   10.07    0.93
  -2   2 -10    9.28    0.88
  -3   2 -10    4.12    0.43
  -3   2 -10    3.48    0.48
   3  -2  10    3.51    0.26
  -4   2 -10    0.03    0.13
  -4   2 -10    0.04    0.15
   4  -2  10    0.11    0.06
  -5   2 -10   -0.04    0.11
   5  -2  10   -0.01    0.06
   6   1 -10    2.07    0.17
  -6  -1  10    2.22    0.19
   5   1 -10    1.13    0.13
   5   1 -10    1.69    0.16
  -5  -1  10    1.79    0.21
   4   1 -10   19.14    0.98
   4   1 -10   20.69    1.79
   4   1 -10   19.03    0.94
   4   1 -10   18.24    1.69
   4   1 -10   19.33    1.00
  -4  -1  10   20.28    1.19
   3   1 -10    0.14    0.09
   3   1 -10    0.54    0.26
   3   1 -10    0.25    0.10
  -3  -1  10    0.19    0.11
   2   1 -10   32.17    1.49
   2   1 -10   32.65    1.60
   2   1 -10   32.34    2.57
   2   1 -10   31.41    2.68
  -2  -1  10   32.40    1.83
   1   1 -10   17.79    1.48
   1   1 -10   17.12    0.90
   1   1 -10   17.34    0.84
   1   1 -10   17.58    1.46
   0   1 -10   14.59    1.24
   0   1 -10   13.93    1.22
  -1   1 -10   34.30    2.73
  -1   1 -10   35.14    2.75
  -1   1 -10   33.85    2.34
  -2   1 -10   15.32    1.16
  -2   1 -10   15.42    1.35
  -2   1 -10   16.09    1.34
   2  -1  10   15.82    0.92
  -3   1 -10   69.07    5.23
  -3   1 -10   69.35    5.27
  -3   1 -10   69.21    4.47
   3  -1  10   63.82    3.81
  -4   1 -10   -0.08    0.17
  -4   1 -10   -0.05    0.15
   4  -1  10    0.04    0.06
  -5   1 -10   23.19    1.78
  -5   1 -10   21.24    1.56
   5  -1  10   21.05    1.27
  -6   1 -10    1.30    0.21
   6   0 -10    0.41    0.07
  -6   0  10    0.70    0.12
   5   0 -10    1.57    0.16
  -5   0  10    1.61    0.21
   4   0 -10   12.99    0.69
   4   0 -10   13.31    0.73
   4   0 -10   13.35    0.74
  -4   0  10   16.06    0.93
  -4   0  10   13.70    0.88
   3   0 -10    4.90    0.33
   3   0 -10    4.13    0.53
   3   0 -10    4.54    0.30
  -3   0  10    4.29    0.40
   2   0 -10    5.78    0.63
   2   0 -10    6.12    0.37
   2   0 -10    5.96    0.39
  -2   0  10    6.98    0.41
   1   0 -10    4.17    0.73
   1   0 -10    5.97    0.37
   1   0 -10    6.19    0.60
   1   0 -10    6.04    0.34
   0   0 -10   38.64    2.96
   0   0 -10   38.52    2.97
   0   0 -10   36.66    1.71
   0   0 -10   37.98    1.83
   0   0  10   36.47    2.13
   0   0  10   36.59    1.94
  -1   0 -10    5.57    0.36
  -1   0 -10    5.98    0.62
  -1   0 -10    5.44    0.59
  -1   0 -10    6.05    0.55
   1   0  10    6.16    0.38
  -2   0 -10   32.78    2.26
  -2   0 -10   33.21    2.65
  -2   0 -10   34.49    2.65
   2   0  10   32.34    1.90
  -3   0 -10    7.36    0.73
  -3   0 -10    7.26    0.73
  -3   0 -10    7.61    0.68
   3   0  10    7.13    0.47
  -4   0 -10   20.13    1.84
  -4   0 -10   23.45    1.65
  -4   0 -10   22.28    1.86
   4   0  10   24.35    1.33
  -5   0 -10   11.98    1.01
  -5   0 -10   11.76    1.02
   5   0  10   11.37    0.73
   5   0  10   11.76    0.72
  -6   0 -10   37.67    2.86
   6   0  10   36.13    2.10
   5  -1 -10   -0.01    0.08
  -5   1  10    0.00    0.09
   4  -1 -10    1.26    0.15
   4  -1 -10    0.96    0.14
   4  -1 -10    1.06    0.14
   4  -1 -10    1.25    0.15
   4  -1 -10    1.11    0.22
  -4   1  10    1.51    0.21
  -4   1  10    1.49    0.26
   3  -1 -10    4.28    0.30
   3  -1 -10    4.50    0.32
  -3   1  10    5.03    0.50
  -3   1  10    4.56    0.39
   2  -1 -10   21.79    1.02
   2  -1 -10   20.84    1.09
  -2   1  10   20.77    1.27
  -2   1  10   21.67    1.30
   1  -1 -10    2.61    0.36
   1  -1 -10    2.46    0.21
   1  -1 -10    2.26    0.22
   0  -1 -10    0.05    0.08
   0  -1 -10    0.11    0.17
   0  -1 -10   -0.01    0.07
   0  -1 -10   -0.03    0.15
   0   1  10   -0.01    0.06
  -1  -1 -10    1.02    0.25
  -1  -1 -10    1.09    0.24
  -1  -1 -10    1.55    0.20
   1   1  10    0.70    0.17
   1   1  10    1.40    0.15
  -2  -1 -10    6.14    0.63
  -2  -1 -10    6.37    0.63
  -2  -1 -10    5.67    0.70
   2   1  10    6.01    0.41
  -3  -1 -10    1.13    0.25
  -3  -1 -10    1.57    0.32
  -3  -1 -10    1.58    0.40
   3   1  10    1.19    0.20
   3   1  10    1.56    0.17
  -4  -1 -10   -0.84    0.35
  -4  -1 -10    0.10    0.17
   4   1  10    0.16    0.09
   4   1  10    0.05    0.10
  -5  -1 -10    0.12    0.16
   5   1  10    0.20    0.10
   5   1  10    0.05    0.09
  -6  -1 -10    6.79    0.65
   6   1  10    7.75    0.49
   5  -2 -10    1.45    0.14
  -5   2  10    1.84    0.22
   3  -2 -10    2.12    0.22
   3  -2 -10    2.25    0.23
   3  -2 -10    2.25    0.21
  -3   2  10    2.52    0.29
   2  -2 -10    0.92    0.14
   2  -2 -10    1.21    0.16
   2  -2 -10    1.21    0.17
  -2   2  10    1.45    0.22
  -2   2  10    1.43    0.29
   1  -2 -10    0.31    0.09
   1  -2 -10    0.54    0.12
   1  -2 -10    0.35    0.09
  -1   2  10    0.15    0.13
  -1   2  10    0.34    0.14
   0  -2 -10    5.77    0.40
   0  -2 -10    6.23    0.62
   0  -2 -10    6.16    0.36
   0   2  10    6.14    0.40
   0   2  10    6.40    0.46
  -1  -2 -10   -0.95    0.41
  -1  -2 -10    0.38    0.10
  -1  -2 -10    0.35    0.19
  -1  -2 -10    0.41    0.10
   1   2  10    0.25    0.12
  -2  -2 -10    4.08    0.31
  -2  -2 -10    3.82    0.48
  -2  -2 -10    4.15    0.61
   2   2  10    4.04    0.34
   2   2  10    4.54    0.32
  -3  -2 -10    5.70    0.57
  -3  -2 -10    5.20    0.36
  -3  -2 -10    3.33    0.63
   3   2  10    5.17    0.40
   3   2  10    4.88    0.36
  -4  -2 -10    3.16    0.28
  -4  -2 -10    3.33    0.45
   4   2  10    3.52    0.29
   4   2  10    3.67    0.32
  -5  -2 -10    3.90    0.48
  -5  -2 -10    4.10    0.30
   5   2  10    3.49    0.32
  -6  -2 -10    0.12    0.14
  -6  -2 -10   -0.03    0.06
   6   2  10   -0.06    0.08
   4  -3 -10    0.15    0.09
   4  -3 -10    0.18    0.08
  -4   3  10    0.09    0.11
   3  -3 -10   11.94    0.61
   3  -3 -10   12.03    0.65
   3  -3 -10   11.70    0.74
  -3   3  10   12.22    0.80
   2  -3 -10    2.08    0.23
   2  -3 -10    2.12    0.21
   2  -3 -10    2.04    0.20
  -2   3  10    2.15    0.28
   1  -3 -10    0.04    0.09
   1  -3 -10    0.08    0.08
  -1   3  10    0.32    0.28
  -1   3  10    0.03    0.12
   0  -3 -10    0.16    0.09
   0  -3 -10    0.04    0.08
   0   3  10    0.18    0.12
   0   3  10   -0.16    0.17
  -1  -3 -10   14.37    0.68
  -1  -3 -10   15.05    1.08
  -1  -3 -10   13.19    0.80
   1   3  10   10.82    0.81
   1   3  10   13.99    0.86
  -2  -3 -10    0.14    0.16
  -2  -3 -10    0.22    0.09
  -2  -3 -10    0.16    0.10
   2   3  10    0.14    0.12
   2   3  10   -0.12    0.10
  -3  -3 -10    6.16    0.61
  -3  -3 -10    5.58    0.40
  -3  -3 -10    3.81    0.61
   3   3  10    6.25    0.45
  -4  -3 -10    2.82    0.26
  -4  -3 -10    2.67    0.39
  -4  -3 -10    1.52    0.40
   4   3  10    2.43    0.28
  -5  -3 -10    0.24    0.19
  -5  -3 -10    0.38    0.11
   5   3  10    0.30    0.12
  -6  -3 -10    0.34    0.09
  -6  -3 -10    0.15    0.14
   6   3  10    0.22    0.10
   4  -4 -10    0.37    0.09
   4  -4 -10    0.37    0.08
  -4   4  10    0.24    0.10
   3  -4 -10   11.52    0.75
  -3   4  10   13.04    0.80
   2  -4 -10    4.18    0.33
   2  -4 -10    4.15    0.27
   2  -4 -10    3.52    0.27
  -2   4  10    4.14    0.37
   1  -4 -10    0.19    0.09
   1  -4 -10    0.48    0.13
  -1   4  10    0.61    0.17
   0  -4 -10    0.14    0.11
   0  -4 -10    0.16    0.10
   0   4  10    0.20    0.13
   0   4  10    0.12    0.13
  -1  -4 -10    2.71    0.22
  -1  -4 -10    2.45    0.25
   1   4  10    2.54    0.30
   1   4  10    2.70    0.30
  -2  -4 -10    1.67    0.18
  -2  -4 -10    1.52    0.20
   2   4  10    1.91    0.26
   2   4  10    1.57    0.25
  -3  -4 -10    0.22    0.10
  -3  -4 -10    0.38    0.12
  -3  -4 -10    0.43    0.19
   3   4  10    0.20    0.14
  -4  -4 -10    0.03    0.15
  -4  -4 -10    0.09    0.09
  -5  -4 -10    3.80    0.30
  -5  -4 -10    3.43    0.43
  -6  -4 -10    0.48    0.15
  -6  -4 -10    0.40    0.09
   3  -5 -10    2.59    0.22
  -3   5  10    2.19    0.23
   2  -5 -10    0.19    0.08
   2  -5 -10    0.28    0.09
   2  -5 -10    0.36    0.11
  -2   5  10    0.17    0.12
   1  -5 -10    1.32    0.15
   1  -5 -10    1.04    0.16
  -1   5  10    0.97    0.18
   0  -5 -10    0.00    0.08
   0  -5 -10    0.02    0.11
   0   5  10    0.04    0.12
  -1  -5 -10    1.30    0.15
  -1  -5 -10    1.42    0.19
   1   5  10    1.44    0.22
  -2  -5 -10    0.12    0.11
  -2  -5 -10    0.08    0.09
   2   5  10    0.03    0.12
  -3  -5 -10    4.19    0.34
  -3  -5 -10    4.35    0.28
   3   5  10    4.14    0.37
  -4  -5 -10    2.14    0.22
  -4  -5 -10    2.11    0.29
   4   5  10    1.35    0.21
  -5  -5 -10    0.55    0.12
  -5  -5 -10    0.48    0.15
   5   5  10    0.59    0.13
   2  -6 -10    0.11    0.08
  -2   6  10    0.20    0.09
   1  -6 -10    0.07    0.07
   1  -6 -10    0.13    0.09
   1  -6 -10    0.14    0.07
  -1   6  10    0.10    0.10
   0  -6 -10    2.68    0.25
   0  -6 -10    2.67    0.21
   0   6  10    2.86    0.29
  -1  -6 -10    0.29    0.11
  -1  -6 -10    0.45    0.10
   1   6  10    0.41    0.14
  -2  -6 -10    0.18    0.10
  -2  -6 -10    0.24    0.09
   2   6  10    0.25    0.13
  -3  -6 -10    2.26    0.24
  -3  -6 -10    2.34    0.20
   3   6  10    2.27    0.26
  -4  -6 -10   23.03    1.05
  -4  -6 -10   23.15    1.31
   4   6  10   22.12    1.34
  -5  -6 -10    1.46    0.16
   5   6  10    1.41    0.16
   0  -7 -10    0.08    0.07
   0  -7 -10    0.07    0.05
   0   7  10   -0.06    0.08
  -1  -7 -10    2.25    0.17
  -1  -7 -10    2.34    0.20
   1   7  10    1.82    0.22
  -2  -7 -10    1.49    0.18
  -2  -7 -10    1.43    0.14
   2   7  10    1.50    0.21
  -3  -7 -10    0.53    0.09
  -3  -7 -10    0.31    0.08
   3   6 -11    1.88    0.15
   4   5 -11    5.07    0.32
   4   5 -11    6.42    0.66
   3   5 -11    3.29    0.23
   2   5 -11    0.84    0.11
  -1   5 -11    0.73    0.17
  -2   5 -11    0.35    0.12
   5   4 -11    0.52    0.26
   5   4 -11    0.67    0.09
   4   4 -11    1.91    0.51
   3   4 -11    7.17    0.92
   2   4 -11    1.82    0.45
   2   4 -11    1.81    0.18
   1   4 -11    1.97    0.46
   1   4 -11    2.58    0.41
   0   4 -11    0.10    0.15
  -1   4 -11    3.51    0.43
  -1   4 -11    3.40    0.39
  -2   4 -11    0.17    0.14
  -2   4 -11   -0.03    0.12
  -3   4 -11    0.10    0.10
  -3   4 -11    0.06    0.11
   5   3 -11    1.04    0.34
   5   3 -11    0.45    0.09
   5   3 -11    0.38    0.08
   4   3 -11    6.73    1.00
   3   3 -11    0.54    0.11
   3   3 -11    0.64    0.60
   2   3 -11    2.17    0.60
   2   3 -11    1.70    0.19
   2   3 -11    1.83    0.36
   1   3 -11    1.22    0.15
   1   3 -11    0.87    0.24
   1   3 -11    1.17    0.36
   0   3 -11    4.04    0.46
   0   3 -11    3.87    0.48
  -1   3 -11    3.28    0.45
  -1   3 -11    3.46    0.40
  -2   3 -11    0.38    0.19
  -2   3 -11    0.38    0.16
  -3   3 -11    4.73    0.45
  -3   3 -11    4.92    0.52
   3  -3  11    4.33    0.30
  -4   3 -11    1.77    0.26
  -4   3 -11    1.59    0.25
   5   2 -11    3.24    0.22
   5   2 -11    3.21    0.22
   5   2 -11    4.06    0.54
  -5  -2  11    3.27    0.28
   3   2 -11    0.41    0.10
   3   2 -11    0.16    0.10
   3   2 -11    1.37    0.65
   3   2 -11    0.84    0.36
  -3  -2  11    0.33    0.11
   2   2 -11    1.70    0.59
   2   2 -11    0.53    0.12
   2   2 -11    0.38    0.10
   2   2 -11    0.26    0.20
   1   2 -11    1.77    0.41
   1   2 -11    2.06    0.20
   1   2 -11    2.16    0.35
   0   2 -11   32.88    2.58
   0   2 -11   31.04    2.54
  -1   2 -11    3.49    0.43
  -1   2 -11    3.65    0.47
  -1   2 -11    3.70    0.41
  -2   2 -11    6.29    0.67
  -2   2 -11    6.18    0.63
  -2   2 -11    7.00    0.59
   2  -2  11    6.26    0.40
  -3   2 -11    5.51    0.59
  -3   2 -11    4.95    0.50
   3  -2  11    5.43    0.35
  -4   2 -11    2.32    0.34
  -4   2 -11    1.91    0.31
   4  -2  11    2.06    0.18
  -5   2 -11    0.17    0.11
   5   1 -11    7.49    0.88
   5   1 -11    9.57    0.49
   5   1 -11    9.60    0.49
   4   1 -11   14.65    0.83
   4   1 -11   18.76    1.68
   4   1 -11   16.34    0.79
   4   1 -11   15.54    1.46
  -4  -1  11   16.60    1.01
   3   1 -11   94.96    7.57
   3   1 -11  100.66    4.37
   3   1 -11  102.09    4.66
   3   1 -11  100.45    7.50
  -3  -1  11   91.10    5.50
   2   1 -11    3.36    0.24
   2   1 -11    3.22    0.43
   2   1 -11    3.31    0.27
   1   1 -11   74.51    5.73
   1   1 -11   73.58    5.70
   1   1 -11   73.61    3.32
   1   1 -11   74.13    3.54
   0   1 -11   18.19    1.52
   0   1 -11   18.05    1.53
  -1   1 -11   18.27    1.29
  -1   1 -11   17.45    1.49
  -1   1 -11   17.07    1.48
  -2   1 -11    4.43    0.49
  -2   1 -11    4.81    0.55
  -2   1 -11    4.59    0.52
   2  -1  11    4.80    0.32
  -3   1 -11   16.77    1.40
  -3   1 -11   15.91    1.21
  -3   1 -11   16.21    1.37
   3  -1  11   16.28    0.97
  -4   1 -11    0.66    0.28
  -4   1 -11    0.24    0.15
   4  -1  11    0.44    0.09
  -5   1 -11    0.07    0.31
  -5   1 -11    0.38    0.14
   5   0 -11    0.02    0.06
  -5   0  11    0.04    0.07
   4   0 -11   12.60    0.67
   4   0 -11   13.43    0.63
   4   0 -11   10.44    1.19
  -4   0  11   13.33    0.84
   3   0 -11   20.41    1.73
   3   0 -11   20.77    1.07
   3   0 -11   21.19    1.00
  -3   0  11   21.09    1.28
   2   0 -11   52.85    2.54
   2   0 -11   53.90    2.38
   2   0 -11   54.72    4.08
   2   0 -11   51.00    4.18
  -2   0  11   48.91    2.97
   1   0 -11    6.30    0.65
   1   0 -11    6.21    0.37
   1   0 -11    6.42    0.40
   1   0 -11    6.36    0.90
   0   0 -11   16.04    1.37
   0   0 -11   16.60    0.85
   0   0 -11   14.37    0.79
   0   0 -11   16.60    1.39
   0   0  11   17.08    0.96
  -1   0 -11    3.92    0.46
  -1   0 -11    3.75    0.47
  -1   0 -11    3.03    0.46
   1   0  11    3.61    0.27
  -2   0 -11    0.78    0.29
  -2   0 -11    0.75    0.23
  -2   0 -11    0.96    0.25
   2   0  11    0.74    0.11
  -3   0 -11    0.04    0.15
  -3   0 -11    0.40    0.31
  -3   0 -11    0.15    0.19
   3   0  11    0.06    0.07
  -4   0 -11    4.05    0.47
  -4   0 -11    5.50    0.67
  -4   0 -11    3.65    0.46
   4   0  11    3.96    0.30
  -5   0 -11    2.71    0.46
  -5   0 -11    3.78    0.39
   5   0  11    3.16    0.26
   5  -1 -11    0.09    0.06
  -5   1  11    0.03    0.08
   4  -1 -11    0.10    0.08
   4  -1 -11    0.07    0.08
  -4   1  11    0.02    0.09
   3  -1 -11    2.40    0.22
   3  -1 -11    2.57    0.24
  -3   1  11    2.41    0.27
   2  -1 -11   11.20    0.57
   2  -1 -11   11.16    0.60
  -2   1  11    9.66    0.72
   1  -1 -11    2.68    0.24
   1  -1 -11    2.53    0.22
   1  -1 -11    2.61    0.37
  -1   1  11    2.88    0.23
   0  -1 -11    1.42    0.17
   0  -1 -11    1.10    0.14
   0  -1 -11    0.56    0.35
   0  -1 -11    1.61    0.31
  -1  -1 -11    1.61    0.31
  -1  -1 -11    1.28    0.24
  -1  -1 -11    0.58    0.45
   1   1  11    1.07    0.15
  -2  -1 -11    0.19    0.17
  -2  -1 -11    0.21    0.20
  -2  -1 -11    1.11    0.42
   2   1  11    0.31    0.09
  -3  -1 -11    6.29    0.66
  -3  -1 -11    5.97    0.64
   3   1  11    6.63    0.43
  -4  -1 -11    0.78    0.24
  -4  -1 -11    1.09    0.47
   4   1  11    0.65    0.13
   4   1  11    1.14    0.17
  -5  -1 -11    0.63    0.37
  -5  -1 -11    1.38    0.25
   5   1  11    1.56    0.18
   6   1  11   11.10    0.67
   4  -2 -11    1.04    0.12
  -4   2  11    1.05    0.18
   3  -2 -11    6.97    0.45
   3  -2 -11    9.40    0.68
   3  -2 -11    7.27    0.43
   3  -2 -11    7.79    0.49
  -3   2  11    7.27    0.55
   2  -2 -11    0.13    0.08
   2  -2 -11    0.10    0.09
   2  -2 -11    0.14    0.10
  -2   2  11    0.83    0.30
  -2   2  11    0.09    0.12
   1  -2 -11    6.30    0.43
   1  -2 -11    6.92    0.40
   1  -2 -11    7.56    0.43
  -1   2  11    5.51    0.52
  -1   2  11    7.19    0.51
   0  -2 -11    3.47    0.43
   0  -2 -11    3.70    0.25
   0  -2 -11    3.78    0.27
   0   2  11    2.81    0.27
   0   2  11    3.33    0.32
  -1  -2 -11   10.34    1.03
  -1  -2 -11    9.55    0.52
  -1  -2 -11    9.49    0.85
  -1  -2 -11    9.69    0.49
   1   2  11    7.75    0.56
   1   2  11    9.59    0.63
  -2  -2 -11    3.14    0.42
  -2  -2 -11    3.28    0.57
  -3  -2 -11    1.14    0.54
  -3  -2 -11    1.60    0.33
   3   2  11    1.18    0.15
   3   2  11    1.22    0.18
  -4  -2 -11   11.50    1.02
  -4  -2 -11    9.64    1.04
   4   2  11   11.94    0.74
   4   2  11   11.50    0.71
  -5  -2 -11    1.74    0.29
   5   2  11    1.41    0.18
  -6  -2 -11    3.27    0.34
   6   2  11    3.12    0.25
   4  -3 -11    1.88    0.16
  -4   3  11    1.84    0.21
   3  -3 -11    8.77    0.47
   3  -3 -11    8.95    0.50
   3  -3 -11    9.94    0.57
  -3   3  11    8.14    0.61
   2  -3 -11    7.33    0.49
   2  -3 -11    7.83    0.42
   2  -3 -11    7.39    0.44
  -2   3  11    6.93    0.54
   1  -3 -11    6.98    0.42
   1  -3 -11    7.24    0.40
   1  -3 -11    6.84    0.45
  -1   3  11    6.62    0.52
   0  -3 -11    1.62    0.17
   0  -3 -11    1.98    0.19
   0  -3 -11    1.66    0.19
   0   3  11    1.37    0.30
   0   3  11    2.40    0.27
  -1  -3 -11    0.48    0.21
  -1  -3 -11    0.44    0.11
  -1  -3 -11    0.42    0.11
   1   3  11   -0.17    0.16
   1   3  11    0.50    0.14
  -2  -3 -11    0.03    0.08
  -2  -3 -11    0.02    0.14
  -2  -3 -11    0.00    0.08
   2   3  11    0.05    0.11
  -3  -3 -11    9.78    1.12
  -3  -3 -11   13.35    1.08
  -3  -3 -11   12.00    0.73
  -4  -3 -11   -0.01    0.08
  -4  -3 -11   -0.05    0.15
   4   3  11    0.04    0.10
  -5  -3 -11    6.08    0.59
  -5  -3 -11    5.69    0.39
   5   3  11    6.61    0.44
  -6  -3 -11    4.14    0.41
   3  -4 -11   11.75    0.60
   3  -4 -11   10.43    0.68
  -3   4  11   12.19    0.73
   2  -4 -11    5.16    0.36
   2  -4 -11    4.42    0.31
   2  -4 -11    4.63    0.30
  -2   4  11    5.60    0.41
   1  -4 -11    0.74    0.13
   1  -4 -11    0.61    0.12
   1  -4 -11    0.91    0.13
  -1   4  11    0.66    0.16
   0  -4 -11    0.87    0.13
   0  -4 -11    0.81    0.15
   0   4  11    0.66    0.17
  -1  -4 -11    2.68    0.24
  -1  -4 -11    2.23    0.21
   1   4  11    2.50    0.29
  -2  -4 -11    0.39    0.11
  -2  -4 -11    0.47    0.11
   2   4  11    0.56    0.16
  -3  -4 -11    0.57    0.12
  -3  -4 -11    0.33    0.15
   3   4  11    0.37    0.13
  -4  -4 -11    1.13    0.15
  -4  -4 -11    0.96    0.23
   4   4  11    0.76    0.16
  -5  -4 -11   -0.09    0.12
  -5  -4 -11    0.15    0.07
   5   4  11    0.00    0.08
   2  -5 -11    2.23    0.18
   2  -5 -11    2.70    0.22
   2  -5 -11    2.55    0.19
  -2   5  11    2.56    0.25
   1  -5 -11    0.58    0.12
   1  -5 -11    0.55    0.10
   1  -5 -11    0.52    0.10
  -1   5  11    0.71    0.16
   0  -5 -11    1.04    0.16
   0  -5 -11    1.45    0.15
   0   5  11    1.55    0.22
  -1  -5 -11    1.02    0.13
  -1  -5 -11    1.40    0.18
   1   5  11    1.15    0.20
  -2  -5 -11    0.12    0.10
  -2  -5 -11    0.33    0.09
   2   5  11    0.22    0.13
  -3  -5 -11    0.15    0.08
  -3  -5 -11    0.14    0.10
   3   5  11    0.05    0.11
  -4  -5 -11    0.44    0.10
  -4  -5 -11    0.36    0.13
   4   5  11    0.23    0.11
  -5  -5 -11    0.04    0.09
  -5  -5 -11    0.06    0.06
   5   5  11    0.10    0.08
   1  -6 -11    0.66    0.09
   1  -6 -11    0.43    0.08
   1  -6 -11    0.50    0.10
  -1   6  11    0.50    0.11
   0  -6 -11    0.82    0.11
   0  -6 -11    0.88    0.13
   0  -6 -11    0.79    0.11
   0   6  11    0.63    0.14
  -1  -6 -11    5.75    0.34
  -1  -6 -11    6.42    0.42
   1   6  11    6.55    0.46
  -2  -6 -11    1.04    0.13
  -2  -6 -11    0.86    0.13
   2   6  11    0.79    0.15
  -3  -6 -11    0.28    0.08
  -3  -6 -11    0.31    0.09
   3   6  11    0.29    0.11
  -4  -6 -11    0.83    0.11
   4   6  11    1.14    0.14
   3   5 -12    3.04    0.20
  -1   5 -12    3.69    0.33
   4   4 -12    0.93    0.36
   3   4 -12    0.05    0.07
   2   4 -12    1.24    0.42
   1   4 -12    6.48    0.70
   1   4 -12    5.75    0.92
   0   4 -12    0.03    0.24
  -1   4 -12    0.00    0.11
  -1   4 -12    0.01    0.12
  -2   4 -12    0.02    0.11
  -2   4 -12   -0.08    0.10
   3   3 -12    2.87    0.88
   2   3 -12    2.20    0.59
   2   3 -12    0.82    0.34
   2   3 -12    0.40    0.10
   1   3 -12    1.70    0.18
   1   3 -12    2.28    0.35
   1   3 -12    2.58    0.51
   0   3 -12    2.40    0.38
   0   3 -12    3.34    0.39
  -1   3 -12    0.11    0.14
  -1   3 -12    0.13    0.15
  -2   3 -12    3.63    0.43
  -2   3 -12    3.12    0.39
  -3   3 -12    0.39    0.17
  -3   3 -12    0.84    0.19
   4   2 -12    3.30    0.23
  -4  -2  12    3.30    0.31
  -2  -2  12    3.17    0.21
   1   2 -12    2.93    0.54
   1   2 -12    2.41    0.21
   1   2 -12    2.26    0.37
   0   2 -12    6.38    0.63
   0   2 -12    5.69    0.66
  -1   2 -12    8.04    0.79
  -1   2 -12    8.42    0.78
  -1   2 -12    8.37    0.71
  -2   2 -12   12.63    1.05
  -2   2 -12   11.78    0.94
  -2   2 -12   12.01    1.08
   2  -2  12   12.23    0.73
  -3   2 -12    2.19    0.33
  -3   2 -12    2.35    0.35
   3  -2  12    2.08    0.17
  -4   2 -12    0.27    0.25
  -4   2 -12    0.14    0.11
   4   1 -12    0.44    0.38
   4   1 -12    0.27    0.09
  -4  -1  12    0.70    0.18
   2   1 -12    3.36    0.75
  -2  -1  12    1.86    0.17
   1   1 -12    1.34    0.51
   1   1 -12    0.35    0.19
   1   1 -12    0.23    0.10
   1   1 -12    0.20    0.09
   0   1 -12   29.13    2.33
   0   1 -12   28.17    2.34
   0  -1  12   29.31    1.66
  -1   1 -12   14.82    1.24
  -1   1 -12   13.82    1.13
  -1   1 -12   15.24    1.26
   1  -1  12   13.61    0.85
  -2   1 -12   21.58    1.85
  -2   1 -12   23.44    1.84
  -2   1 -12   22.33    1.62
   2  -1  12   22.43    1.30
  -3   1 -12    4.02    0.46
  -3   1 -12    4.46    0.61
  -3   1 -12    3.97    0.47
   3  -1  12    4.09    0.29
  -4   1 -12    1.10    0.33
  -4   1 -12    0.21    0.14
   4  -1  12    0.21    0.07
   4   0 -12    1.74    0.16
   4   0 -12    1.33    0.15
  -4   0  12    1.75    0.23
   3   0 -12   16.40    1.53
   3   0 -12   17.29    0.86
   3   0 -12   17.19    0.92
   3   0 -12   21.99    1.89
  -3   0  12   18.85    1.12
   2   0 -12    2.24    0.22
   2   0 -12    2.01    0.34
   2   0 -12    3.21    0.70
   2   0 -12    2.15    0.21
  -2   0  12    2.57    0.26
   1   0 -12    9.85    1.13
   1   0 -12    6.58    0.42
   1   0 -12    6.00    0.67
   1   0 -12    6.47    0.40
  -1   0  12    7.45    0.44
   0   0 -12    5.75    0.60
   0   0 -12    6.00    0.73
   0   0 -12    5.05    0.35
  -1   0 -12    0.75    0.42
  -1   0 -12    0.45    0.21
  -1   0 -12    0.26    0.18
   1   0  12    0.43    0.09
  -2   0 -12    4.69    0.56
  -2   0 -12    7.64    0.79
  -2   0 -12    5.29    0.57
   2   0  12    5.06    0.36
  -3   0 -12   14.12    1.29
  -3   0 -12   17.96    1.28
  -3   0 -12   14.59    1.29
   3   0  12   15.34    0.91
  -4   0 -12    3.08    0.36
  -4   0 -12    2.43    0.35
   4   0  12    2.82    0.23
  -5   0 -12    0.73    0.31
   4  -1 -12    0.39    0.09
   4  -1 -12    0.47    0.09
  -4   1  12    0.44    0.11
   3  -1 -12    2.38    0.52
   3  -1 -12    1.75    0.17
   3  -1 -12    1.47    0.17
  -3   1  12    1.76    0.21
   2  -1 -12    0.16    0.10
   2  -1 -12    0.09    0.10
  -2   1  12    0.04    0.24
   1  -1 -12    1.92    0.19
   1  -1 -12    2.46    0.22
   1  -1 -12    0.45    0.61
   1  -1 -12    2.47    0.34
  -1   1  12    2.10    0.23
   0  -1 -12    3.23    0.41
   0  -1 -12    2.40    0.58
   0  -1 -12    3.20    0.24
   0  -1 -12    3.57    0.26
   0   1  12    3.00    0.24
  -1  -1 -12    1.57    0.32
  -1  -1 -12    1.51    0.31
  -1  -1 -12    2.76    0.61
  -3  -1 -12   -0.01    0.17
  -3  -1 -12    0.02    0.11
   3   1  12    0.06    0.08
  -4  -1 -12    3.10    0.41
   4   1  12    3.16    0.26
  -5  -1 -12    1.34    0.23
   5   1  12    1.54    0.16
   4  -2 -12    0.29    0.06
  -4   2  12    0.11    0.08
   3  -2 -12    2.67    0.21
   3  -2 -12    2.93    0.23
  -3   2  12    2.80    0.27
   2  -2 -12    0.41    0.11
   2  -2 -12    0.41    0.10
  -2   2  12    0.48    0.13
   1  -2 -12    0.41    0.12
   1  -2 -12    0.42    0.11
  -1   2  12    0.09    0.25
  -1   2  12    0.43    0.14
   0  -2 -12    1.40    0.17
   0  -2 -12    2.22    0.31
   0  -2 -12    1.60    0.17
   0   2  12    1.85    0.24
   0   2  12    1.59    0.22
  -1  -2 -12    4.84    0.51
  -1  -2 -12    4.59    0.30
  -1  -2 -12    4.80    0.31
   1   2  12    4.93    0.37
   1   2  12    3.33    0.34
  -2  -2 -12    2.32    0.37
  -2  -2 -12    4.54    0.69
   2   2  12    2.10    0.25
  -3  -2 -12    0.09    0.18
  -3  -2 -12    0.68    0.60
   3   2  12    0.18    0.11
  -4  -2 -12    2.87    0.56
  -4  -2 -12    3.05    0.40
  -5  -2 -12    0.68    0.18
  -5  -2 -12    1.43    0.24
   3  -3 -12    6.03    0.32
   3  -3 -12    5.67    0.34
  -3   3  12    5.88    0.42
   2  -3 -12   10.61    0.57
   2  -3 -12   10.69    0.54
   2  -3 -12    9.96    0.62
  -2   3  12   10.20    0.68
   1  -3 -12    0.01    0.08
   1  -3 -12    0.08    0.09
   1  -3 -12    0.03    0.07
  -1   3  12    0.09    0.11
   0  -3 -12    4.71    0.33
   0  -3 -12    4.49    0.30
   0  -3 -12    4.20    0.31
   0   3  12    5.11    0.58
   0   3  12    5.35    0.40
  -1  -3 -12   11.25    0.58
  -1  -3 -12   10.96    0.94
  -1  -3 -12   11.23    0.64
  -1  -3 -12   10.83    0.55
   1   3  12    9.39    0.69
   1   3  12    8.73    0.73
  -2  -3 -12    8.25    0.51
  -2  -3 -12    9.24    0.79
   2   3  12    8.91    0.58
   2   3  12    6.66    0.61
  -3  -3 -12    0.65    0.21
   3   3  12    0.71    0.14
  -4  -3 -12    8.45    0.78
   4   3  12    8.66    0.57
  -5  -3 -12    1.52    0.24
   5   3  12    1.56    0.17
   2  -4 -12    9.02    0.44
   2  -4 -12    7.93    0.52
   2  -4 -12    8.64    0.47
  -2   4  12    8.82    0.58
   1  -4 -12    0.01    0.08
   1  -4 -12   -0.02    0.08
   1  -4 -12    0.00    0.08
  -1   4  12    0.02    0.11
   0  -4 -12    1.90    0.18
   0  -4 -12    2.04    0.20
   0  -4 -12    1.86    0.19
   0   4  12    2.12    0.25
  -1  -4 -12    0.75    0.12
  -1  -4 -12    1.15    0.14
  -1  -4 -12    1.12    0.14
   1   4  12    0.58    0.15
  -2  -4 -12    0.54    0.11
  -2  -4 -12    0.61    0.11
   2   4  12    0.31    0.12
  -3  -4 -12    3.87    0.42
  -3  -4 -12    4.52    0.30
   3   4  12    3.62    0.34
  -4  -4 -12    0.20    0.13
  -4  -4 -12    0.29    0.08
   4   4  12    0.31    0.11
  -5  -4 -12   -0.03    0.09
   5   4  12    0.05    0.06
   1  -5 -12    4.08    0.29
   1  -5 -12    4.31    0.27
   1  -5 -12    4.34    0.25
  -1   5  12    4.28    0.34
   0  -5 -12    1.60    0.17
   0  -5 -12    1.54    0.16
   0  -5 -12    1.34    0.14
   0   5  12    1.44    0.20
  -1  -5 -12    0.01    0.07
  -1  -5 -12    0.06    0.07
  -1  -5 -12   -0.02    0.08
   1   5  12   -0.13    0.10
  -2  -5 -12    0.24    0.09
  -2  -5 -12    0.11    0.07
  -2  -5 -12    0.13    0.08
   2   5  12    0.20    0.11
  -3  -5 -12    0.02    0.07
  -3  -5 -12    0.05    0.06
   3   5  12    0.12    0.10
  -4  -5 -12    0.18    0.06
   4   5  12    0.20    0.09
  -1  -6 -12    0.15    0.07
  -1  -6 -12    0.17    0.07
  -1  -6 -12    0.17    0.07
   1   6  12    0.31    0.10
  -2  -6 -12    1.29    0.12
  -2  -6 -12    1.09    0.11
  -2  -6 -12    1.40    0.15
   2   6  12    1.26    0.16
   2   4 -13    0.77    0.36
   1   4 -13    1.42    0.38
   0   4 -13    0.04    0.37
  -1   4 -13   -0.10    0.18
  -1   4 -13    0.10    0.24
   3   3 -13    7.41    0.86
   2   3 -13    2.45    0.64
   2   3 -13    2.49    0.46
   1   3 -13    2.42    0.54
   1   3 -13    0.94    0.29
   0   3 -13   -0.21    0.15
   0   3 -13    0.37    0.33
  -1   3 -13    1.27    0.27
  -1   3 -13    0.98    0.24
  -2   3 -13    0.95    0.19
  -2   3 -13    0.73    0.24
   4   2 -13    0.98    0.32
   2   2 -13    3.19    0.51
   2   2 -13    2.82    0.23
  -2  -2  13    2.83    0.22
   1   2 -13    7.21    0.41
   1   2 -13    6.94    0.68
   0   2 -13    0.81    0.34
   0   2 -13    0.52    0.20
  -1   2 -13    0.08    0.15
  -1   2 -13   -0.17    0.28
   1  -2  13   -0.02    0.04
  -2   2 -13    5.87    0.56
  -2   2 -13    7.20    0.67
  -2   2 -13    6.03    0.60
   2  -2  13    5.53    0.37
  -3   2 -13    0.67    0.28
  -3   2 -13    0.24    0.12
   4   1 -13   -0.09    0.40
   4   1 -13    1.07    0.28
   4   1 -13    0.42    0.08
   3   1 -13    2.00    0.18
   3   1 -13    1.78    0.18
  -3  -1  13    2.26    0.25
   2   1 -13    0.07    0.08
   2   1 -13    0.12    0.09
   2   1 -13   -0.12    0.21
  -2  -1  13   -0.03    0.10
   1   1 -13   11.08    0.60
   1   1 -13   10.44    0.97
   1   1 -13   10.48    0.56
  -1  -1  13   11.62    0.65
   0   1 -13    4.40    0.68
   0   1 -13    2.53    0.39
  -1   1 -13    4.70    0.50
  -1   1 -13    3.51    0.50
  -1   1 -13    4.47    0.56
   1  -1  13    4.38    0.30
  -2   1 -13    1.38    0.26
  -2   1 -13    0.97    0.23
   2  -1  13    1.13    0.13
  -3   1 -13    3.67    0.40
  -3   1 -13    3.76    0.42
   3  -1  13    3.70    0.26
  -4   1 -13    7.10    0.65
  -4   1 -13    8.41    0.75
   4   0 -13    0.34    0.33
   4   0 -13    1.56    0.13
   1   0 -13    0.35    0.11
   1   0 -13    0.37    0.11
   1   0 -13    0.14    0.16
  -1   0  13    0.45    0.10
   0   0 -13    1.08    0.45
   0   0 -13    0.83    0.13
   0   0 -13    0.46    0.20
  -1   0 -13   10.47    0.99
  -1   0 -13   10.33    0.94
  -2   0 -13    3.61    0.44
  -2   0 -13    4.10    0.46
   2   0  13    3.63    0.28
  -3   0 -13    0.06    0.12
  -3   0 -13    0.07    0.15
   3   0  13   -0.05    0.05
  -4   0 -13    9.06    0.77
  -4   0 -13    8.84    0.77
   3  -1 -13   -1.04    0.42
   3  -1 -13    0.57    0.10
   2  -1 -13   25.96    1.28
   2  -1 -13   24.73    2.36
   2  -1 -13   26.10    1.19
  -2   1  13   24.87    1.53
   1  -1 -13    0.81    0.13
   1  -1 -13    0.90    0.14
   1  -1 -13    1.25    0.58
   1  -1 -13    0.75    0.20
  -1   1  13    0.53    0.20
   0  -1 -13    1.27    0.15
   0  -1 -13    0.97    0.53
   0  -1 -13    0.96    0.14
   0  -1 -13    0.74    0.20
   0   1  13    0.70    0.14
  -2  -1 -13    0.04    0.15
  -2  -1 -13    0.08    0.18
   2  -2 -13   16.88    1.30
   2  -2 -13   14.41    0.72
   2  -2 -13   14.15    0.77
  -2   2  13   14.03    0.90
   1  -2 -13   14.56    0.78
   1  -2 -13   15.88    0.73
  -1   2  13   13.87    0.91
  -1   2  13   14.38    0.98
   0  -2 -13    2.38    0.21
   0  -2 -13    2.63    0.21
   0  -2 -13    2.17    0.30
   0   2  13    2.05    0.24
   0   2  13    1.96    0.29
  -1  -2 -13    0.60    0.19
   1   2  13    0.59    0.15
  -2  -2 -13    0.40    0.17
  -2  -2 -13    3.25    0.67
  -3  -2 -13    0.70    0.21
   3   2  13    0.61    0.13
  -4  -2 -13    1.50    0.25
  -4  -2 -13    2.58    0.46
   4   2  13    1.41    0.17
   2  -3 -13    0.61    0.10
   2  -3 -13    0.67    0.11
  -2   3  13    0.63    0.12
   1  -3 -13   15.38    0.80
   1  -3 -13   16.18    0.75
  -1   3  13   14.69    0.95
   0  -3 -13    8.11    0.44
   0  -3 -13    8.55    0.47
   0   3  13    7.91    0.56
  -1  -3 -13    0.39    0.10
  -1  -3 -13    0.38    0.10
   1   3  13    0.40    0.12
  -2  -3 -13    1.70    0.27
   2   3  13    1.59    0.20
  -3  -3 -13    0.78    0.19
   3   3  13    0.93    0.14
  -4  -3 -13    0.07    0.11
   4   3  13    0.01    0.07
   1  -4 -13    0.84    0.11
   1  -4 -13    0.79    0.11
  -1   4  13    0.94    0.15
   0  -4 -13    1.03    0.13
   0  -4 -13    1.12    0.13
   0   4  13    1.53    0.19
  -1  -4 -13    5.06    0.30
  -1  -4 -13    4.75    0.31
   1   4  13    5.59    0.40
  -2  -4 -13    4.19    0.26
   2   4  13    4.85    0.36
  -3  -4 -13    0.74    0.16
   3   4  13    1.09    0.14
   4   4  13    0.42    0.09
   0  -5 -13   -0.02    0.05
   0  -5 -13   -0.03    0.06
   0   5  13    0.02    0.08
  -1  -5 -13    0.11    0.06
  -1  -5 -13    0.23    0.06
  -1  -5 -13    0.18    0.07
   1   5  13    0.27    0.10
  -2  -5 -13    3.00    0.21
  -2  -5 -13    2.88    0.19
   2   5  13    3.12    0.25
   2   3 -14    1.46    0.69
   2   3 -14    0.80    0.34
   1   3 -14    3.12    0.54
   1   3 -14    3.09    0.47
   0   3 -14    0.77    0.39
   0   3 -14   -0.09    0.19
  -1   3 -14    2.28    0.38
   1   2 -14    0.61    0.23
   0   2 -14    2.04    0.31
  -1   2 -14    0.07    0.12
  -1   2 -14    0.14    0.26
  -2   2 -14    0.54    0.18
  -2   2 -14    0.74    0.33
   1   1 -14   -0.23    0.14
   1   1 -14    0.01    0.07
  -1   1 -14    8.20    0.82
  -1   1 -14    8.99    0.95
   1  -1  14   10.36    0.55
  -2   1 -14   -0.10    0.17
  -2   1 -14    0.13    0.12
   3   0 -14   -0.29    0.37
   3   0 -14   -0.04    0.05
   3   0 -14    0.00    0.05
   2   0 -14    7.88    0.44
   2   0 -14    8.28    0.77
   2   0 -14    7.23    0.40
  -2   0  14    8.37    0.57
   0   0 -14   15.55    1.20
   0   0  14   12.96    0.84
  -1   0 -14   16.14    1.24
  -1   0 -14   16.73    1.37
   1   0  14   12.27    0.85
  -2   0 -14    0.11    0.24
  -2   0 -14    0.30    0.16
   2   0  14    0.12    0.06
  -3   0 -14    7.19    0.66
  -3   0 -14    7.26    0.64
   2  -1 -14   13.06    0.69
   2  -1 -14   13.61    0.65
   0  -1 -14    4.74    0.30
   0  -1 -14    4.61    0.47
   0  -1 -14    7.69    1.01
   0  -1 -14    4.75    0.29
   0   1  14    3.60    0.40
  -1  -1 -14    0.46    0.46
  -1  -1 -14    1.26    0.22
   1   1  14    0.55    0.14
   2  -2 -14    5.42    0.32
   2  -2 -14    5.49    0.30
   1  -2 -14    2.54    0.19
   1  -2 -14    2.35    0.20
   0  -2 -14    0.20    0.13
   0  -2 -14    0.15    0.08
   0  -2 -14    0.05    0.08
   0   2  14    0.74    0.25
  -1  -2 -14    0.67    0.17
   1   2  14    0.49    0.21
  -2  -2 -14    0.09    0.12
  -3  -2 -14    1.56    0.25
   1  -3 -14    0.06    0.06
   1  -3 -14    0.09    0.07
  -1   3  14    0.06    0.07
   0  -3 -14    0.00    0.06
   0  -3 -14    0.09    0.07
   0   3  14    0.10    0.08
  -1  -3 -14    0.53    0.09
   1   3  14    0.35    0.10
  -2  -3 -14    0.00    0.08
   2   3  14    0.01    0.07
  -3  -3 -14    0.10    0.10
   3   3  14    0.07    0.06
   0  -4 -14    0.33    0.08
   0  -4 -14    0.24    0.07
   0   4  14    0.20    0.08
  -1  -4 -14    0.07    0.06
   1   4  14   -0.01    0.06
   2   4  14    2.49    0.21
  -1   1 -15    1.01    0.19
  -1   1 -15    1.84    0.39
  -1   0 -15    5.72    0.81
  -1   0 -15    4.65    0.45
   1  -1 -15    5.25    0.30
   0  -1 -15    6.47    1.00
   0  -1 -15    6.04    0.55
  -1  -1 -15   13.57    1.11
   0   0   0    0.00    0.00
;
_shelx_hkl_checksum              60811
loop_
_space_group_symop_operation_xyz
'x, y, z'
'-x, -y, -z'
loop_
_atom_site_label
_atom_site_type_symbol
_atom_site_fract_x
_atom_site_fract_y
_atom_site_fract_z
_atom_site_U_iso_or_equiv
_atom_site_adp_type
_atom_site_occupancy
_atom_site_site_symmetry_order
_atom_site_calc_flag
_atom_site_refinement_flags_posn
_atom_site_refinement_flags_adp
C1 C -0.0985(3) 0.0560(3) 0.50454(17) 0.0225(5) Uani 1 1 d . .
C2 C -0.1546(3) 0.2022(3) 0.43402(18) 0.0264(5) Uani 1 1 d . .
H2A H -0.2802 0.2761 0.4412 0.032 Uiso 1 1 calc R U
C3 C -0.0344(3) 0.2373(3) 0.35834(18) 0.0262(5) Uani 1 1 d . .
H3A H -0.0766 0.3331 0.3120 0.031 Uiso 1 1 calc R U
C4 C 0.1569(3) 0.1298(3) 0.34814(17) 0.0226(5) Uani 1 1 d . .
C5 C 0.2218(3) -0.0152(3) 0.41951(17) 0.0217(5) Uani 1 1 d . .
C6 C 0.4254(3) -0.0945(3) 0.38919(17) 0.0224(5) Uani 1 1 d . .
C7 C 0.4708(3) 0.0016(3) 0.30164(17) 0.0235(5) Uani 1 1 d . .
C8 C 0.3015(3) 0.1403(3) 0.27646(17) 0.0236(5) Uani 1 1 d . .
C9 C 0.6534(3) -0.0383(3) 0.25474(19) 0.0302(6) Uani 1 1 d . .
H9A H 0.6822 0.0274 0.1963 0.036 Uiso 1 1 calc R U
C10 C 0.7937(3) -0.1764(3) 0.2948(2) 0.0328(6) Uani 1 1 d . .
H10A H 0.9188 -0.2061 0.2631 0.039 Uiso 1 1 calc R U
C11 C 0.7514(3) -0.2707(3) 0.38091(19) 0.0305(6) Uani 1 1 d . .
H11A H 0.8484 -0.3642 0.4077 0.037 Uiso 1 1 calc R U
C12 C 0.5685(3) -0.2302(3) 0.42873(18) 0.0263(5) Uani 1 1 d . .
H12A H 0.5418 -0.2951 0.4880 0.032 Uiso 1 1 calc R U
C13 C 0.2875(3) 0.2622(3) 0.18609(18) 0.0237(5) Uani 1 1 d . .
C14 C 0.2730(3) 0.2039(3) 0.08564(18) 0.0278(5) Uani 1 1 d . .
C15 C 0.2581(3) 0.3180(3) 0.00103(19) 0.0323(6) Uani 1 1 d . .
H15A H 0.2507 0.2774 -0.0667 0.039 Uiso 1 1 calc R U
C16 C 0.2538(3) 0.4895(3) 0.0123(2) 0.0324(6) Uani 1 1 d . .
C17 C 0.2652(3) 0.5455(3) 0.1119(2) 0.0319(6) Uani 1 1 d . .
H17A H 0.2603 0.6629 0.1210 0.038 Uiso 1 1 calc R U
C18 C 0.2836(3) 0.4354(3) 0.19895(19) 0.0266(5) Uani 1 1 d . .
C19 C 0.2636(4) 0.0219(3) 0.0701(2) 0.0381(6) Uani 1 1 d . .
H19A H 0.2763 -0.0408 0.1373 0.057 Uiso 1 1 calc R U
H19B H 0.1394 0.0219 0.0401 0.057 Uiso 1 1 calc R U
H19C H 0.3689 -0.0336 0.0229 0.057 Uiso 1 1 calc R U
C20 C 0.2364(4) 0.6108(4) -0.0813(2) 0.0458(8) Uani 1 1 d . .
H20A H 0.2302 0.5483 -0.1444 0.069 Uiso 1 1 calc R U
H20B H 0.1187 0.7033 -0.0740 0.069 Uiso 1 1 calc R U
H20C H 0.3490 0.6595 -0.0862 0.069 Uiso 1 1 calc R U
C21 C 0.3071(4) 0.5014(3) 0.3046(2) 0.0372(6) Uani 1 1 d . .
H21A H 0.3180 0.4084 0.3571 0.056 Uiso 1 1 calc R U
H21B H 0.4240 0.5439 0.3040 0.056 Uiso 1 1 calc R U
H21C H 0.1945 0.5949 0.3213 0.056 Uiso 1 1 calc R U
loop_
_atom_site_aniso_label
_atom_site_aniso_U_11
_atom_site_aniso_U_22
_atom_site_aniso_U_33
_atom_site_aniso_U_23
_atom_site_aniso_U_13
_atom_site_aniso_U_12
C1 0.0247(12) 0.0205(10) 0.0212(12) 0.0004(8) -0.0007(9) -0.0040(9)
C2 0.0227(11) 0.0253(11) 0.0276(13) 0.0039(9) 0.0012(9) -0.0002(9)
C3 0.0295(12) 0.0225(11) 0.0240(12) 0.0069(9) 0.0001(9) -0.0030(9)
C4 0.0250(11) 0.0211(10) 0.0209(11) 0.0011(9) -0.0013(9) -0.0043(9)
C5 0.0244(11) 0.0197(10) 0.0205(11) -0.0002(8) -0.0011(9) -0.0046(8)
C6 0.0248(11) 0.0212(10) 0.0212(12) -0.0023(9) -0.0008(9) -0.0058(9)
C7 0.0245(11) 0.0236(11) 0.0216(12) -0.0011(9) -0.0001(9) -0.0046(9)
C8 0.0261(11) 0.0218(11) 0.0223(12) 0.0006(9) -0.0014(9) -0.0048(9)
C9 0.0298(13) 0.0341(13) 0.0252(13) 0.0008(10) 0.0037(10) -0.0059(10)
C10 0.0236(12) 0.0371(13) 0.0338(14) -0.0040(11) 0.0036(10) -0.0004(10)
C11 0.0265(12) 0.0288(12) 0.0320(14) -0.0013(10) -0.0031(10) 0.0010(9)
C12 0.0282(12) 0.0249(11) 0.0241(12) 0.0012(9) -0.0021(9) -0.0039(9)
C13 0.0185(10) 0.0266(11) 0.0244(12) 0.0039(9) 0.0027(9) -0.0035(8)
C14 0.0239(11) 0.0323(12) 0.0253(13) 0.0020(10) 0.0024(9) -0.0044(9)
C15 0.0261(12) 0.0463(15) 0.0215(13) 0.0041(11) 0.0015(9) -0.0046(11)
C16 0.0197(11) 0.0407(14) 0.0336(14) 0.0157(11) -0.0004(10) -0.0043(10)
C17 0.0255(12) 0.0277(12) 0.0421(15) 0.0105(11) -0.0018(10) -0.0073(10)
C18 0.0217(11) 0.0260(11) 0.0311(13) 0.0044(10) -0.0013(9) -0.0050(9)
C19 0.0471(16) 0.0368(14) 0.0306(14) -0.0043(11) -0.0022(11) -0.0104(12)
C20 0.0320(14) 0.0582(18) 0.0421(17) 0.0268(14) -0.0016(12) -0.0058(13)
C21 0.0441(15) 0.0272(12) 0.0402(16) 0.0006(11) -0.0082(12) -0.0081(11)
loop_
_atom_type_symbol
_atom_type_description
_atom_type_scat_dispersion_real
_atom_type_scat_dispersion_imag
_atom_type_scat_source
C C 0.0181 0.0091 'International Tables Vol C Tables 4.2.6.8 and 6.1.1.4'
H H 0.0000 0.0000 'International Tables Vol C Tables 4.2.6.8 and 6.1.1.4'
loop_
_geom_angle_atom_site_label_1
_geom_angle_atom_site_label_2
_geom_angle_atom_site_label_3
_geom_angle
_geom_angle_site_symmetry_1
_geom_angle_site_symmetry_3
C5 C1 C2 122.8(2) 2_556 .
C5 C1 C1 118.2(2) 2_556 2_556
C2 C1 C1 119.0(2) . 2_556
C3 C2 C1 122.1(2) . .
C3 C2 H2A 119.0 . .
C1 C2 H2A 119.0 . .
C2 C3 C4 119.7(2) . .
C2 C3 H3A 120.2 . .
C4 C3 H3A 120.2 . .
C8 C4 C3 129.4(2) . .
C8 C4 C5 110.45(19) . .
C3 C4 C5 120.1(2) . .
C1 C5 C4 120.9(2) 2_556 .
C1 C5 C6 133.0(2) 2_556 .
C4 C5 C6 106.11(18) . .
C12 C6 C7 118.8(2) . .
C12 C6 C5 134.4(2) . .
C7 C6 C5 106.78(18) . .
C9 C7 C6 121.4(2) . .
C9 C7 C8 129.6(2) . .
C6 C7 C8 109.03(19) . .
C4 C8 C7 107.61(19) . .
C4 C8 C13 127.0(2) . .
C7 C8 C13 125.4(2) . .
C7 C9 C10 118.9(2) . .
C7 C9 H9A 120.6 . .
C10 C9 H9A 120.6 . .
C11 C10 C9 120.3(2) . .
C11 C10 H10A 119.8 . .
C9 C10 H10A 119.8 . .
C10 C11 C12 121.0(2) . .
C10 C11 H11A 119.5 . .
C12 C11 H11A 119.5 . .
C6 C12 C11 119.7(2) . .
C6 C12 H12A 120.1 . .
C11 C12 H12A 120.1 . .
C18 C13 C14 119.4(2) . .
C18 C13 C8 121.4(2) . .
C14 C13 C8 119.2(2) . .
C15 C14 C13 119.3(2) . .
C15 C14 C19 120.0(2) . .
C13 C14 C19 120.6(2) . .
C14 C15 C16 122.1(2) . .
C14 C15 H15A 119.0 . .
C16 C15 H15A 119.0 . .
C17 C16 C15 117.9(2) . .
C17 C16 C20 121.3(2) . .
C15 C16 C20 120.8(2) . .
C16 C17 C18 122.1(2) . .
C16 C17 H17A 118.9 . .
C18 C17 H17A 118.9 . .
C17 C18 C13 119.2(2) . .
C17 C18 C21 119.7(2) . .
C13 C18 C21 121.1(2) . .
C14 C19 H19A 109.5 . .
C14 C19 H19B 109.5 . .
H19A C19 H19B 109.5 . .
C14 C19 H19C 109.5 . .
H19A C19 H19C 109.5 . .
H19B C19 H19C 109.5 . .
C16 C20 H20A 109.5 . .
C16 C20 H20B 109.5 . .
H20A C20 H20B 109.5 . .
C16 C20 H20C 109.5 . .
H20A C20 H20C 109.5 . .
H20B C20 H20C 109.5 . .
C18 C21 H21A 109.5 . .
C18 C21 H21B 109.5 . .
H21A C21 H21B 109.5 . .
C18 C21 H21C 109.5 . .
H21A C21 H21C 109.5 . .
H21B C21 H21C 109.5 . .
loop_
_geom_bond_atom_site_label_1
_geom_bond_atom_site_label_2
_geom_bond_distance
_geom_bond_site_symmetry_2
C1 C5 1.381(3) 2_556
C1 C2 1.442(3) .
C1 C1 1.474(4) 2_556
C2 C3 1.347(3) .
C2 H2A 0.9500 .
C3 C4 1.431(3) .
C3 H3A 0.9500 .
C4 C8 1.380(3) .
C4 C5 1.449(3) .
C5 C1 1.381(3) 2_556
C5 C6 1.484(3) .
C6 C12 1.390(3) .
C6 C7 1.418(3) .
C7 C9 1.389(3) .
C7 C8 1.464(3) .
C8 C13 1.483(3) .
C9 C10 1.394(3) .
C9 H9A 0.9500 .
C10 C11 1.388(4) .
C10 H10A 0.9500 .
C11 C12 1.396(3) .
C11 H11A 0.9500 .
C12 H12A 0.9500 .
C13 C18 1.405(3) .
C13 C14 1.407(3) .
C14 C15 1.387(3) .
C14 C19 1.506(3) .
C15 C16 1.388(4) .
C15 H15A 0.9500 .
C16 C17 1.387(4) .
C16 C20 1.510(3) .
C17 C18 1.391(3) .
C17 H17A 0.9500 .
C18 C21 1.507(3) .
C19 H19A 0.9800 .
C19 H19B 0.9800 .
C19 H19C 0.9800 .
C20 H20A 0.9800 .
C20 H20B 0.9800 .
C20 H20C 0.9800 .
C21 H21A 0.9800 .
C21 H21B 0.9800 .
C21 H21C 0.9800 .
loop_
_geom_torsion_atom_site_label_1
_geom_torsion_atom_site_label_2
_geom_torsion_atom_site_label_3
_geom_torsion_atom_site_label_4
_geom_torsion
_geom_torsion_site_symmetry_1
_geom_torsion_site_symmetry_4
C5 C1 C2 C3 -178.0(2) 2_556 .
C1 C1 C2 C3 1.8(4) 2_556 .
C1 C2 C3 C4 -1.5(4) . .
C2 C3 C4 C8 179.1(2) . .
C2 C3 C4 C5 -0.6(3) . .
C8 C4 C5 C1 -177.1(2) . 2_556
C3 C4 C5 C1 2.6(3) . 2_556
C8 C4 C5 C6 1.9(2) . .
C3 C4 C5 C6 -178.40(19) . .
C1 C5 C6 C12 -4.5(4) 2_556 .
C4 C5 C6 C12 176.7(2) . .
C1 C5 C6 C7 177.4(2) 2_556 .
C4 C5 C6 C7 -1.4(2) . .
C12 C6 C7 C9 0.6(3) . .
C5 C6 C7 C9 179.0(2) . .
C12 C6 C7 C8 -178.00(19) . .
C5 C6 C7 C8 0.4(2) . .
C3 C4 C8 C7 178.7(2) . .
C5 C4 C8 C7 -1.6(2) . .
C3 C4 C8 C13 -4.7(4) . .
C5 C4 C8 C13 175.1(2) . .
C9 C7 C8 C4 -177.7(2) . .
C6 C7 C8 C4 0.7(2) . .
C9 C7 C8 C13 5.6(4) . .
C6 C7 C8 C13 -176.0(2) . .
C6 C7 C9 C10 0.3(3) . .
C8 C7 C9 C10 178.6(2) . .
C7 C9 C10 C11 -0.8(4) . .
C9 C10 C11 C12 0.3(4) . .
C7 C6 C12 C11 -1.0(3) . .
C5 C6 C12 C11 -178.9(2) . .
C10 C11 C12 C6 0.6(3) . .
C4 C8 C13 C18 74.6(3) . .
C7 C8 C13 C18 -109.3(3) . .
C4 C8 C13 C14 -103.8(3) . .
C7 C8 C13 C14 72.3(3) . .
C18 C13 C14 C15 1.0(3) . .
C8 C13 C14 C15 179.4(2) . .
C18 C13 C14 C19 -176.0(2) . .
C8 C13 C14 C19 2.5(3) . .
C13 C14 C15 C16 -1.1(4) . .
C19 C14 C15 C16 175.9(2) . .
C14 C15 C16 C17 0.1(4) . .
C14 C15 C16 C20 -179.6(2) . .
C15 C16 C17 C18 1.0(4) . .
C20 C16 C17 C18 -179.2(2) . .
C16 C17 C18 C13 -1.1(4) . .
C16 C17 C18 C21 176.4(2) . .
C14 C13 C18 C17 0.1(3) . .
C8 C13 C18 C17 -178.3(2) . .
C14 C13 C18 C21 -177.4(2) . .
C8 C13 C18 C21 4.2(3) . .
