#------------------------------------------------------------------------------
#$Date: 2017-11-09 03:52:33 +0200 (Thu, 09 Nov 2017) $
#$Revision: 202974 $
#$URL: file:///home/coder/svn-repositories/cod/cif/1/54/79/1547928.cif $
#------------------------------------------------------------------------------
#
# This file is available in the Crystallography Open Database (COD),
# http://www.crystallography.net/
#
# All data on this site have been placed in the public domain by the
# contributors.
#
data_1547928
loop_
_publ_author_name
'Lim, Ngiap-Kie'
'Weiss, Patrick'
'Li, Beryl X.'
'McCulley, Christina H.'
'Hare, Stephanie R.'
'Bensema, Bronwyn L.'
'Palazzo, Teresa A.'
'Tantillo, Dean J.'
'Zhang, Haiming'
'Gosselin, Francis'
_publ_section_title
;
 Synthesis of Highly Stereodefined Tetrasubstituted Acyclic All-Carbon
 Olefins via a Syn-Elimination Approach
;
_journal_name_full               'Organic Letters'
_journal_paper_doi               10.1021/acs.orglett.7b03141
_journal_year                    2017
_chemical_formula_sum            'C23 H22'
_chemical_formula_weight         298.40
_chemical_name_common            68869-150
_chemical_name_systematic        gene833
_space_group.centring_type       primitive
_space_group_crystal_system      monoclinic
_space_group_IT_number           14
_space_group_name_Hall           '-P 2ybc'
_space_group_name_H-M_alt        'P 1 21/c 1'
_symmetry_space_group_name_Hall  '-P 2ybc'
_symmetry_space_group_name_H-M   'P 1 21/c 1'
_atom_sites_solution_hydrogens   geom
_atom_sites_solution_primary     iterative
_atom_sites_solution_secondary   difmap
_audit_creation_method           SHELXL-2016/6
_cell_angle_alpha                90
_cell_angle_beta                 91.033(4)
_cell_angle_gamma                90
_cell_formula_units_Z            4
_cell_length_a                   5.7206(3)
_cell_length_b                   16.0457(10)
_cell_length_c                   18.9021(12)
_cell_measurement_reflns_used    5865
_cell_measurement_temperature    100(2)
_cell_measurement_theta_max      25.32
_cell_measurement_theta_min      2.50
_cell_volume                     1734.76(18)
_computing_cell_refinement       'Bruker SAINT'
_computing_data_collection       'Bruker APEX2'
_computing_data_reduction        'Bruker SAINT'
_computing_molecular_graphics    ORTEP-32
_computing_publication_material  WinGX
_computing_structure_refinement  SHELXL-2016
_computing_structure_solution    SHELXT-2014
_diffrn_ambient_temperature      100(2)
_diffrn_detector_area_resol_mean 8.366
_diffrn_measured_fraction_theta_full 0.999
_diffrn_measured_fraction_theta_max 0.997
_diffrn_measurement_device_type  'Bruker APEX-II CCD'
_diffrn_measurement_method       '\f and \w scans'
_diffrn_radiation_type           MoK\a
_diffrn_radiation_wavelength     0.71073
_diffrn_reflns_av_R_equivalents  0.0643
_diffrn_reflns_av_unetI/netI     0.0561
_diffrn_reflns_Laue_measured_fraction_full 0.999
_diffrn_reflns_Laue_measured_fraction_max 0.997
_diffrn_refln_scan_rate          5
_diffrn_refln_scan_width         2.0
_diffrn_reflns_limit_h_max       6
_diffrn_reflns_limit_h_min       -6
_diffrn_reflns_limit_k_max       19
_diffrn_reflns_limit_k_min       -19
_diffrn_reflns_limit_l_max       22
_diffrn_reflns_limit_l_min       -22
_diffrn_reflns_number            20609
_diffrn_reflns_point_group_measured_fraction_full 0.999
_diffrn_reflns_point_group_measured_fraction_max 0.997
_diffrn_reflns_theta_full        25.000
_diffrn_reflns_theta_max         25.414
_diffrn_reflns_theta_min         1.665
_diffrn_source                   'microfocus sealed tube'
_exptl_absorpt_coefficient_mu    0.064
_exptl_absorpt_correction_T_max  0.928
_exptl_absorpt_correction_T_min  0.883
_exptl_absorpt_correction_type   multi-scan
_exptl_absorpt_process_details   SADABS
_exptl_crystal_colour            colorless
_exptl_crystal_density_diffrn    1.143
_exptl_crystal_description       plate
_exptl_crystal_F_000             640
_exptl_crystal_size_max          0.080
_exptl_crystal_size_mid          0.070
_exptl_crystal_size_min          0.030
_refine_diff_density_max         0.197
_refine_diff_density_min         -0.214
_refine_diff_density_rms         0.047
_refine_ls_extinction_method     none
_refine_ls_goodness_of_fit_ref   1.105
_refine_ls_hydrogen_treatment    constr
_refine_ls_matrix_type           full
_refine_ls_number_parameters     210
_refine_ls_number_reflns         3182
_refine_ls_number_restraints     0
_refine_ls_restrained_S_all      1.105
_refine_ls_R_factor_all          0.0856
_refine_ls_R_factor_gt           0.0595
_refine_ls_shift/su_max          0.000
_refine_ls_shift/su_mean         0.000
_refine_ls_structure_factor_coef Fsqd
_refine_ls_weighting_details
'w=1/[\s^2^(Fo^2^)+(0.0398P)^2^+1.5821P] where P=(Fo^2^+2Fc^2^)/3'
_refine_ls_weighting_scheme      calc
_refine_ls_wR_factor_gt          0.1332
_refine_ls_wR_factor_ref         0.1427
_reflns_Friedel_coverage         0.000
_reflns_number_gt                2351
_reflns_number_total             3182
_reflns_threshold_expression     'I > 2\s(I)'
_cod_data_source_file            ol7b03141_si_032.cif
_cod_data_source_block           68869-150
_cod_database_code               1547928
_shelx_shelxl_version_number     2016/6
_shelx_space_group_comment
; 
The symmetry employed for this shelxl refinement is uniquely defined 
by the following loop, which should always be used as a source of 
symmetry information in preference to the above space-group names. 
They are only intended as comments. 
;
_shelx_estimated_absorpt_t_min   0.995
_shelx_estimated_absorpt_t_max   0.998
_shelx_res_file
; 
TITL gene833_0m_a.res in P2(1)/c 
    shelx.res 
    created by SHELXL-2016/6 at 10:51:20 on 15-Nov-2016 
CELL  0.71073   5.7206  16.0457  18.9021   90.000   91.033   90.000 
ZERR     4.00   0.0003   0.0010   0.0012    0.000    0.004    0.000 
LATT   1 
SYMM  - X, 1/2 + Y, 1/2 - Z 
SFAC  C    H 
UNIT  92 88 
MERG   2 
FMAP   2 
PLAN   20 
SIZE     0.030   0.070   0.080 
ACTA    50.00 
BOND   $H 
LIST   4 
WPDB  -2 
L.S.  10 
TEMP  -173.00 
WGHT    0.039800    1.582100 
FVAR       0.19175 
C1    1    0.227401    0.705739    0.342872    11.00000    0.01765    0.02036 = 
         0.02282   -0.00220   -0.00091   -0.00185 
C2    1    0.219900    0.640988    0.388332    11.00000    0.02085    0.02114 = 
         0.02420    0.00014   -0.00200   -0.00196 
C3    1    0.180172    0.650316    0.466753    11.00000    0.03460    0.01994 = 
         0.02224   -0.00071   -0.00036   -0.00117 
AFIX  23 
H3A   2    0.192787    0.710052    0.479358    11.00000   -1.20000 
H3B   2    0.305790    0.620256    0.492877    11.00000   -1.20000 
AFIX   0 
C4    1   -0.054348    0.617898    0.490960    11.00000    0.04439    0.02687 = 
         0.03078    0.00301    0.00769   -0.00233 
AFIX 137 
H4A   2   -0.179901    0.652213    0.470372    11.00000   -1.50000 
H4B   2   -0.060369    0.620529    0.542693    11.00000   -1.50000 
H4C   2   -0.074254    0.560012    0.475450    11.00000   -1.50000 
AFIX   0 
C5    1    0.255227    0.553430    0.363477    11.00000    0.02247    0.01913 = 
         0.01910    0.00308    0.00202   -0.00234 
C6    1    0.102082    0.516272    0.315036    11.00000    0.02681    0.02437 = 
         0.02381    0.00042   -0.00273    0.00093 
AFIX  43 
H6    2   -0.028619    0.546981    0.297522    11.00000   -1.20000 
AFIX   0 
C7    1    0.136121    0.435460    0.291802    11.00000    0.03323    0.02533 = 
         0.02501   -0.00134   -0.00391   -0.00269 
AFIX  43 
H7    2    0.027777    0.410985    0.259281    11.00000   -1.20000 
AFIX   0 
C8    1    0.327629    0.390211    0.315829    11.00000    0.03511    0.01853 = 
         0.02426   -0.00053    0.00623    0.00004 
AFIX  43 
H8    2    0.353302    0.335148    0.299213    11.00000   -1.20000 
AFIX   0 
C9    1    0.481833    0.426197    0.364497    11.00000    0.02775    0.02331 = 
         0.02828    0.00442   -0.00023    0.00278 
AFIX  43 
H9    2    0.614135    0.395764    0.381215    11.00000   -1.20000 
AFIX   0 
C10   1    0.443155    0.506055    0.388588    11.00000    0.02842    0.02475 = 
         0.02348   -0.00080   -0.00486   -0.00235 
AFIX  43 
H10   2    0.546977    0.529273    0.423074    11.00000   -1.20000 
AFIX   0 
C11   1    0.178167    0.793788    0.363638    11.00000    0.02465    0.02144 = 
         0.01569    0.00192   -0.00292    0.00039 
C12   1   -0.029372    0.817542    0.395157    11.00000    0.02600    0.02417 = 
         0.02301    0.00304    0.00263   -0.00247 
AFIX  43 
H12   2   -0.144424    0.776690    0.405080    11.00000   -1.20000 
AFIX   0 
C13   1   -0.070105    0.900612    0.412302    11.00000    0.02892    0.02862 = 
         0.02540   -0.00206    0.00605    0.00511 
AFIX  43 
H13   2   -0.212673    0.915949    0.433782    11.00000   -1.20000 
AFIX   0 
C14   1    0.094647    0.960727    0.398368    11.00000    0.03623    0.01887 = 
         0.03037   -0.00198    0.00119    0.00154 
AFIX  43 
H14   2    0.066966    1.017244    0.410628    11.00000   -1.20000 
AFIX   0 
C15   1    0.301038    0.938080    0.366328    11.00000    0.03015    0.01983 = 
         0.03060    0.00103    0.00138   -0.00474 
AFIX  43 
H15   2    0.415664    0.979122    0.356511    11.00000   -1.20000 
AFIX   0 
C16   1    0.340095    0.855740    0.348654    11.00000    0.02314    0.02343 = 
         0.02326    0.00068    0.00240    0.00096 
AFIX  43 
H16   2    0.480734    0.841101    0.325747    11.00000   -1.20000 
AFIX   0 
C17   1    0.298887    0.694899    0.267782    11.00000    0.02346    0.01495 = 
         0.02320    0.00131    0.00132   -0.00220 
C18   1    0.155322    0.721280    0.212194    11.00000    0.02418    0.02221 = 
         0.02609    0.00082    0.00285    0.00218 
AFIX  43 
H18   2    0.011382    0.747929    0.222231    11.00000   -1.20000 
AFIX   0 
C19   1    0.217608    0.709549    0.142179    11.00000    0.03496    0.02800 = 
         0.02369    0.00213   -0.00114    0.00580 
AFIX  43 
H19   2    0.114228    0.726992    0.105171    11.00000   -1.20000 
AFIX   0 
C20   1    0.429767    0.672530    0.125672    11.00000    0.03654    0.02121 = 
         0.02642   -0.00053    0.00783    0.00034 
C21   1    0.577896    0.649023    0.181898    11.00000    0.02500    0.01733 = 
         0.02886   -0.00036    0.00427    0.00194 
AFIX  43 
H21   2    0.726190    0.625450    0.172128    11.00000   -1.20000 
AFIX   0 
C22   1    0.512964    0.659384    0.251011    11.00000    0.02233    0.01775 = 
         0.02693    0.00215   -0.00148    0.00098 
AFIX  43 
H22   2    0.616192    0.641968    0.288066    11.00000   -1.20000 
AFIX   0 
C23   1    0.499809    0.659358    0.049827    11.00000    0.05575    0.04683 = 
         0.02764    0.00205    0.00952    0.02042 
AFIX 137 
H23A  2    0.580686    0.709096    0.032764    11.00000   -1.50000 
H23B  2    0.359807    0.649296    0.020422    11.00000   -1.50000 
H23C  2    0.604382    0.611135    0.047085    11.00000   -1.50000 
AFIX   0 
HKLF    4 
  
  
  
  
REM  gene833_0m_a.res in P2(1)/c 
REM R1 =  0.0595 for    2351 Fo > 4sig(Fo)  and  0.0856 for all    3182 data 
REM    210 parameters refined using      0 restraints 
  
END 
  
WGHT      0.0396      1.5869 
  
REM Highest difference peak  0.197,  deepest hole -0.214,  1-sigma level  0.047 
Q1    1   0.4601  0.4225  0.3184  11.00000  0.05    0.20 
Q2    1   0.2595  0.5058  0.3961  11.00000  0.05    0.17 
Q3    1   0.3873  0.5437  0.3593  11.00000  0.05    0.17 
Q4    1   0.3194  0.3990  0.3598  11.00000  0.05    0.17 
Q5    1   0.1731  0.7537  0.3470  11.00000  0.05    0.17 
Q6    1   0.1269  0.7977  0.3988  11.00000  0.05    0.16 
Q7    1   0.0938  0.6764  0.3527  11.00000  0.05    0.16 
Q8    1   0.2939  0.5847  0.4884  11.00000  0.05    0.16 
Q9    1   0.0423  0.8173  0.3576  11.00000  0.05    0.16 
Q10   1  -0.2188  1.0230  0.4087  11.00000  0.05    0.16 
Q11   1   0.4656  0.6984  0.0204  11.00000  0.05    0.15 
Q12   1   0.3374  0.6409  0.2534  11.00000  0.05    0.15 
Q13   1  -0.1282  0.5217  0.3129  11.00000  0.05    0.15 
Q14   1  -0.1609  0.7758  0.3796  11.00000  0.05    0.15 
Q15   1   0.5033  0.4828  0.3503  11.00000  0.05    0.15 
Q16   1  -0.0981  0.7193  0.4079  11.00000  0.05    0.15 
Q17   1   0.2289  0.5422  0.3206  11.00000  0.05    0.14 
Q18   1   0.5815  0.5513  0.3968  11.00000  0.05    0.14 
Q19   1   0.4465  0.6973  0.2650  11.00000  0.05    0.14 
Q20   1   0.0816  1.0769  0.4257  11.00000  0.05    0.14 
;
_shelx_res_checksum              35710
_shelx_hkl_file
; 
  -1   0   0    0.79    0.15 
  -1   0   0    0.47    0.17 
   1   0   0    0.50    0.23 
  -1   0   0    0.34    0.17 
  -2   0   0    0.01    0.16 
  -2   0   0   -0.19    0.18 
  -2   0   0    0.01    0.27 
  -2   0   0    0.04    0.20 
   2   0   0    0.02    0.20 
  -3   0   0   56.70    3.17 
  -3   0   0   56.58    3.42 
  -3   0   0   55.48    3.06 
  -3   0   0   50.08    3.06 
  -4   0   0    9.53    0.85 
  -4   0   0    9.09    0.99 
  -4   0   0    8.42    0.84 
  -5   0   0    4.03    0.67 
  -5   0   0    4.11    0.84 
  -6   0   0    0.20    0.21 
   0  -1   0   -0.01    0.06 
   0  -1   0   -0.01    0.06 
   0  -1   0   -0.04    0.06 
   0  -1   0    0.03    0.05 
   0   1   0    0.03    0.07 
   0   1   0    0.05    0.06 
   0   1   0    0.00    0.07 
  -1  -1   0  446.98   22.90 
  -1  -1   0  445.04   22.81 
  -1  -1   0  448.85   22.85 
   1   1   0  462.51   22.92 
  -1   1   0  461.16   22.77 
   1   1   0  453.87   22.72 
   1   1   0  437.15   22.78 
  -2  -1   0    8.57    0.68 
  -2  -1   0   10.73    0.83 
  -2  -1   0    9.71    0.97 
  -2  -1   0   10.78    0.86 
   2   1   0    9.83    0.93 
  -2   1   0   10.39    0.64 
  -2   1   0   10.93    0.90 
   2   1   0    9.57    0.70 
  -3  -1   0  108.33    6.03 
  -3  -1   0  112.58    6.06 
  -3  -1   0  113.46    6.32 
  -3  -1   0  109.22    5.87 
   3   1   0  112.40    6.31 
  -3   1   0  111.91    6.17 
  -3   1   0  111.07    5.77 
  -3   1   0  108.47    5.92 
  -4  -1   0   27.23    1.90 
  -4  -1   0   24.61    1.80 
  -4  -1   0   23.62    1.63 
  -4   1   0   26.67    1.78 
  -4   1   0   24.04    1.70 
  -5  -1   0    4.38    0.75 
  -5  -1   0    3.64    0.80 
  -5   1   0    2.58    0.74 
  -5   1   0    3.45    0.26 
  -5   1   0    2.46    0.57 
  -6  -1   0    0.89    0.31 
  -6   1   0    0.21    0.16 
   0  -2   0   27.65    1.50 
   0  -2   0   23.14    1.48 
   0  -2   0   26.68    1.45 
   0  -2   0   27.07    1.46 
   0   2   0   24.79    1.49 
   0   2   0   26.23    1.50 
   0   2   0   28.14    1.47 
   0   2   0   25.84    1.45 
  -1  -2   0    1.81    0.39 
   1  -2   0    1.68    0.17 
  -1  -2   0    1.79    0.40 
   1  -2   0    1.94    0.20 
  -1  -2   0    1.82    0.27 
  -1  -2   0    1.46    0.21 
  -1  -2   0    2.17    0.29 
   1  -2   0    2.26    0.15 
  -1  -2   0    2.20    0.36 
  -1   2   0    1.99    0.21 
   1   2   0    1.10    0.44 
  -1   2   0    2.31    0.26 
   1   2   0    1.90    0.39 
  -1   2   0    1.77    0.26 
  -1   2   0    2.41    0.28 
  -2  -2   0   51.98    3.32 
  -2  -2   0   52.24    3.23 
  -2  -2   0   56.96    3.20 
   2   2   0   55.47    3.36 
   2   2   0   55.23    2.98 
  -2   2   0   55.65    3.09 
   2   2   0   57.48    3.13 
  -3  -2   0    7.84    0.90 
  -3  -2   0    7.67    0.96 
   3   2   0    8.91    1.14 
  -3   2   0    9.06    0.92 
   3   2   0    9.17    0.75 
  -4  -2   0    5.32    0.84 
  -4  -2   0    5.66    0.51 
  -4  -2   0    5.23    0.87 
  -4   2   0    5.10    0.90 
  -4   2   0    4.50    0.65 
  -4   2   0    6.03    0.71 
  -5  -2   0   26.42    2.16 
  -5  -2   0   23.72    1.98 
  -5   2   0   26.12    1.94 
  -5   2   0   26.64    1.91 
  -5   2   0   28.40    1.54 
  -5   2   0   26.58    1.45 
  -6  -2   0    8.22    0.79 
  -6   2   0    7.17    0.54 
   0  -3   0    0.01    0.13 
   0  -3   0   -0.28    0.15 
   0  -3   0   -0.01    0.07 
   0  -3   0   -0.34    0.14 
   0  -3   0   -0.12    0.16 
   0   3   0   -0.26    0.17 
   0   3   0    0.22    0.21 
   0   3   0   -0.14    0.17 
   0   3   0    0.27    0.21 
  -1  -3   0   82.08    4.42 
  -1  -3   0   75.92    4.41 
   1  -3   0   77.58    4.14 
  -1  -3   0   79.65    4.19 
   1  -3   0   77.54    4.15 
   1  -3   0   78.84    4.10 
  -1  -3   0   81.89    4.25 
   1  -3   0   79.76    4.17 
  -1  -3   0   87.43    4.40 
  -1  -3   0   79.52    4.16 
   1  -3   0   80.93    4.16 
  -1   3   0   76.20    4.16 
   1   3   0   80.61    4.43 
   1   3   0   79.00    4.33 
  -1   3   0   79.86    4.21 
   1   3   0   78.68    4.11 
  -1   3   0   77.67    4.01 
  -1   3   0   79.71    4.22 
   1   3   0   80.50    4.18 
  -1   3   0   73.93    4.12 
  -2  -3   0   49.60    2.98 
  -2  -3   0   48.00    2.67 
  -2  -3   0   47.94    2.88 
  -2  -3   0   47.30    2.51 
  -2  -3   0   48.34    3.00 
  -2  -3   0   47.06    2.65 
   2   3   0   44.30    3.00 
  -2   3   0   45.65    2.57 
   2   3   0   46.30    2.80 
   2   3   0   49.66    2.63 
  -2   3   0   45.31    2.56 
  -2   3   0   47.64    2.50 
  -2   3   0   47.17    2.63 
  -3  -3   0   18.25    1.41 
  -3  -3   0   16.22    1.41 
  -3  -3   0   14.46    1.03 
  -3   3   0   14.07    0.83 
  -3   3   0   14.75    0.92 
  -3   3   0   16.98    1.24 
  -3   3   0   15.06    0.92 
   3   3   0   13.63    1.50 
   3   3   0   12.38    1.02 
  -4  -3   0    3.03    0.50 
  -4  -3   0    2.65    0.78 
  -4  -3   0    2.32    0.75 
  -4   3   0    3.55    0.83 
  -4   3   0    3.70    0.29 
  -4   3   0    3.25    0.39 
  -5  -3   0   -0.69    0.48 
  -5  -3   0    0.76    0.66 
  -5   3   0   -0.13    0.23 
  -5   3   0   -0.28    0.36 
  -5   3   0    0.08    0.14 
  -5   3   0    0.39    0.36 
  -6  -3   0    0.76    0.94 
  -6  -3   0    0.40    0.42 
  -6   3   0    0.09    0.18 
   0  -4   0  172.64    8.71 
   0  -4   0  164.45    8.80 
   0  -4   0  163.61    8.69 
   0  -4   0  172.58    8.77 
   0   4   0  171.73    8.71 
   0   4   0  158.29    8.79 
   0   4   0  174.41    8.73 
   0   4   0  165.44    8.78 
  -1  -4   0   77.22    4.13 
  -1  -4   0   73.99    4.32 
   1  -4   0   78.25    4.03 
   1  -4   0   79.03    4.14 
   1  -4   0   79.90    4.15 
   1  -4   0   77.50    4.12 
  -1  -4   0   76.97    4.33 
   1  -4   0   75.08    4.13 
  -1  -4   0   73.83    4.21 
   1  -4   0   78.69    4.08 
  -1  -4   0   73.35    4.38 
   1   4   0   78.34    4.19 
  -1   4   0   76.49    4.17 
  -1   4   0   76.01    3.94 
   1   4   0   80.50    4.40 
  -1   4   0   73.85    4.08 
  -1   4   0   80.62    4.20 
   1   4   0   71.75    4.28 
   1   4   0   77.79    4.12 
  -1   4   0   74.17    4.14 
  -2  -4   0    8.06    1.01 
   2  -4   0    9.67    0.57 
  -2  -4   0    9.68    1.11 
  -2  -4   0   10.82    0.83 
  -2  -4   0   11.92    1.10 
  -2  -4   0    8.76    0.82 
  -2  -4   0    9.47    0.72 
  -2   4   0   11.15    0.76 
  -2   4   0   10.77    0.73 
  -2   4   0    9.84    0.79 
   2   4   0   11.25    0.98 
   2   4   0   11.04    1.13 
  -2   4   0    9.80    0.67 
  -2   4   0    8.55    0.79 
  -3  -4   0   16.25    1.24 
  -3  -4   0   17.45    1.08 
  -3  -4   0   15.93    1.50 
  -3  -4   0   16.13    1.56 
  -3  -4   0   18.63    1.29 
  -3   4   0   18.52    1.07 
  -3   4   0   16.39    1.24 
  -3   4   0   17.20    1.19 
   3   4   0   16.02    1.18 
   3   4   0   18.52    1.69 
  -3   4   0   16.16    1.15 
  -4  -4   0    2.91    0.61 
  -4  -4   0    2.75    0.59 
  -4  -4   0    2.37    0.36 
  -4  -4   0    2.83    0.83 
  -4  -4   0    2.14    0.76 
   4   4   0    2.72    0.94 
  -4   4   0    2.46    0.33 
  -4   4   0    2.40    0.63 
  -4   4   0    3.24    0.49 
  -5  -4   0    0.10    0.61 
  -5  -4   0    0.14    0.42 
  -5  -4   0    0.89    0.77 
  -5   4   0   -0.30    0.15 
  -5   4   0    0.27    0.34 
  -5   4   0   -0.39    0.33 
  -5   4   0    0.07    0.41 
  -6  -4   0    3.46    1.17 
  -6  -4   0    3.16    0.73 
  -6   4   0    2.59    0.43 
   0  -5   0   -0.05    0.10 
   0  -5   0    0.07    0.26 
   0  -5   0   -0.17    0.23 
   0  -5   0    0.11    0.33 
   0  -5   0    0.26    0.35 
   0  -5   0    0.17    0.23 
   0   5   0    0.15    0.27 
   0   5   0    0.14    0.37 
   0   5   0   -0.02    0.24 
   0   5   0    0.17    0.27 
   1  -5   0   12.58    0.97 
   1  -5   0   14.13    0.99 
  -1  -5   0   13.05    1.15 
  -1  -5   0   10.75    1.10 
  -1  -5   0   12.00    1.05 
  -1  -5   0   12.58    0.95 
  -1  -5   0   12.35    1.21 
   1  -5   0   12.04    0.70 
   1  -5   0   11.43    0.84 
   1  -5   0   12.71    0.98 
   1  -5   0   10.52    0.86 
   1  -5   0   12.61    0.97 
  -1   5   0   12.82    0.99 
  -1   5   0   10.93    0.95 
  -1   5   0   11.53    0.90 
   1   5   0   11.47    1.01 
   1   5   0   11.09    0.87 
  -1   5   0   12.11    1.03 
   1   5   0   12.70    0.93 
  -1   5   0   12.80    0.78 
   1   5   0   12.52    1.10 
   1   5   0   13.83    1.21 
  -2  -5   0    0.36    0.43 
  -2  -5   0    0.48    0.55 
  -2  -5   0    0.65    0.28 
  -2  -5   0    0.29    0.27 
  -2  -5   0    0.60    0.41 
  -2  -5   0    0.61    0.53 
   2  -5   0    0.75    0.22 
  -2   5   0    0.52    0.11 
   2   5   0    0.52    0.54 
  -2   5   0    0.68    0.29 
  -2   5   0    0.89    0.37 
  -2   5   0    0.69    0.26 
  -2   5   0    0.40    0.33 
  -3  -5   0    1.29    0.52 
  -3  -5   0    1.55    0.36 
  -3  -5   0    1.78    0.47 
  -3  -5   0    1.85    0.70 
  -3  -5   0    1.04    0.58 
   3   5   0    1.67    0.81 
  -3   5   0    1.31    0.35 
  -3   5   0    2.13    0.48 
  -3   5   0    2.04    0.42 
  -3   5   0    2.15    0.48 
  -4  -5   0    7.27    0.69 
  -4  -5   0    6.22    1.13 
  -4  -5   0    8.21    0.94 
  -4  -5   0    6.83    0.86 
  -4  -5   0    7.66    1.16 
  -4   5   0    6.35    0.77 
  -4   5   0    7.06    0.86 
   4   5   0    7.07    1.22 
  -4   5   0    8.64    0.70 
  -4   5   0    7.17    0.81 
  -5  -5   0    6.10    1.31 
  -5  -5   0    6.55    1.24 
  -5  -5   0    8.38    1.09 
  -5   5   0    6.06    0.65 
  -5   5   0    5.18    0.75 
  -6  -5   0    0.88    0.61 
  -6  -5   0    2.60    1.03 
  -6   5   0    1.01    0.57 
  -6   5   0    0.51    0.38 
   0  -6   0  124.58    7.01 
   0  -6   0  132.61    6.80 
   0  -6   0  130.04    6.81 
   0  -6   0  125.24    6.95 
   0   6   0  130.46    6.85 
   0   6   0  123.16    6.92 
   0   6   0  123.05    6.79 
   0   6   0  128.91    6.96 
   1  -6   0   98.02    5.40 
  -1  -6   0   98.93    5.70 
   1  -6   0   95.61    5.06 
  -1  -6   0   98.08    5.56 
  -1  -6   0   92.65    5.56 
   1  -6   0   99.71    5.42 
   1  -6   0   95.96    5.24 
   1  -6   0  102.49    5.32 
  -1  -6   0   99.82    5.37 
   1  -6   0   95.52    5.38 
  -1   6   0   97.29    5.47 
  -1   6   0   96.15    5.40 
  -1   6   0  100.70    5.17 
   1   6   0   98.14    5.61 
   1   6   0   93.79    5.33 
  -1   6   0  103.96    5.48 
   1   6   0  100.10    5.30 
   1   6   0  103.82    5.94 
  -1   6   0  100.22    5.34 
   1   6   0   96.64    5.44 
  -2  -6   0   28.63    2.17 
  -2  -6   0   26.89    2.23 
   2  -6   0   27.30    1.73 
  -2  -6   0   30.23    1.90 
   2  -6   0   30.77    1.71 
  -2  -6   0   27.69    1.83 
  -2   6   0   30.07    1.99 
  -2   6   0   27.70    1.52 
   2   6   0   27.67    1.83 
  -2   6   0   29.51    1.91 
   2   6   0   27.19    1.64 
   2   6   0   27.66    2.25 
  -2   6   0   28.14    1.79 
  -2   6   0   30.62    1.89 
  -3  -6   0    7.55    1.04 
  -3  -6   0    7.21    0.73 
  -3  -6   0    6.20    1.03 
  -3  -6   0    7.52    0.83 
  -3   6   0    7.08    0.78 
   3   6   0    6.33    1.10 
  -3   6   0    7.57    0.76 
  -3   6   0    8.89    0.92 
  -3   6   0    7.90    0.65 
  -4  -6   0    0.60    0.34 
  -4  -6   0    0.65    0.68 
  -4  -6   0    1.47    0.51 
  -4  -6   0    1.45    0.68 
  -4   6   0    0.56    0.34 
  -4   6   0    0.63    0.47 
   4   6   0    1.29    0.89 
  -4   6   0    0.85    0.40 
  -5  -6   0    3.42    1.12 
  -5  -6   0    2.35    0.98 
  -5  -6   0    4.03    0.87 
  -5   6   0    3.42    0.74 
  -5   6   0    2.58    0.56 
  -6  -6   0    1.10    0.90 
  -6  -6   0   -0.25    0.58 
  -6   6   0    0.25    0.38 
  -6   6   0    0.92    0.69 
   0  -7   0   -0.25    0.26 
   0  -7   0    0.03    0.35 
   0  -7   0   -0.07    0.40 
   0  -7   0    0.39    0.26 
   0  -7   0   -0.13    0.23 
   0   7   0    0.08    0.31 
   0   7   0   -0.05    0.29 
   0   7   0    0.51    0.36 
   1  -7   0  129.44    7.07 
   1  -7   0  132.33    6.90 
   1  -7   0  137.98    7.11 
  -1  -7   0  123.19    7.23 
  -1  -7   0  124.61    7.00 
   1  -7   0  125.14    6.68 
  -1  -7   0  132.01    7.20 
   1  -7   0  130.73    7.10 
   1  -7   0  128.31    6.96 
  -1  -7   0  137.52    7.44 
  -1   7   0  137.77    7.12 
   1   7   0  136.38    6.96 
   1   7   0  124.20    6.99 
   1   7   0  128.24    7.12 
  -1   7   0  127.27    7.10 
  -1   7   0  132.92    6.81 
   1   7   0  119.07    7.20 
  -1   7   0  129.26    6.99 
  -1   7   0  129.44    7.14 
  -2  -7   0    0.90    0.50 
   2  -7   0    1.32    0.39 
  -2  -7   0    0.59    0.47 
  -2  -7   0    0.91    0.40 
  -2   7   0    0.93    0.18 
  -2   7   0    0.97    0.48 
   2   7   0    0.46    0.66 
   2   7   0    0.90    0.29 
   2   7   0    0.83    0.32 
  -2   7   0    0.23    0.43 
  -2   7   0    0.23    0.35 
  -3  -7   0    0.56    0.41 
  -3  -7   0    0.12    0.34 
  -3  -7   0    0.76    0.66 
  -3  -7   0    0.73    0.53 
   3   7   0    0.44    0.59 
  -3   7   0    0.69    0.14 
  -3   7   0    1.01    0.58 
  -3   7   0    1.18    0.24 
  -3   7   0    0.57    0.39 
  -4  -7   0    9.38    1.41 
  -4  -7   0    6.52    0.98 
  -4  -7   0    7.56    1.37 
  -4  -7   0    7.72    0.87 
  -4   7   0    7.93    0.90 
  -4   7   0    5.32    0.92 
  -4   7   0    8.98    0.76 
   4   7   0    9.79    1.62 
  -5  -7   0    2.72    1.04 
  -5  -7   0    1.19    0.93 
  -5  -7   0    1.99    0.71 
  -5   7   0    2.15    0.76 
  -5   7   0    1.18    0.50 
  -6  -7   0    1.11    0.73 
  -6  -7   0    0.44    0.94 
  -6   7   0    1.03    0.53 
  -6   7   0    0.84    0.68 
   0  -8   0   32.77    2.36 
   0  -8   0   32.78    2.14 
   0  -8   0   32.90    2.41 
   0  -8   0   31.86    2.18 
   0   8   0   33.51    2.22 
   0   8   0   32.38    2.16 
   0   8   0   33.82    2.36 
   1  -8   0   -0.09    0.21 
  -1  -8   0   -0.14    0.33 
  -1  -8   0    0.02    0.31 
   1  -8   0   -0.06    0.35 
  -1  -8   0   -0.02    0.50 
   1  -8   0    0.01    0.29 
  -1  -8   0   -0.23    0.30 
   1  -8   0    0.04    0.18 
   1  -8   0    0.09    0.41 
  -1  -8   0    0.31    0.45 
   1   8   0   -0.39    0.42 
   1   8   0   -0.46    0.42 
  -1   8   0   -0.06    0.23 
  -1   8   0    0.06    0.35 
  -1   8   0   -0.28    0.28 
   1   8   0    0.04    0.31 
  -1   8   0    0.36    0.37 
   1   8   0   -0.07    0.24 
   2  -8   0    7.90    0.84 
  -2  -8   0    8.88    1.23 
   2  -8   0    7.33    0.83 
  -2  -8   0    7.95    0.89 
   2  -8   0    7.35    0.64 
  -2  -8   0    9.95    1.35 
  -2   8   0    7.26    0.52 
   2   8   0    7.72    0.73 
   2   8   0    7.15    0.84 
   2   8   0    8.21    1.26 
  -2   8   0    5.02    0.90 
  -2   8   0    8.81    0.96 
  -3  -8   0    1.75    0.55 
  -3  -8   0    1.72    0.70 
   3  -8   0    1.44    0.31 
  -3  -8   0    1.73    0.88 
  -3  -8   0    1.65    0.55 
   3   8   0    0.49    0.60 
  -3   8   0    0.90    0.49 
  -3   8   0    0.55    0.60 
  -4  -8   0   11.69    1.25 
  -4  -8   0   16.29    1.92 
  -4  -8   0   11.87    1.65 
   4   8   0    9.41    1.76 
  -4   8   0   11.97    1.23 
  -4   8   0   12.89    1.38 
  -5  -8   0    0.74    0.57 
  -5  -8   0    0.79    0.90 
  -5   8   0    0.67    0.52 
  -5   8   0    1.73    0.76 
  -6  -8   0   -0.31    0.89 
  -6  -8   0    1.33    0.83 
  -6   8   0    0.62    0.59 
   0  -9   0    0.26    0.41 
   0  -9   0   -0.15    0.43 
   0  -9   0    0.30    0.38 
   0  -9   0    0.02    0.12 
   0  -9   0   -0.03    0.46 
   0  -9   0   -0.47    0.28 
   0   9   0    0.10    0.52 
   0   9   0   -0.10    0.34 
   0   9   0    0.15    0.43 
  -1  -9   0    0.15    0.42 
  -1  -9   0    0.31    0.43 
   1  -9   0    0.08    0.39 
   1  -9   0    0.66    0.40 
  -1  -9   0    0.42    0.44 
   1  -9   0    0.41    0.23 
   1  -9   0   -0.01    0.31 
   1  -9   0    0.25    0.46 
  -1  -9   0    0.49    0.49 
   1   9   0    0.18    0.39 
   1   9   0    0.78    0.50 
  -1   9   0    1.04    0.48 
   1   9   0    0.84    0.39 
  -1   9   0    0.13    0.40 
   1   9   0    0.60    0.46 
  -1   9   0    0.28    0.30 
   2  -9   0   14.26    1.23 
   2  -9   0   11.67    0.94 
   2  -9   0   14.91    1.23 
  -2  -9   0   14.74    1.51 
  -2  -9   0    9.16    1.37 
  -2  -9   0   11.22    1.17 
   2   9   0   13.32    1.07 
   2   9   0   13.49    1.53 
  -2   9   0    9.06    1.23 
   2   9   0   13.13    1.19 
  -2   9   0   12.18    1.27 
  -2   9   0   12.04    0.81 
   3  -9   0   11.75    0.92 
  -3  -9   0   11.60    1.72 
  -3  -9   0   11.52    1.59 
  -3  -9   0   10.66    1.20 
   3   9   0   12.58    1.63 
  -3   9   0   12.74    1.31 
  -3   9   0   11.05    1.34 
  -4  -9   0    3.36    1.09 
  -4  -9   0    3.40    0.87 
  -4  -9   0    3.94    1.28 
  -4   9   0    2.31    0.73 
  -4   9   0    2.91    0.89 
   4   9   0    2.25    1.16 
  -5  -9   0    0.32    0.63 
  -5  -9   0   -0.34    0.80 
  -5   9   0    0.16    0.69 
  -5   9   0    1.25    0.64 
  -6  -9   0   -0.04    0.69 
  -6  -9   0    0.24    1.03 
  -6   9   0   -0.35    0.51 
   0 -10   0    3.60    0.76 
   0 -10   0    1.65    0.55 
   0 -10   0    2.27    0.67 
   0 -10   0    2.72    0.88 
   0 -10   0    2.50    0.73 
   0  10   0    3.30    0.72 
   0  10   0    1.61    0.67 
   0  10   0    1.32    0.64 
  -1 -10   0   20.70    1.73 
   1 -10   0   20.13    1.58 
   1 -10   0   21.90    1.39 
  -1 -10   0   19.54    2.06 
  -1 -10   0   17.53    1.71 
  -1 -10   0   18.99    1.87 
   1 -10   0   21.53    1.67 
   1 -10   0   21.83    1.88 
   1 -10   0   22.92    1.86 
  -1  10   0   22.30    1.88 
   1  10   0   21.59    1.75 
   1  10   0   22.23    1.66 
   1  10   0   24.75    1.97 
  -1  10   0   20.81    1.56 
   1  10   0   21.99    1.96 
   2 -10   0    1.32    0.58 
   2 -10   0    0.50    0.34 
  -2 -10   0    1.43    0.57 
   2 -10   0    0.24    0.49 
  -2 -10   0    1.53    0.69 
  -2 -10   0   -0.08    0.68 
   2  10   0    0.18    0.27 
  -2  10   0    0.88    0.27 
  -2  10   0    0.95    0.60 
   2  10   0    2.08    0.91 
  -2  10   0    1.42    0.72 
   2  10   0    0.32    0.41 
   3 -10   0    3.34    0.59 
  -3 -10   0    3.15    0.83 
  -3 -10   0    3.09    1.06 
  -3 -10   0    3.35    1.14 
  -3  10   0    4.16    0.93 
  -3  10   0    3.41    1.00 
   3  10   0    5.10    1.40 
   3  10   0    3.98    0.53 
  -4 -10   0    0.71    0.90 
  -4  10   0   -0.08    0.47 
   4  10   0   -0.73    0.80 
  -4  10   0   -0.21    0.56 
  -5 -10   0    1.80    1.17 
  -5 -10   0   -0.38    0.68 
  -5  10   0   -0.14    0.71 
  -5  10   0    0.78    0.64 
   0 -11   0    0.67    0.68 
   0 -11   0    0.26    0.50 
   0 -11   0   -0.02    0.31 
   0 -11   0    1.45    0.68 
   0 -11   0    1.52    0.56 
   0  11   0    0.36    0.57 
   0  11   0    0.73    0.71 
   0  11   0    1.04    0.58 
  -1 -11   0    6.48    1.07 
   1 -11   0    6.45    0.89 
  -1 -11   0    7.53    1.11 
   1 -11   0    4.31    0.78 
  -1 -11   0    4.99    1.06 
   1 -11   0    4.36    0.95 
   1 -11   0    3.17    0.89 
  -1 -11   0    4.99    0.89 
   1 -11   0    6.01    0.63 
   1  11   0    5.72    0.86 
   1  11   0    5.40    0.97 
  -1  11   0    6.29    1.02 
  -1  11   0    4.38    0.75 
   1  11   0    5.66    1.08 
   1  11   0    6.47    0.99 
  -2 -11   0    6.17    1.28 
  -2 -11   0    9.46    1.46 
   2 -11   0   11.28    0.95 
   2 -11   0    7.62    1.02 
   2 -11   0   10.05    1.17 
  -2 -11   0    8.57    1.18 
  -2 -11   0    9.94    1.22 
   2  11   0    8.83    1.10 
  -2  11   0   12.01    1.36 
  -2  11   0    6.26    1.19 
   2  11   0   10.91    1.57 
  -2  11   0    9.39    0.75 
   3 -11   0    0.52    0.48 
  -3 -11   0    1.18    0.65 
  -3 -11   0    0.03    0.58 
  -3  11   0    0.44    0.66 
   3  11   0    0.72    0.36 
  -3  11   0    1.61    0.84 
   3  11   0    1.02    0.98 
  -4 -11   0   16.98    2.15 
  -4  11   0   15.80    1.82 
   4  11   0   20.46    2.48 
  -4  11   0   16.64    1.73 
  -5 -11   0    0.83    1.09 
  -5  11   0    0.82    0.92 
  -5  11   0    0.10    0.61 
   0 -12   0    6.55    1.19 
   0 -12   0    4.81    0.90 
   0 -12   0    3.70    0.89 
   0 -12   0    3.01    0.95 
   0 -12   0    3.66    0.84 
   0  12   0    6.15    1.07 
   0  12   0    4.03    1.15 
   0  12   0    3.46    0.76 
   1 -12   0   39.13    3.02 
  -1 -12   0   35.54    3.03 
  -1 -12   0   42.38    2.89 
  -1 -12   0   40.40    3.31 
  -1 -12   0   39.01    3.14 
   1 -12   0   41.71    2.82 
   1 -12   0   42.92    2.97 
   1 -12   0   42.35    2.71 
   1 -12   0   40.39    2.40 
  -1 -12   0   39.02    2.95 
  -1  12   0   40.59    2.64 
   1  12   0   35.36    2.97 
   1  12   0   39.39    2.83 
  -1  12   0   36.49    3.04 
   1  12   0   38.93    3.03 
   1  12   0   40.31    2.74 
   2 -12   0   70.05    4.41 
   2 -12   0   72.97    4.47 
  -2 -12   0   70.19    4.86 
   2 -12   0   69.80    4.03 
  -2 -12   0   74.87    4.48 
  -2 -12   0   68.15    4.58 
  -2  12   0   71.40    4.67 
   2  12   0   74.81    4.93 
  -2  12   0   66.18    3.82 
   2  12   0   71.26    4.17 
   2  12   0   69.01    4.32 
  -3 -12   0    4.02    1.20 
  -3 -12   0    2.42    0.95 
   3 -12   0    1.24    0.60 
  -3  12   0    1.51    0.96 
   3  12   0    1.77    0.49 
   3  12   0    2.40    0.76 
   3  12   0    3.47    1.09 
  -3  12   0    2.08    0.81 
  -4 -12   0   -0.14    0.87 
   4  12   0    0.03    0.78 
  -4  12   0    0.70    0.86 
  -4  12   0    0.71    0.69 
  -5 -12   0   -0.09    1.11 
  -5  12   0    3.67    1.23 
   0 -13   0    0.31    0.55 
   0 -13   0    0.51    0.50 
   0 -13   0    0.99    0.64 
   0 -13   0   -0.55    0.69 
   0  13   0    0.50    0.82 
   0  13   0    1.27    0.76 
   0  13   0    0.11    0.60 
  -1 -13   0   42.07    3.54 
   1 -13   0   44.70    2.91 
   1 -13   0   38.58    3.11 
  -1 -13   0   38.89    3.31 
   1 -13   0   43.04    3.27 
   1 -13   0   43.66    2.58 
  -1 -13   0   45.44    3.24 
  -1 -13   0   38.93    3.01 
  -1  13   0   45.69    3.38 
   1  13   0   38.69    2.95 
   1  13   0   42.04    3.27 
   1  13   0   47.32    3.36 
   1  13   0   44.05    2.96 
  -1  13   0   41.84    2.80 
   2 -13   0    0.47    0.69 
   2 -13   0    0.88    0.48 
  -2 -13   0    1.37    0.83 
  -2 -13   0    1.49    0.76 
  -2 -13   0    1.32    1.02 
   2 -13   0    1.47    0.79 
  -2  13   0    2.30    0.96 
   2  13   0    0.46    0.95 
   2  13   0    2.57    0.81 
  -3 -13   0   25.38    2.59 
  -3 -13   0   26.85    2.47 
  -3  13   0   25.25    2.52 
   3  13   0   25.70    2.80 
   3  13   0   27.19    2.13 
  -4 -13   0   -0.62    0.67 
  -4 -13   0    1.15    1.19 
  -4  13   0    0.36    0.92 
   4  13   0    2.10    1.10 
  -5 -13   0    0.09    1.06 
  -5 -13   0    1.70    1.04 
  -5  13   0   -0.74    1.02 
   0 -14   0   30.70    2.40 
   0 -14   0   34.79    2.97 
   0 -14   0   27.97    2.64 
   0  14   0   26.55    2.54 
   0  14   0   27.19    2.39 
  -1 -14   0    4.29    1.50 
   1 -14   0    6.95    1.06 
   1 -14   0    9.92    1.49 
   1 -14   0    7.72    1.33 
  -1 -14   0    7.52    1.25 
  -1 -14   0    4.61    1.34 
  -1  14   0    6.73    1.41 
   1  14   0    6.12    1.16 
  -1  14   0    5.61    0.99 
   1  14   0    5.98    1.31 
   2 -14   0   16.57    1.81 
   2 -14   0   14.55    1.38 
  -2 -14   0   17.01    2.16 
   2 -14   0   15.24    1.72 
  -2 -14   0   18.39    2.00 
  -2 -14   0   19.47    1.90 
  -2  14   0   15.94    2.01 
   2  14   0   16.55    1.68 
   2  14   0   16.96    2.14 
  -3 -14   0   28.13    2.83 
  -3 -14   0   30.36    2.61 
   3  14   0   25.61    2.25 
  -3  14   0   23.70    2.48 
   3  14   0   36.33    3.13 
  -4 -14   0    0.54    0.96 
  -4 -14   0    0.77    0.88 
   4  14   0    1.02    1.30 
  -4  14   0    1.47    1.11 
   0 -15   0   -0.21    0.73 
   0 -15   0    0.39    0.64 
   0  15   0    1.56    1.07 
   0  15   0    0.62    0.71 
   1 -15   0   10.06    1.30 
  -1 -15   0   12.18    1.54 
   1 -15   0   10.04    1.44 
   1 -15   0   12.09    1.73 
  -1 -15   0    7.38    1.60 
   1  15   0   10.35    1.47 
  -1  15   0    9.71    1.27 
   1  15   0   14.46    1.79 
  -1  15   0    9.30    1.68 
   2 -15   0   17.76    1.94 
   2 -15   0   11.40    1.57 
   2 -15   0   11.45    1.26 
  -2 -15   0   13.10    1.68 
  -2 -15   0   12.26    1.95 
   2  15   0   13.33    1.56 
  -2  15   0   13.99    1.96 
   2  15   0   13.41    1.85 
  -3 -15   0    0.53    0.80 
   3  15   0    2.12    1.28 
   3  15   0    0.72    0.72 
  -3  15   0    1.25    1.08 
  -4 -15   0   -0.48    1.11 
  -4  15   0    1.00    1.07 
   4  15   0    0.00    0.86 
   0 -16   0    1.79    0.82 
   0 -16   0    1.30    0.86 
   0  16   0    2.03    0.92 
   0  16   0    2.46    1.26 
   1 -16   0    0.54    0.64 
  -1 -16   0    1.35    0.91 
  -1 -16   0    0.29    0.78 
   1 -16   0   -0.27    0.74 
  -1  16   0    0.65    1.05 
   1  16   0    0.80    0.88 
  -2 -16   0    1.16    0.89 
  -2 -16   0    0.89    0.97 
   2 -16   0    0.24    0.57 
   2 -16   0    0.18    0.52 
   2  16   0    0.92    0.95 
  -2  16   0    1.48    1.19 
  -3 -16   0    9.16    1.75 
   3  16   0   11.85    1.93 
  -3  16   0   14.59    2.14 
   0 -17   0    0.30    0.97 
   0 -17   0    0.97    0.78 
   0  17   0    0.72    0.78 
  -1 -17   0   -0.45    0.67 
  -1 -17   0    0.39    0.77 
   1 -17   0    0.13    0.69 
   1 -17   0   -0.03    0.61 
  -1  17   0   -0.41    0.67 
   1  17   0    1.41    0.99 
   2 -17   0    5.63    1.02 
  -2 -17   0    7.92    1.60 
   2 -17   0    3.79    1.20 
  -2  17   0    8.89    1.86 
   2  17   0    4.39    1.51 
  -3 -17   0    1.10    0.96 
  -3  17   0    1.57    1.30 
   3  17   0   -0.36    1.07 
   0 -18   0    3.60    1.44 
   0 -18   0    1.69    0.94 
   1 -18   0   -0.45    0.68 
   1 -18   0   -0.15    0.93 
  -1 -18   0    0.07    0.85 
  -1 -18   0    0.04    0.83 
  -1  18   0    2.58    1.51 
   1  18   0    1.39    1.08 
  -2 -18   0    1.72    1.17 
   2 -18   0    1.84    1.10 
   2 -18   0    0.73    0.68 
   2  18   0    0.95    1.25 
  -2  18   0    0.76    1.28 
   0 -19   0    1.25    0.93 
   0 -19   0    0.80    0.75 
  -1 -19   0    5.37    1.47 
   1 -19   0    6.16    1.38 
  -1 -19   0    6.02    1.96 
   1 -19   0    6.79    1.71 
  -6   0   1   -0.11    0.14 
  -5   0   1    0.14    0.33 
  -5   0   1   -0.15    0.53 
  -5   0   1   -0.08    0.31 
  -4   0   1   -0.28    0.37 
  -4   0   1   -0.33    0.21 
  -4   0   1   -0.62    0.21 
  -3   0   1   -0.11    0.37 
  -3   0   1   -0.20    0.26 
   3   0  -1    0.53    0.45 
  -3   0   1   -0.04    0.17 
  -3   0   1    0.13    0.32 
   2   0  -1   -0.56    0.23 
  -2   0   1    0.27    0.23 
  -2   0   1   -0.06    0.11 
  -1   0   1    0.16    0.19 
   1   0  -1    0.22    0.21 
  -1   0  -1   -0.01    0.07 
  -1   0  -1   -0.18    0.10 
   1   0   1   -0.09    0.14 
  -1   0  -1    0.08    0.08 
  -1   0  -1    0.31    0.13 
  -1   0  -1    0.03    0.13 
   1   0   1    0.20    0.15 
   1   0   1    0.04    0.11 
  -2   0  -1   -0.16    0.20 
  -2   0  -1   -0.14    0.15 
   2   0   1    0.02    0.22 
  -2   0  -1   -0.19    0.15 
  -2   0  -1    0.10    0.17 
  -3   0  -1   -0.19    0.20 
  -3   0  -1    0.02    0.24 
  -3   0  -1   -0.28    0.21 
  -3   0  -1   -0.18    0.28 
  -4   0  -1   -0.52    0.30 
  -4   0  -1    0.19    0.28 
  -4   0  -1    0.11    0.14 
  -4   0  -1   -0.27    0.22 
  -5   0  -1   -0.35    0.34 
  -5   0  -1    0.25    0.48 
  -5   0  -1    0.04    0.19 
  -6   0  -1    0.02    0.21 
  -6  -1   1    0.32    0.64 
  -6   1   1    0.22    0.13 
  -5  -1   1   -0.22    0.36 
  -5  -1   1    0.31    0.60 
  -5   1   1    0.61    0.56 
  -5   1   1    0.22    0.34 
  -4  -1   1    5.44    0.88 
  -4  -1   1    3.65    0.74 
  -4  -1   1    5.27    0.59 
  -4   1   1    5.94    0.67 
  -4   1   1    4.68    0.70 
   4   1  -1    6.41    0.98 
  -4   1   1    6.26    0.57 
  -3  -1   1   10.06    0.70 
  -3  -1   1    8.80    1.08 
  -3  -1   1    7.05    0.82 
  -3  -1   1    8.42    0.89 
  -3   1   1    7.34    0.90 
   3   1  -1    8.68    1.08 
  -3   1   1    8.68    0.73 
  -3   1   1    7.99    0.68 
   2  -1  -1   62.99    3.60 
  -2  -1   1   64.56    3.39 
  -2  -1   1   64.96    3.61 
  -2  -1   1   60.51    3.72 
   2   1  -1   68.28    3.79 
  -2   1   1   66.66    3.62 
  -1  -1   1   92.93    5.11 
   1  -1  -1   97.38    4.98 
  -1  -1   1   96.52    5.05 
  -1   1   1   97.94    4.97 
   1   1  -1   95.45    5.12 
   1   1  -1   95.92    4.88 
   0  -1   1   10.29    0.61 
   0  -1  -1   11.31    0.60 
   0  -1   1    9.71    0.58 
   0  -1  -1    8.25    0.59 
   0  -1  -1   11.12    0.63 
   0  -1  -1   11.15    0.62 
   0  -1  -1   10.19    0.59 
   0  -1   1   10.66    0.61 
   0  -1   1   10.03    0.59 
   0   1   1   11.05    0.63 
   0   1  -1   10.58    0.59 
   0   1  -1   10.79    0.61 
   0   1  -1    7.93    0.59 
   0   1  -1   10.58    0.59 
   0   1  -1   10.24    0.61 
   0   1   1   10.26    0.61 
   0   1   1   10.17    0.59 
   0   1   1   10.23    0.61 
  -1  -1  -1   75.32    4.15 
  -1  -1  -1   80.64    4.28 
  -1  -1  -1   77.72    4.21 
  -1  -1  -1   77.97    4.12 
  -1  -1  -1   80.11    4.09 
   1   1   1   76.75    4.22 
   1   1   1   83.71    4.15 
  -1   1  -1   76.36    4.06 
   1   1   1   81.24    4.13 
  -1   1  -1   80.72    4.02 
  -2  -1  -1   10.91    0.78 
   2  -1   1    9.69    0.72 
  -2  -1  -1   10.25    0.64 
  -2  -1  -1    8.34    0.92 
  -2  -1  -1    8.69    0.79 
  -2  -1  -1   10.94    0.88 
   2   1   1   13.43    0.83 
  -2   1  -1   11.05    0.91 
   2   1   1   11.98    0.79 
  -3  -1  -1    8.38    0.73 
  -3  -1  -1    9.57    1.04 
  -3  -1  -1    6.55    0.74 
  -3  -1  -1    7.42    0.52 
  -3  -1  -1    6.16    0.76 
  -3   1  -1    7.66    0.69 
  -3   1  -1    8.22    0.75 
  -3   1  -1    6.31    0.87 
  -4  -1  -1    0.59    0.35 
  -4  -1  -1    0.41    0.43 
  -4  -1  -1    0.71    0.48 
  -4  -1  -1    1.20    0.28 
  -4   1  -1    0.52    0.36 
  -4   1  -1    0.67    0.40 
  -4   1  -1    0.90    0.17 
  -5  -1  -1    3.05    0.68 
  -5  -1  -1    4.64    0.54 
  -5  -1  -1    5.31    0.77 
  -5  -1  -1    4.91    0.91 
  -5   1  -1    5.39    0.76 
  -5   1  -1    4.58    0.41 
  -5   1  -1    3.43    0.78 
  -6  -1  -1    0.79    0.32 
  -6   1  -1    0.23    0.21 
  -6  -2   1    1.64    0.90 
  -6   2   1    1.18    0.18 
  -5  -2   1   15.63    1.60 
  -5  -2   1   14.29    1.41 
  -5   2   1   12.56    1.28 
  -5   2   1   12.76    1.16 
  -4  -2   1    3.26    0.78 
  -4  -2   1    2.92    0.77 
  -4   2   1    3.76    0.77 
   4   2  -1    2.94    0.85 
  -4   2   1    2.22    0.51 
  -3  -2   1   98.40    5.24 
  -3  -2   1   86.94    5.14 
   3   2  -1   88.58    5.37 
  -3   2   1   89.85    5.07 
  -2  -2   1    4.85    0.67 
  -2  -2   1    4.20    0.56 
   2   2  -1    4.91    0.40 
   2   2  -1    3.65    0.65 
  -2   2   1    4.20    0.51 
  -1  -2   1   40.10    2.41 
  -1  -2   1   41.36    2.18 
  -1  -2   1   44.05    2.40 
   1  -2  -1   44.22    2.11 
  -1  -2   1   39.13    2.26 
   1  -2  -1   40.54    2.14 
   1  -2  -1   41.62    2.10 
  -1   2   1   40.38    2.14 
   1   2  -1   41.34    2.12 
   1   2  -1   40.28    2.43 
  -1   2   1   41.50    2.18 
  -1   2   1   41.80    2.17 
  -1   2   1   40.90    2.14 
   1   2  -1   37.62    2.33 
  -1   2   1   40.93    2.18 
   0  -2   1   11.69    0.72 
   0  -2   1   11.57    0.77 
   0  -2  -1   11.35    0.77 
   0  -2  -1   10.83    0.79 
   0  -2  -1   12.33    0.74 
   0  -2   1   11.91    0.73 
   0  -2  -1   11.31    0.73 
   0  -2  -1   11.80    0.76 
   0  -2   1   11.54    0.78 
   0  -2  -1   10.37    0.75 
   0   2  -1   11.79    0.74 
   0   2   1   11.79    0.78 
   0   2  -1   12.69    0.76 
   0   2   1   11.79    0.73 
   0   2   1   11.98    0.81 
   0   2   1   11.69    0.77 
   0   2   1   12.33    0.78 
   0   2  -1    9.96    0.71 
   0   2  -1   12.50    0.77 
  -1  -2  -1   73.00    4.07 
  -1  -2  -1   74.48    4.05 
   1  -2   1   74.49    3.78 
  -1  -2  -1   70.71    3.81 
  -1  -2  -1   74.74    4.00 
  -1  -2  -1   71.71    3.90 
   1  -2   1   73.75    3.85 
  -1  -2  -1   74.89    3.84 
   1   2   1   75.74    3.99 
   1   2   1   74.67    4.09 
  -1   2  -1   74.45    3.83 
  -1   2  -1   76.91    3.90 
  -1   2  -1   74.09    3.81 
   1   2   1   69.53    4.06 
   1   2   1   74.74    3.89 
  -2  -2  -1   22.11    1.55 
  -2  -2  -1   25.24    1.42 
  -2  -2  -1   20.61    1.71 
   2  -2   1   23.64    1.29 
  -2  -2  -1   23.13    1.63 
   2   2   1   21.59    1.50 
  -2   2  -1   24.22    1.26 
   2   2   1   24.42    1.46 
   2   2   1   25.27    1.78 
  -2   2  -1   24.15    1.34 
  -2   2  -1   23.11    1.52 
  -3  -2  -1    4.72    0.73 
  -3  -2  -1    3.65    0.64 
  -3  -2  -1    4.93    0.50 
  -3   2  -1    5.00    0.34 
  -3   2  -1    4.93    0.79 
   3   2   1    5.07    0.56 
  -3   2  -1    5.28    0.41 
  -4  -2  -1   28.78    2.22 
  -4  -2  -1   29.91    1.90 
  -4  -2  -1   29.96    2.22 
  -4   2  -1   34.89    1.83 
  -4   2  -1   32.18    1.74 
  -4   2  -1   34.24    2.05 
  -4   2  -1   33.61    2.16 
  -5  -2  -1    0.36    0.33 
  -5  -2  -1    0.20    0.53 
  -5  -2  -1    0.66    0.60 
  -5   2  -1    0.35    0.16 
  -5   2  -1    0.14    0.45 
  -5   2  -1   -0.20    0.40 
  -6  -2  -1   17.83    1.36 
  -6   2  -1   17.59    1.63 
  -6   2  -1   18.68    1.14 
  -6  -3   1    2.49    1.00 
  -6   3   1    1.68    0.27 
  -5  -3   1   -0.71    0.51 
  -5  -3   1    0.43    0.73 
  -5   3   1   -0.13    0.39 
  -5   3   1    0.02    0.23 
  -5   3   1   -0.23    0.33 
  -5   3   1    0.07    0.11 
  -4  -3   1    5.36    0.58 
  -4  -3   1    3.27    0.81 
  -4  -3   1    4.88    0.90 
  -4   3   1    5.50    0.84 
   4   3  -1    4.96    0.99 
  -4   3   1    5.15    0.33 
  -4   3   1    4.67    0.37 
  -4   3   1    5.17    0.39 
  -3  -3   1   32.07    1.67 
  -3  -3   1   28.18    2.20 
  -3  -3   1   29.07    2.18 
  -3   3   1   30.82    1.63 
  -3   3   1   29.85    1.66 
  -3   3   1   35.54    2.04 
   3   3  -1   31.44    2.43 
   3   3  -1   31.83    1.83 
  -2  -3   1  130.73    7.06 
  -2  -3   1  130.42    6.67 
  -2  -3   1  130.88    6.88 
  -2  -3   1  134.47    7.18 
  -2   3   1  129.01    6.75 
   2   3  -1  126.41    6.96 
   2   3  -1  133.55    7.24 
  -2   3   1  135.05    6.68 
  -2   3   1  125.04    6.65 
  -2   3   1  126.00    6.68 
   2   3  -1  131.92    6.74 
   1  -3  -1   38.24    1.96 
  -1  -3   1   27.74    2.14 
   1  -3  -1   38.39    1.96 
  -1  -3   1   36.02    2.02 
  -1  -3   1   39.84    2.24 
   1  -3  -1   39.35    1.93 
  -1  -3   1   40.32    2.08 
  -1   3   1   36.43    2.03 
  -1   3   1   34.74    2.03 
   1   3  -1   36.81    1.96 
  -1   3   1   35.68    2.05 
  -1   3   1   33.21    1.97 
  -1   3   1   37.99    2.02 
  -1   3   1   32.48    2.01 
   1   3  -1   37.61    2.05 
   1   3  -1   35.11    2.15 
   1   3  -1   28.08    2.16 
   0  -3  -1   93.31    4.83 
   0  -3  -1   91.89    4.85 
   0  -3   1   97.48    4.86 
   0  -3   1   94.18    4.77 
   0  -3   1   92.03    4.78 
   0  -3  -1   94.67    4.85 
   0  -3  -1   89.77    4.78 
   0  -3  -1   90.54    4.88 
   0  -3   1   92.17    4.86 
   0  -3  -1   91.21    4.78 
   0   3   1   91.53    4.86 
   0   3   1   92.62    4.78 
   0   3   1   95.38    4.87 
   0   3   1   90.55    4.89 
   0   3  -1   79.42    4.81 
   0   3  -1   86.68    4.77 
   0   3  -1   90.40    4.81 
   0   3   1   88.25    4.77 
   0   3  -1   92.16    4.79 
   0   3  -1   88.19    4.84 
   0   3   1   88.93    4.84 
   1  -3   1  239.40   12.03 
  -1  -3  -1  242.54   12.28 
  -1  -3  -1  235.59   11.99 
  -1  -3  -1  235.53   12.25 
   1  -3   1  230.27   11.99 
  -1  -3  -1  237.96   12.09 
  -1  -3  -1  232.15   12.00 
   1  -3   1  241.88   11.94 
  -1  -3  -1  235.24   12.18 
  -1   3  -1  232.65   11.99 
  -1   3  -1  232.81   11.95 
   1   3   1  244.26   12.26 
   1   3   1  233.12   12.07 
   1   3   1  231.09   11.98 
   1   3   1  229.05   12.27 
  -1   3  -1  230.92   12.07 
   1   3   1  241.18   12.19 
   1   3   1  228.42   11.94 
  -1   3  -1  236.09   11.88 
  -1   3  -1  238.76   12.02 
  -2  -3  -1   42.55    2.66 
  -2  -3  -1   39.98    2.77 
  -2  -3  -1   44.66    2.46 
  -2  -3  -1   39.44    2.48 
  -2  -3  -1   48.46    2.37 
  -2  -3  -1   41.33    2.73 
  -2   3  -1   43.85    2.34 
  -2   3  -1   43.27    2.45 
   2   3   1   44.82    2.84 
   2   3   1   48.09    2.66 
  -2   3  -1   45.85    2.40 
   2   3   1   40.00    2.47 
  -3  -3  -1   15.73    1.10 
  -3  -3  -1   14.10    1.29 
  -3  -3  -1   17.41    1.44 
  -3   3  -1   14.98    1.01 
  -3   3  -1   14.99    0.89 
   3   3   1   14.15    1.45 
   3   3   1   15.21    1.28 
  -3   3  -1   14.78    1.24 
   3   3   1   13.16    1.19 
  -4  -3  -1    1.87    0.47 
  -4  -3  -1    0.89    0.56 
  -4  -3  -1    2.37    0.72 
  -4   3  -1    1.28    0.35 
  -4   3  -1    1.65    0.57 
  -4   3  -1    1.74    0.66 
  -4   3  -1    1.30    0.23 
  -5  -3  -1    0.70    0.67 
  -5  -3  -1    0.53    0.62 
  -5  -3  -1    0.84    0.42 
  -5   3  -1    0.34    0.42 
  -5   3  -1    0.82    0.23 
  -5   3  -1    0.61    0.50 
  -6  -3  -1    3.24    0.65 
  -6   3  -1    1.05    0.57 
  -6   3  -1    2.03    0.36 
  -6  -4   1   -0.16    0.82 
  -6   4   1    0.03    0.23 
  -5  -4   1    3.22    0.97 
  -5  -4   1    2.33    0.94 
  -5   4   1    2.87    0.38 
  -5   4   1    3.54    0.53 
  -5   4   1    1.47    0.60 
  -4  -4   1    4.40    1.02 
  -4  -4   1    5.78    1.01 
  -4  -4   1    3.13    0.60 
  -4  -4   1    4.05    0.43 
  -4   4   1    3.76    0.48 
   4   4  -1    2.68    1.00 
   4   4  -1    4.53    0.59 
  -4   4   1    5.07    0.74 
  -4   4   1    5.03    0.51 
  -4   4   1    4.43    0.42 
  -3  -4   1   11.42    0.99 
  -3  -4   1   10.08    1.24 
  -3  -4   1   12.19    0.98 
  -3  -4   1   13.55    0.83 
  -3  -4   1   12.68    1.29 
  -3   4   1   11.78    0.80 
  -3   4   1   10.18    0.90 
   3   4  -1   11.28    0.87 
  -3   4   1   10.06    0.84 
   3   4  -1   14.50    1.45 
  -3   4   1   13.19    0.87 
  -2  -4   1    0.18    0.29 
  -2  -4   1   -0.18    0.24 
  -2  -4   1    0.31    0.21 
  -2  -4   1    0.48    0.50 
  -2  -4   1    0.30    0.21 
  -2   4   1   -0.07    0.16 
  -2   4   1    0.18    0.25 
   2   4  -1    0.20    0.29 
  -2   4   1    0.30    0.28 
  -2   4   1    0.16    0.14 
   2   4  -1    0.25    0.47 
  -2   4   1    0.54    0.23 
  -2   4   1    0.02    0.16 
   1  -4  -1   31.51    1.84 
  -1  -4   1   36.17    1.99 
   1  -4  -1   33.31    1.87 
  -1  -4   1   32.96    1.88 
   1  -4  -1   30.17    1.81 
   1  -4  -1   32.98    1.89 
  -1  -4   1   30.88    2.04 
   1  -4  -1   33.01    1.83 
  -1  -4   1   33.91    2.08 
  -1  -4   1   29.08    1.88 
   1  -4  -1   31.20    1.77 
   1   4  -1   25.85    1.95 
  -1   4   1   31.90    1.93 
  -1   4   1   32.02    1.92 
   1   4  -1   31.56    2.10 
  -1   4   1   32.14    1.84 
  -1   4   1   31.03    1.89 
   1   4  -1   29.68    1.86 
  -1   4   1   31.34    1.91 
   0  -4   1  481.74   23.94 
   0  -4  -1  489.39   23.96 
   0  -4   1  474.37   23.85 
   0  -4  -1  471.20   23.95 
   0  -4   1  467.49   23.84 
   0  -4  -1  458.18   23.99 
   0  -4  -1  464.50   23.86 
   0  -4  -1  465.48   23.85 
   0  -4   1  471.93   23.96 
   0  -4  -1  473.33   23.92 
   0   4  -1  472.80   23.91 
   0   4   1  461.47   23.92 
   0   4  -1  479.93   23.97 
   0   4   1  464.14   23.85 
   0   4   1  455.29   23.85 
   0   4  -1  476.61   23.94 
   0   4  -1  462.00   23.87 
   0   4  -1  452.37   23.84 
   0   4   1  483.44   24.03 
   0   4   1  476.83   23.98 
   1  -4   1   65.37    3.53 
  -1  -4  -1   61.86    3.75 
   1  -4   1   66.24    3.49 
  -1  -4  -1   70.08    3.70 
  -1  -4  -1   67.42    3.59 
   1  -4   1   64.55    3.60 
  -1  -4  -1   65.27    3.80 
   1  -4   1   67.84    3.64 
  -1  -4  -1   69.16    3.88 
   1   4   1   68.24    3.79 
  -1   4  -1   63.88    3.55 
   1   4   1   70.42    3.86 
  -1   4  -1   64.98    3.67 
   1   4   1   65.04    3.56 
  -1   4  -1   67.54    3.63 
   1   4   1   64.41    3.66 
  -1   4  -1   66.39    3.44 
  -1   4  -1   63.56    3.59 
  -2  -4  -1    5.28    0.90 
  -2  -4  -1    4.60    0.51 
  -2  -4  -1    4.19    0.80 
  -2  -4  -1    4.76    0.61 
  -2  -4  -1    4.50    0.73 
  -2  -4  -1    7.04    0.53 
   2   4   1    6.11    0.83 
  -2   4  -1    5.44    0.54 
  -2   4  -1    5.11    0.49 
  -2   4  -1    5.87    0.46 
   2   4   1    4.92    0.72 
  -2   4  -1    4.03    0.57 
  -3  -4  -1   25.92    1.71 
  -3  -4  -1   25.40    1.73 
  -3  -4  -1   27.60    2.08 
  -3  -4  -1   25.70    1.53 
  -3  -4  -1   25.10    1.97 
   3   4   1   28.01    2.25 
  -3   4  -1   25.51    1.53 
  -3   4  -1   26.85    1.77 
  -3   4  -1   27.13    1.62 
  -3   4  -1   25.05    1.65 
  -4  -4  -1    0.41    0.53 
  -4  -4  -1    0.27    0.37 
  -4  -4  -1    0.88    0.62 
  -4  -4  -1    0.11    0.40 
  -4  -4  -1    0.47    0.23 
  -4   4  -1   -0.21    0.25 
  -4   4  -1    0.12    0.17 
  -4   4  -1    0.63    0.35 
  -4   4  -1    0.90    0.51 
  -5  -4  -1    7.27    1.15 
  -5  -4  -1    7.01    0.92 
  -5  -4  -1    5.83    1.12 
  -5  -4  -1    5.87    0.89 
  -5   4  -1    5.69    0.95 
  -5   4  -1    7.03    0.81 
  -5   4  -1    7.45    0.62 
  -6  -4  -1    0.69    0.48 
  -6   4  -1    0.32    0.54 
  -6   4  -1    0.20    0.25 
  -6  -5   1    2.24    1.00 
  -6   5   1    1.48    0.41 
  -5  -5   1    6.30    1.26 
  -5  -5   1    7.80    1.05 
  -5  -5   1    5.60    1.21 
  -5   5   1    5.94    0.65 
   5   5  -1    3.82    1.17 
  -5   5   1    6.34    0.79 
  -4  -5   1    0.45    0.48 
  -4  -5   1   -0.04    0.22 
  -4  -5   1    0.23    0.40 
  -4  -5   1    0.52    0.52 
  -4  -5   1   -0.42    0.49 
  -4   5   1    0.08    0.23 
  -4   5   1   -0.02    0.35 
  -4   5   1   -0.05    0.33 
   4   5  -1   -0.27    0.47 
  -3  -5   1    2.58    0.53 
  -3  -5   1    2.75    0.43 
  -3  -5   1    2.28    0.80 
  -3  -5   1    4.04    0.64 
  -3  -5   1    3.32    0.86 
   3   5  -1    2.19    0.44 
  -3   5   1    3.44    0.53 
  -3   5   1    3.26    0.45 
  -3   5   1    3.49    0.44 
  -3   5   1    2.77    0.51 
  -3   5   1    3.37    0.58 
   3   5  -1    3.79    0.86 
  -2  -5   1    1.77    0.37 
  -2  -5   1    1.59    0.48 
  -2  -5   1    0.68    0.53 
  -2  -5   1    0.86    0.57 
  -2  -5   1    1.33    0.42 
   2   5  -1    1.15    0.21 
   2   5  -1   -0.27    0.51 
  -2   5   1    1.00    0.37 
  -2   5   1    0.81    0.40 
  -2   5   1    1.90    0.41 
  -2   5   1    1.23    0.30 
  -2   5   1    1.27    0.39 
   1  -5  -1   74.18    4.01 
   1  -5  -1   70.40    4.03 
   1  -5  -1   73.75    3.99 
   1  -5  -1   71.82    3.99 
  -1  -5   1   74.67    4.22 
   1  -5  -1   71.02    3.73 
   1  -5  -1   74.00    4.03 
  -1  -5   1   70.64    4.10 
   1  -5  -1   73.68    3.92 
  -1  -5   1   66.60    4.00 
  -1  -5   1   72.65    4.24 
   1   5  -1   82.79    4.32 
   1   5  -1   75.79    4.04 
   1   5  -1   71.18    4.18 
  -1   5   1   73.26    3.77 
  -1   5   1   72.17    4.10 
  -1   5   1   72.74    3.99 
  -1   5   1   75.55    4.08 
  -1   5   1   75.09    4.11 
   1   5  -1   71.84    3.96 
   0  -5   1   65.39    3.59 
   0  -5   1   56.85    3.49 
   0  -5  -1   60.75    3.46 
   0  -5  -1   62.19    3.59 
   0  -5   1   62.13    3.44 
   0  -5  -1   61.85    3.62 
   0  -5  -1   61.61    3.54 
   0  -5  -1   60.44    3.57 
   0  -5  -1   65.08    3.49 
   0  -5   1   64.96    3.62 
   0  -5   1   60.52    3.45 
   0   5  -1   63.64    3.47 
   0   5  -1   62.49    3.60 
   0   5  -1   63.27    3.54 
   0   5  -1   62.71    3.50 
   0   5   1   63.95    3.60 
   0   5   1   62.20    3.47 
   0   5   1   59.57    3.57 
   0   5  -1   62.30    3.57 
   0   5   1   62.70    3.48 
   1  -5   1   16.40    1.08 
   1  -5   1   16.17    1.16 
   1  -5   1   15.94    1.18 
  -1  -5  -1   11.93    1.20 
  -1  -5  -1   17.15    1.30 
  -1  -5  -1   16.87    1.14 
   1  -5   1   16.66    1.03 
  -1  -5  -1   17.18    1.25 
  -1  -5  -1   11.21    1.22 
   1  -5   1   15.75    0.91 
  -1   5  -1   16.36    1.17 
  -1   5  -1   13.97    1.12 
   1   5   1   11.69    1.20 
   1   5   1   15.03    1.31 
  -1   5  -1   18.72    1.14 
   1   5   1   16.46    1.22 
  -1   5  -1   17.84    1.26 
   1   5   1   16.88    1.12 
  -1   5  -1   14.96    0.98 
   1   5   1   15.65    1.06 
  -2  -5  -1    5.11    0.97 
  -2  -5  -1    4.97    0.74 
  -2  -5  -1    5.28    0.58 
  -2  -5  -1    5.22    0.69 
  -2  -5  -1    6.33    0.60 
   2  -5   1    4.68    0.49 
  -2  -5  -1    5.76    0.85 
   2   5   1    4.87    0.92 
  -2   5  -1    5.51    0.53 
  -2   5  -1    4.13    0.53 
  -2   5  -1    5.72    0.39 
  -2   5  -1    6.27    0.72 
   2   5   1    5.85    0.98 
  -2   5  -1    4.81    0.58 
  -3  -5  -1    0.69    0.53 
  -3  -5  -1    0.24    0.25 
  -3  -5  -1    0.55    0.41 
  -3  -5  -1    0.15    0.37 
  -3  -5  -1    0.25    0.28 
   3   5   1    0.39    0.49 
  -3   5  -1   -0.36    0.26 
  -3   5  -1    0.09    0.34 
  -3   5  -1   -0.04    0.21 
  -3   5  -1    0.14    0.29 
  -4  -5  -1    1.63    0.76 
  -4  -5  -1    1.73    0.77 
  -4  -5  -1    1.03    0.46 
  -4  -5  -1    1.13    0.66 
  -4  -5  -1    1.50    0.38 
  -4   5  -1    1.20    0.49 
  -4   5  -1    1.37    0.52 
  -4   5  -1    0.82    0.31 
  -4   5  -1    0.63    0.35 
  -5  -5  -1    0.65    0.62 
  -5  -5  -1    0.10    0.45 
  -5  -5  -1   -0.43    0.39 
  -5  -5  -1   -0.09    0.61 
  -5   5  -1    0.15    0.26 
  -5   5  -1   -0.15    0.51 
  -6  -5  -1    4.71    0.94 
  -6  -5  -1    4.07    1.12 
  -6   5  -1    4.57    0.63 
  -6   5  -1    3.94    0.89 
  -6  -6   1    1.10    0.96 
  -6   6   1    0.21    0.35 
  -5  -6   1    0.99    0.83 
  -5  -6   1    0.64    0.81 
  -5  -6   1    1.34    0.61 
  -5   6   1    0.52    0.51 
  -5   6   1   -0.13    0.27 
   5   6  -1    0.63    0.96 
  -4  -6   1    9.76    1.41 
  -4  -6   1   10.33    1.49 
  -4  -6   1   10.88    0.96 
  -4  -6   1   10.22    1.10 
  -4   6   1   12.35    1.09 
   4   6  -1    8.62    1.42 
  -4   6   1    9.77    0.93 
  -4   6   1   10.53    0.88 
  -3  -6   1    7.75    1.17 
  -3  -6   1    8.11    1.25 
  -3  -6   1    7.80    0.88 
  -3  -6   1    9.05    0.83 
  -3   6   1    8.71    0.58 
  -3   6   1    8.58    0.91 
   3   6  -1    8.23    1.23 
  -3   6   1    8.37    0.82 
  -2  -6   1   82.49    4.66 
  -2  -6   1   81.14    4.60 
   2  -6  -1   82.24    4.45 
  -2  -6   1   83.77    4.98 
  -2   6   1   87.30    4.72 
   2   6  -1   78.93    5.05 
  -2   6   1   85.57    4.56 
   2   6  -1   79.55    4.62 
   2   6  -1   83.25    4.39 
  -2   6   1   82.33    4.64 
  -2   6   1   89.14    4.73 
   1  -6  -1   11.36    0.95 
  -1  -6   1   11.70    1.02 
  -1  -6   1   10.47    1.10 
   1  -6  -1   12.42    0.72 
  -1  -6   1   10.81    0.98 
   1  -6  -1   11.19    0.99 
   1  -6  -1   10.45    0.87 
   1  -6  -1   12.87    1.02 
   1  -6  -1   12.38    1.03 
  -1  -6   1    8.73    1.06 
  -1   6   1   13.39    1.10 
   1   6  -1   12.14    1.22 
  -1   6   1   11.66    1.03 
  -1   6   1   11.34    0.77 
  -1   6   1   11.10    1.06 
   1   6  -1   12.09    0.94 
   1   6  -1   11.29    0.98 
  -1   6   1   11.17    0.95 
   0  -6  -1   24.34    1.72 
   0  -6  -1   28.29    1.91 
   0  -6   1   28.82    1.75 
   0  -6   1   24.85    1.78 
   0  -6   1   25.31    1.72 
   0  -6  -1   27.32    1.88 
   0  -6  -1   28.25    1.94 
   0  -6  -1   25.59    1.74 
   0  -6   1   27.75    1.90 
   0   6  -1   24.18    1.83 
   0   6  -1   27.43    1.80 
   0   6  -1   27.65    1.82 
   0   6  -1   26.40    1.74 
   0   6  -1   29.14    1.94 
   0   6   1   28.33    1.79 
   0   6   1   27.38    1.89 
   0   6   1   28.30    1.78 
   0   6   1   27.64    1.88 
  -1  -6  -1   10.62    1.09 
  -1  -6  -1   12.43    1.00 
   1  -6   1   11.45    0.93 
   1  -6   1   11.99    1.00 
  -1  -6  -1   11.89    1.20 
   1  -6   1   11.30    0.74 
  -1  -6  -1   12.47    1.14 
   1  -6   1   10.12    0.86 
  -1   6  -1   11.35    0.84 
  -1   6  -1   11.45    1.02 
  -1   6  -1   12.85    1.12 
   1   6   1   12.68    1.11 
   1   6   1   12.29    1.42 
  -1   6  -1   12.63    0.98 
   1   6   1   12.45    0.98 
   1   6   1   11.73    0.92 
  -1   6  -1   12.55    1.07 
   1   6   1   11.12    1.17 
  -2  -6  -1    4.68    0.85 
  -2  -6  -1    5.75    0.65 
   2  -6   1    5.91    0.62 
  -2   6  -1    4.66    0.67 
  -2   6  -1    7.25    0.83 
   2   6   1    7.32    0.68 
  -2   6  -1    8.64    0.78 
   2   6   1    5.99    1.02 
  -3  -6  -1    9.66    0.86 
  -3  -6  -1    9.17    0.92 
  -3  -6  -1   11.97    1.32 
  -3  -6  -1   10.64    1.34 
  -3   6  -1    9.79    0.88 
  -3   6  -1    9.17    1.00 
  -3   6  -1    9.22    0.83 
  -3   6  -1    9.67    0.91 
   3   6   1   10.46    1.43 
  -4  -6  -1    4.64    1.01 
  -4  -6  -1    4.90    0.64 
  -4  -6  -1    4.86    1.19 
  -4  -6  -1    5.08    0.76 
  -4   6  -1    3.79    0.62 
  -4   6  -1    3.91    0.71 
  -4   6  -1    4.11    0.68 
  -4   6  -1    5.39    0.82 
  -5  -6  -1    2.43    0.73 
  -5  -6  -1    4.03    0.92 
  -5  -6  -1    3.02    1.02 
  -5  -6  -1    3.39    1.06 
  -5   6  -1    2.40    0.73 
  -5   6  -1    2.66    0.59 
  -6  -6  -1    0.27    0.75 
  -6  -6  -1   -0.27    0.51 
  -6   6  -1    0.52    0.44 
  -6   6  -1   -0.09    0.60 
  -6  -7   1    0.26    0.91 
  -6   7   1    0.68    0.97 
  -6   7   1    0.09    0.46 
  -5  -7   1    4.21    0.88 
  -5  -7   1    3.78    1.23 
  -5  -7   1    3.42    1.19 
  -5   7   1    3.04    0.67 
   5   7  -1    3.71    1.37 
  -5   7   1    3.71    0.87 
  -4  -7   1    2.54    1.00 
  -4  -7   1    2.29    0.71 
  -4  -7   1    2.11    1.02 
  -4  -7   1    2.01    0.54 
  -4   7   1    2.67    0.34 
  -4   7   1    2.71    0.74 
   4   7  -1    0.93    0.95 
  -4   7   1    3.27    0.65 
  -3  -7   1    3.51    1.02 
  -3  -7   1    2.04    0.60 
  -3  -7   1    4.63    0.68 
  -3  -7   1    6.01    1.15 
   3   7  -1    3.78    1.03 
  -3   7   1    3.68    0.72 
  -3   7   1    3.86    0.66 
  -2  -7   1   15.02    1.57 
  -2  -7   1   15.39    1.26 
   2  -7  -1   17.83    1.18 
  -2  -7   1   12.85    1.19 
  -2  -7   1   15.38    1.50 
   2   7  -1   15.65    1.22 
  -2   7   1   15.29    1.29 
   2   7  -1   15.31    1.58 
  -2   7   1   14.89    1.31 
   2   7  -1   15.40    1.07 
  -1  -7   1  186.51    9.48 
   1  -7  -1  186.91    9.39 
  -1  -7   1  169.85    9.25 
   1  -7  -1  169.66    8.93 
   1  -7  -1  171.31    9.15 
   1  -7  -1  175.27    9.33 
  -1  -7   1  169.98    9.35 
   1  -7  -1  173.93    9.23 
   1  -7  -1  166.98    9.30 
  -1  -7   1  175.38    9.54 
  -1   7   1  172.08    9.24 
  -1   7   1  178.44    9.42 
   1   7  -1  180.12    9.55 
   1   7  -1  177.48    9.20 
  -1   7   1  172.86    9.00 
   1   7  -1  170.87    9.25 
   0  -7  -1   25.01    1.91 
   0  -7  -1   23.92    1.91 
   0  -7  -1   26.04    1.79 
   0  -7   1   22.41    1.80 
   0  -7   1   27.95    1.96 
   0  -7  -1   27.52    2.01 
   0  -7  -1   28.26    1.82 
   0  -7   1   25.69    1.80 
   0  -7   1   26.98    1.78 
   0   7  -1   28.38    1.84 
   0   7   1   27.98    2.00 
   0   7  -1   25.95    1.85 
   0   7  -1   29.78    2.00 
   0   7   1   29.04    1.86 
   0   7   1   29.84    1.87 
  -1  -7  -1    4.34    0.89 
   1  -7   1    9.85    0.88 
   1  -7   1    9.32    0.81 
  -1  -7  -1    9.00    1.08 
  -1  -7  -1   13.16    1.18 
  -1  -7  -1    8.83    0.91 
  -1   7  -1    9.54    0.97 
   1   7   1    8.30    1.07 
  -1   7  -1   11.12    1.06 
  -1   7  -1    8.20    0.87 
   1   7   1   13.27    1.15 
   1   7   1    6.45    0.77 
  -2  -7  -1    6.43    1.01 
  -2  -7  -1    7.51    0.80 
  -2  -7  -1    6.62    1.02 
   2  -7   1    6.26    0.74 
   2  -7   1    6.48    0.71 
  -2   7  -1    5.98    0.77 
   2   7   1    7.36    0.74 
   2   7   1    5.72    0.97 
   2   7   1    6.25    0.61 
  -2   7  -1    6.98    0.53 
  -2   7  -1    5.81    0.78 
  -2   7  -1    6.13    0.86 
  -3  -7  -1    1.65    0.67 
   3  -7   1    1.81    0.26 
  -3  -7  -1    1.60    0.47 
  -3  -7  -1    1.86    0.77 
  -3  -7  -1    1.64    0.51 
  -3   7  -1    2.16    0.41 
  -3   7  -1    2.34    0.55 
   3   7   1    0.45    0.57 
  -3   7  -1    1.44    0.24 
  -3   7  -1    1.34    0.59 
  -3   7  -1    2.65    0.59 
  -4  -7  -1    0.25    0.68 
  -4  -7  -1   -0.01    0.36 
  -4  -7  -1   -0.27    0.46 
  -4  -7  -1    0.34    0.43 
  -4   7  -1    0.27    0.36 
  -4   7  -1   -0.39    0.32 
  -4   7  -1   -0.67    0.42 
   4   7   1    0.27    0.62 
  -4   7  -1    0.21    0.50 
  -5  -7  -1    1.98    0.77 
  -5  -7  -1    0.94    0.67 
  -5  -7  -1    2.65    1.02 
  -5  -7  -1    0.53    0.78 
  -5   7  -1    1.97    0.79 
  -5   7  -1    2.91    0.64 
  -6  -7  -1    0.83    0.90 
  -6  -7  -1    1.21    0.80 
  -6   7  -1    0.40    0.73 
  -6   7  -1    0.16    0.46 
  -6  -8   1    1.44    1.04 
  -6   8   1    0.09    0.49 
  -5  -8   1    0.49    0.64 
  -5  -8   1    0.66    0.93 
   5   8  -1    1.19    1.12 
  -5   8   1    0.59    0.64 
  -5   8   1    0.54    0.50 
  -4  -8   1    4.27    1.30 
  -4  -8   1    4.33    1.01 
  -4  -8   1    4.44    0.85 
  -4   8   1    4.20    0.89 
  -4   8   1    4.37    0.81 
   4   8  -1    0.96    1.06 
  -3  -8   1   19.28    1.95 
  -3  -8   1   17.45    1.53 
  -3  -8   1   16.55    1.78 
  -3  -8   1   20.84    1.54 
  -3   8   1   18.67    1.63 
  -3   8   1   17.86    1.52 
   3   8  -1   19.80    2.02 
   2  -8  -1   49.40    2.88 
   2  -8  -1   53.27    3.10 
  -2  -8   1   47.99    3.17 
  -2  -8   1   50.96    3.65 
  -2  -8   1   57.22    3.66 
  -2   8   1   54.31    3.29 
  -2   8   1   52.15    3.35 
   2   8  -1   53.23    3.19 
   2   8  -1   52.71    3.00 
   2   8  -1   55.33    3.67 
   1  -8  -1    6.34    0.87 
  -1  -8   1    6.48    0.82 
   1  -8  -1    6.47    0.86 
   1  -8  -1    5.82    0.54 
  -1  -8   1    7.73    0.99 
  -1  -8   1    6.10    0.88 
   1  -8  -1    6.65    0.80 
   1  -8  -1    7.46    0.76 
  -1   8   1    6.36    0.63 
  -1   8   1    4.61    0.73 
   1   8  -1    7.71    0.80 
   1   8  -1    6.28    0.81 
   1   8  -1    2.89    0.80 
  -1   8   1    5.44    0.83 
   0  -8  -1   41.14    2.61 
   0  -8  -1   39.54    2.39 
   0  -8   1   34.27    2.52 
   0  -8   1   37.41    2.40 
   0  -8  -1   37.30    2.41 
   0  -8  -1   32.57    2.58 
   0  -8  -1   35.43    2.53 
   0  -8   1   36.26    2.33 
   0   8  -1   35.40    2.43 
   0   8  -1   36.47    2.52 
   0   8  -1   38.95    2.43 
   0   8   1   38.11    2.59 
   0   8   1   38.09    2.42 
   0   8   1   37.05    2.40 
   1  -8   1   47.28    2.64 
  -1  -8  -1   48.09    3.30 
  -1  -8  -1   50.12    3.01 
  -1  -8  -1   43.99    3.14 
  -1  -8  -1   51.02    3.22 
   1  -8   1   51.17    3.07 
   1  -8   1   49.87    2.92 
   1  -8   1   46.87    2.83 
  -1   8  -1   47.80    3.13 
   1   8   1   46.18    2.93 
   1   8   1   44.45    3.07 
  -1   8  -1   42.24    2.98 
  -1   8  -1   46.57    2.94 
   1   8   1   52.83    2.93 
  -1   8  -1   49.28    2.82 
   1   8   1   48.34    3.18 
   2  -8   1   13.04    1.11 
  -2  -8  -1    7.41    1.11 
  -2  -8  -1   13.15    1.14 
  -2  -8  -1   10.15    1.33 
   2  -8   1   13.76    1.11 
   2   8   1   12.91    1.40 
   2   8   1    9.51    0.97 
  -2   8  -1    9.90    1.17 
  -2   8  -1   10.19    0.78 
   2   8   1   11.64    0.92 
  -2   8  -1   10.85    1.11 
  -3  -8  -1    0.44    0.38 
   3  -8   1    0.01    0.24 
  -3  -8  -1   -0.27    0.56 
  -3  -8  -1    1.90    0.82 
  -3   8  -1    0.12    0.14 
  -3   8  -1   -0.14    0.34 
  -3   8  -1   -0.41    0.41 
  -3   8  -1   -0.09    0.18 
   3   8   1    0.26    0.57 
  -4  -8  -1   15.21    1.76 
  -4  -8  -1   11.58    1.23 
  -4  -8  -1   12.46    1.79 
  -4   8  -1   10.46    1.33 
  -4   8  -1   13.20    0.81 
  -4   8  -1   11.69    1.20 
   4   8   1   12.27    1.74 
  -5  -8  -1    0.76    0.63 
  -5  -8  -1    0.54    0.80 
  -5  -8  -1    0.39    0.58 
  -5   8  -1    0.02    0.62 
  -5   8  -1   -0.56    0.36 
  -6  -8  -1    4.77    1.36 
  -6  -8  -1    2.64    0.93 
  -6   8  -1    0.71    0.55 
  -6   8  -1    1.79    0.87 
  -6  -9   1   -0.31    0.93 
  -6  -9   1    0.49    0.79 
  -6   9   1    0.14    0.55 
  -5  -9   1    1.61    1.05 
  -5  -9   1    0.80    0.66 
  -5   9   1    0.92    0.59 
  -5   9   1    1.10    0.74 
   5   9  -1    0.49    1.14 
  -4  -9   1    0.14    0.66 
  -4  -9   1    0.94    0.92 
  -4  -9   1    0.86    0.59 
  -4   9   1    0.62    0.69 
   4   9  -1   -0.14    0.93 
  -4   9   1    0.25    0.50 
  -3  -9   1    2.57    1.12 
  -3  -9   1    3.92    1.15 
  -3  -9   1    3.28    0.73 
  -3   9   1    4.17    1.02 
  -3   9   1    2.89    0.74 
   3   9  -1    3.23    1.04 
   2  -9  -1   25.66    1.58 
  -2  -9   1   19.72    1.89 
   2  -9  -1   27.35    1.84 
   2  -9  -1   24.74    1.84 
  -2  -9   1   26.04    1.90 
  -2  -9   1   27.10    2.39 
  -2  -9   1   25.08    2.17 
   2   9  -1   22.39    1.65 
   2   9  -1   25.92    2.31 
  -2   9   1   24.55    1.95 
  -2   9   1   23.94    2.01 
   2   9  -1   25.71    1.86 
   1  -9  -1   52.07    2.88 
  -1  -9   1   45.08    3.41 
  -1  -9   1   49.25    3.31 
   1  -9  -1   54.56    3.14 
   1  -9  -1   51.37    3.20 
  -1  -9   1   56.76    3.69 
   1  -9  -1   52.92    3.34 
   1  -9  -1   49.63    3.28 
  -1  -9   1   54.24    3.26 
   1   9  -1   50.70    3.21 
   1   9  -1   57.04    3.51 
   1   9  -1   52.86    3.15 
  -1   9   1   48.88    3.19 
  -1   9   1   50.94    2.97 
  -1   9   1   48.53    3.38 
   0  -9  -1   14.13    1.37 
   0  -9  -1   13.92    1.23 
   0  -9  -1   13.71    1.48 
   0  -9  -1   12.53    1.23 
   0  -9   1   13.87    1.39 
   0  -9   1   13.47    1.19 
   0  -9  -1   12.18    1.38 
   0  -9   1   15.58    1.26 
   0   9   1   14.63    1.28 
   0   9  -1   14.47    1.29 
   0   9   1   15.63    1.32 
   0   9  -1   13.58    1.41 
   0   9  -1   12.36    1.26 
   0   9   1   13.06    1.42 
   1  -9   1    1.91    0.39 
  -1  -9  -1    2.07    0.70 
  -1  -9  -1    1.97    0.72 
   1  -9   1    2.15    0.68 
   1  -9   1    3.66    0.66 
   1  -9   1    2.62    0.59 
  -1  -9  -1    4.23    0.99 
   1  -9   1    2.41    0.54 
  -1  -9  -1    2.58    0.67 
  -1   9  -1    1.84    0.60 
   1   9   1    4.45    0.64 
  -1   9  -1    2.53    0.75 
  -1   9  -1    2.66    0.54 
   1   9   1    1.46    0.58 
   1   9   1    2.26    0.68 
   1   9   1    1.40    0.50 
  -1   9  -1    1.59    0.55 
  -2  -9  -1   12.66    1.28 
  -2  -9  -1   14.81    1.56 
   2  -9   1   15.52    1.07 
   2  -9   1   19.03    1.40 
   2  -9   1   13.93    1.32 
  -2  -9  -1   13.57    1.61 
   2   9   1   13.87    1.25 
  -2   9  -1   15.99    1.43 
   2   9   1   12.50    1.61 
  -2   9  -1   14.98    1.03 
   2   9   1   13.86    1.12 
  -2   9  -1   13.48    1.39 
   3  -9   1   13.88    1.11 
  -3  -9  -1   14.55    1.85 
  -3  -9  -1   14.21    1.71 
  -3  -9  -1   13.66    1.33 
  -3   9  -1   13.48    1.38 
   3   9   1   12.94    1.69 
  -3   9  -1   14.91    1.52 
  -3   9  -1   14.71    0.86 
  -3   9  -1   14.02    0.87 
  -4  -9  -1    1.60    0.92 
  -4  -9  -1    3.09    0.95 
  -4  -9  -1    2.63    1.42 
  -4   9  -1    1.31    0.80 
   4   9   1    3.35    1.14 
  -4   9  -1    1.20    0.62 
  -5  -9  -1    0.96    0.77 
  -5  -9  -1    1.27    0.91 
  -5   9  -1    0.98    0.83 
  -5   9  -1    1.35    0.66 
  -6  -9  -1    2.18    0.96 
  -6  -9  -1    1.73    1.19 
  -6   9  -1    1.35    0.74 
  -5 -10   1   -0.16    0.60 
  -5  10   1    0.07    0.56 
   5  10  -1   -0.20    0.98 
  -5  10   1    0.40    0.75 
  -4 -10   1    2.53    1.15 
  -4  10   1    2.25    0.78 
   4  10  -1    2.73    1.11 
  -4  10   1    3.58    1.06 
   3 -10  -1    5.85    0.69 
  -3 -10   1    7.96    1.38 
  -3 -10   1    8.22    1.09 
  -3 -10   1    7.23    1.24 
   3  10  -1    6.47    1.48 
  -3  10   1    4.09    1.11 
   3  10  -1    6.15    0.63 
  -3  10   1    7.97    1.11 
  -2 -10   1    4.65    1.19 
   2 -10  -1    6.67    0.72 
  -2 -10   1    7.09    1.08 
   2 -10  -1    6.95    0.95 
  -2 -10   1    5.18    1.29 
   2 -10  -1    7.19    0.88 
  -2 -10   1    8.56    1.01 
   2  10  -1    6.82    1.17 
   2  10  -1    7.39    0.80 
  -2  10   1    5.99    1.09 
   2  10  -1    6.56    0.92 
   1 -10  -1   16.98    1.55 
   1 -10  -1   15.16    1.11 
  -1 -10   1   12.39    1.50 
  -1 -10   1   14.47    1.68 
   1 -10  -1   17.40    1.46 
   1 -10  -1   16.03    1.34 
  -1 -10   1   14.73    1.52 
  -1 -10   1   14.93    1.43 
   1 -10  -1   14.65    1.51 
  -1  10   1   17.61    1.68 
   1  10  -1   13.84    1.31 
   1  10  -1   17.87    1.50 
   1  10  -1   14.93    1.61 
  -1  10   1   18.03    1.27 
   0 -10   1   21.07    1.58 
   0 -10  -1   18.68    1.78 
   0 -10   1   21.83    1.99 
   0 -10  -1   17.94    1.54 
   0 -10   1   19.00    1.61 
   0 -10   1   21.39    1.83 
   0 -10  -1   17.91    1.60 
   0 -10  -1   20.93    1.88 
   0 -10  -1   18.63    1.74 
   0  10   1   21.95    1.69 
   0  10  -1   16.81    1.75 
   0  10  -1   20.91    1.71 
   0  10  -1   20.65    1.67 
   0  10   1   20.60    1.65 
   0  10   1   20.18    1.84 
   1 -10   1   12.69    1.48 
   1 -10   1   17.35    1.32 
   1 -10   1   15.55    1.06 
  -1 -10  -1   12.11    1.55 
  -1 -10  -1   14.68    1.44 
  -1 -10  -1   17.65    1.65 
  -1 -10  -1   14.13    1.39 
  -1 -10  -1   16.39    1.60 
   1 -10   1   12.77    1.26 
   1 -10   1   13.65    1.44 
   1  10   1   16.45    1.36 
   1  10   1   17.43    1.65 
   1  10   1   12.64    1.27 
   1  10   1   14.62    1.53 
  -1  10  -1   13.95    1.44 
  -1  10  -1   13.98    1.24 
  -1  10  -1   15.08    1.58 
  -2 -10  -1    0.86    0.64 
  -2 -10  -1    3.33    0.89 
   2 -10   1    3.74    0.54 
  -2 -10  -1    3.34    1.11 
   2 -10   1    2.80    0.67 
  -2 -10  -1    3.48    0.81 
   2 -10   1    2.80    0.68 
  -2  10  -1    2.96    0.78 
  -2  10  -1    1.82    0.43 
  -2  10  -1    3.34    0.98 
   2  10   1    3.39    0.68 
   2  10   1    3.65    1.05 
  -3 -10  -1    1.76    0.87 
  -3 -10  -1    2.22    0.71 
  -3 -10  -1    1.37    0.88 
   3 -10   1    2.16    0.54 
   3  10   1    2.40    1.00 
  -3  10  -1    2.43    0.77 
  -3  10  -1    3.03    1.00 
  -4 -10  -1    3.28    1.10 
  -4 -10  -1    3.41    1.07 
  -4  10  -1    3.87    1.07 
  -4  10  -1    3.85    0.91 
   4  10   1    5.22    1.46 
  -5 -10  -1    0.51    0.73 
  -5 -10  -1   -0.24    0.78 
  -5  10  -1    0.31    0.56 
  -5  10  -1    0.20    0.75 
  -5 -11   1    6.93    1.68 
  -5  11   1    6.62    1.20 
  -5  11   1    4.79    1.27 
   5  11  -1    6.34    1.94 
  -4 -11   1   14.38    1.93 
  -4  11   1   20.09    1.94 
   4  11  -1   12.22    1.94 
  -4  11   1   13.85    1.60 
  -3 -11   1   13.66    1.64 
   3 -11  -1   13.68    1.26 
  -3 -11   1   17.66    1.63 
  -3 -11   1   16.35    1.93 
  -3  11   1   17.29    1.70 
   3  11  -1   16.37    1.18 
   3  11  -1   13.74    1.89 
  -3  11   1   18.80    1.85 
   2 -11  -1   13.09    1.07 
  -2 -11   1   10.47    1.59 
  -2 -11   1   14.50    1.48 
  -2 -11   1   11.06    1.33 
   2 -11  -1   12.79    1.34 
   2 -11  -1   12.05    1.34 
  -2 -11   1   12.29    1.67 
   2  11  -1   11.17    1.66 
   2  11  -1   13.26    1.32 
  -2  11   1   14.51    1.63 
   1 -11  -1   17.28    1.66 
  -1 -11   1   15.21    1.60 
  -1 -11   1   14.37    1.65 
   1 -11  -1   16.47    1.18 
  -1 -11   1   15.87    1.81 
   1 -11  -1   16.92    1.51 
  -1 -11   1   16.22    1.53 
   1 -11  -1   16.52    1.42 
   1 -11  -1   14.11    1.56 
   1  11  -1   15.15    1.70 
  -1  11   1   16.10    1.74 
   1  11  -1   16.94    1.55 
  -1  11   1   17.64    1.33 
   1  11  -1   14.87    1.41 
   0 -11  -1    1.56    0.64 
   0 -11  -1    1.91    0.62 
   0 -11  -1    1.19    0.54 
   0 -11   1    1.85    0.89 
   0 -11   1    0.02    0.27 
   0 -11   1    1.37    0.59 
   0 -11  -1    1.50    0.62 
   0 -11   1    2.54    0.83 
   0 -11  -1    1.06    0.71 
   0 -11  -1    0.05    0.65 
   0  11  -1    1.24    0.61 
   0  11   1    1.79    0.68 
   0  11   1    0.94    0.55 
   0  11   1    1.33    0.79 
   0  11  -1    2.63    0.84 
   0  11  -1    0.84    0.57 
  -1 -11  -1    3.52    0.83 
   1 -11   1    2.38    0.66 
  -1 -11  -1    2.82    0.98 
   1 -11   1    3.43    0.70 
   1 -11   1    2.65    0.48 
  -1 -11  -1    1.67    0.65 
   1 -11   1    4.16    0.99 
  -1 -11  -1    2.02    0.73 
  -1 -11  -1    2.79    0.93 
   1 -11   1    4.17    0.92 
  -1  11  -1    3.00    0.67 
   1  11   1    3.39    0.78 
   1  11   1    3.32    0.74 
  -1  11  -1    2.92    0.94 
   1  11   1    2.28    0.90 
   1  11   1    1.61    0.78 
   2 -11   1   10.34    0.92 
  -2 -11  -1    8.70    1.30 
   2 -11   1    9.05    1.11 
  -2 -11  -1    6.19    1.25 
  -2 -11  -1    7.50    1.33 
  -2 -11  -1    7.40    1.10 
   2 -11   1    8.74    1.16 
  -2  11  -1    6.60    1.13 
   2  11   1    8.47    0.93 
  -2  11  -1    9.25    0.83 
  -2  11  -1   11.42    1.44 
   2  11   1    9.19    1.01 
   2  11   1    7.40    1.25 
  -3 -11  -1   10.22    1.72 
  -3 -11  -1   18.69    1.64 
   3 -11   1   14.74    1.34 
  -3 -11  -1   17.28    1.88 
   3  11   1   15.23    1.16 
  -3  11  -1   18.43    1.84 
   3  11   1   15.48    2.03 
  -3  11  -1   11.31    1.49 
  -4 -11  -1    0.72    0.78 
  -4 -11  -1    0.17    0.67 
  -4  11  -1    1.26    0.88 
  -4  11  -1    0.73    0.61 
   4  11   1    0.36    0.72 
  -5 -11  -1    2.37    1.29 
  -5  11  -1    1.86    1.04 
  -5  11  -1    1.07    0.78 
  -5 -12   1    7.39    1.79 
  -5 -12   1    6.23    1.45 
   5  12  -1    3.66    1.60 
  -5  12   1    6.42    1.39 
  -4 -12   1    2.39    0.95 
  -4 -12   1   -0.32    0.59 
   4  12  -1    0.57    1.14 
  -4  12   1    0.66    0.83 
  -3 -12   1    9.32    1.38 
   3 -12  -1    6.03    0.92 
  -3 -12   1    7.70    1.54 
  -3  12   1    8.09    1.40 
   3  12  -1    8.28    0.85 
   3  12  -1    9.41    1.55 
   3  12  -1    7.23    1.03 
  -2 -12   1    0.54    0.61 
   2 -12  -1    1.12    0.47 
  -2 -12   1    1.27    0.74 
   2 -12  -1    0.22    0.62 
   2 -12  -1    1.14    0.69 
  -2 -12   1    1.19    0.72 
  -2  12   1    1.02    0.72 
   2  12  -1    1.55    0.57 
   2  12  -1    0.42    0.84 
   2  12  -1    0.89    0.63 
  -1 -12   1    0.83    0.55 
   1 -12  -1    1.02    0.38 
  -1 -12   1    1.07    0.69 
   1 -12  -1    0.45    0.61 
  -1 -12   1    0.89    0.55 
   1 -12  -1    0.58    0.58 
   1 -12  -1    1.00    0.73 
   1 -12  -1    0.59    0.46 
  -1 -12   1    1.12    0.89 
   1  12  -1    0.23    0.47 
   1  12  -1    1.14    0.69 
  -1  12   1    0.97    0.47 
   1  12  -1    0.64    0.75 
  -1  12   1   -0.03    0.71 
   0 -12   1    1.91    0.69 
   0 -12   1    0.21    0.78 
   0 -12  -1    1.31    0.67 
   0 -12  -1    1.04    0.74 
   0 -12  -1    0.39    0.47 
   0 -12   1    1.57    0.84 
   0 -12   1    0.89    0.75 
   0 -12  -1    0.55    0.58 
   0 -12   1    0.46    0.33 
   0 -12  -1    1.36    0.73 
   0  12   1    1.45    0.89 
   0  12  -1    1.52    0.66 
   0  12  -1    0.68    0.67 
   0  12  -1    0.00    0.69 
   0  12   1    1.80    0.64 
   0  12   1    0.66    0.49 
   1 -12   1   -0.48    0.39 
   1 -12   1    0.79    0.70 
  -1 -12  -1   -0.04    0.61 
   1 -12   1    0.63    0.71 
  -1 -12  -1    0.02    0.70 
  -1 -12  -1    0.32    0.63 
   1 -12   1   -0.16    0.43 
   1 -12   1    0.15    0.32 
  -1 -12  -1   -0.34    0.39 
  -1 -12  -1    0.68    0.60 
   1  12   1    0.55    0.54 
  -1  12  -1   -0.21    0.48 
  -1  12  -1    0.18    0.45 
   1  12   1   -0.15    0.50 
   1  12   1    0.64    0.70 
   1  12   1   -0.08    0.55 
  -2 -12  -1    1.76    0.85 
   2 -12   1    0.13    0.53 
   2 -12   1    1.32    0.48 
  -2 -12  -1    1.24    0.62 
   2 -12   1    0.37    0.58 
  -2 -12  -1    0.53    0.74 
  -2 -12  -1    1.28    0.79 
   2  12   1    0.05    0.69 
  -2  12  -1    0.12    0.76 
  -2  12  -1   -0.23    0.54 
   2  12   1    0.92    0.61 
  -2  12  -1   -0.07    0.34 
   2  12   1    0.53    0.45 
  -3 -12  -1    1.68    1.03 
   3 -12   1    0.90    0.58 
  -3  12  -1    1.00    0.73 
   3  12   1    0.74    0.42 
   3  12   1    3.10    1.28 
  -3  12  -1    1.19    0.88 
   3  12   1    0.76    0.60 
  -4 -12  -1   12.12    1.76 
  -4  12  -1   12.85    1.72 
  -4  12  -1   11.63    1.61 
  -5 -12  -1    9.10    1.81 
  -5  12  -1    5.31    1.43 
  -5 -13   1    0.77    1.24 
  -5 -13   1    0.86    0.90 
  -5  13   1    0.09    0.94 
   5  13  -1    0.50    1.07 
  -4 -13   1    3.10    1.27 
  -4 -13   1    4.66    1.31 
  -4  13   1    4.32    1.32 
   4  13  -1    3.87    1.56 
  -3 -13   1   13.84    2.10 
  -3 -13   1   17.67    1.93 
   3  13  -1   16.76    1.69 
   3  13  -1   14.13    2.16 
  -3  13   1   18.03    2.01 
  -2 -13   1   14.66    1.62 
   2 -13  -1   15.94    1.64 
   2 -13  -1   14.54    1.32 
  -2 -13   1   17.05    1.85 
   2 -13  -1   14.11    1.51 
  -2 -13   1   13.71    1.80 
  -2  13   1   16.18    1.79 
   2  13  -1   14.35    1.84 
   2  13  -1   15.05    1.50 
   1 -13  -1    7.30    0.78 
   1 -13  -1    6.65    1.01 
  -1 -13   1    5.28    1.03 
  -1 -13   1    4.51    1.10 
  -1 -13   1    6.64    1.52 
  -1 -13   1    7.03    1.04 
   1 -13  -1    5.71    1.17 
   1 -13  -1    6.29    1.29 
   1  13  -1    8.16    1.09 
  -1  13   1    8.11    1.39 
   1  13  -1    7.10    1.37 
   1  13  -1    6.95    1.06 
  -1  13   1    8.10    0.96 
   0 -13  -1    0.75    0.51 
   0 -13  -1    0.87    0.84 
   0 -13   1   -0.06    0.65 
   0 -13   1    1.03    0.91 
   0 -13  -1   -0.67    0.65 
   0 -13  -1    0.96    0.72 
   0 -13   1    0.79    0.54 
   0 -13   1    0.52    0.56 
   0  13  -1    0.55    0.85 
   0  13   1    0.50    0.64 
   0  13  -1    0.56    0.64 
   0  13   1   -0.13    0.58 
   0  13   1    1.07    0.93 
   0  13  -1    0.24    0.58 
   1 -13   1    1.11    0.80 
  -1 -13  -1   -0.01    0.55 
   1 -13   1    0.09    0.47 
  -1 -13  -1    0.99    0.75 
  -1 -13  -1    1.48    0.97 
  -1 -13  -1    0.31    0.61 
   1 -13   1    0.98    0.81 
   1 -13   1   -0.47    0.28 
   1  13   1    0.03    0.74 
  -1  13  -1    1.28    0.92 
   1  13   1    1.54    0.70 
  -1  13  -1    0.95    0.57 
   1  13   1    0.56    0.53 
   1  13   1    0.09    0.54 
  -2 -13  -1   27.25    2.18 
   2 -13   1   27.26    2.26 
   2 -13   1   22.12    2.03 
   2 -13   1   22.36    1.71 
  -2 -13  -1   26.11    2.30 
  -2 -13  -1   17.66    2.14 
  -2  13  -1   21.92    1.61 
   2  13   1   19.90    2.31 
  -2  13  -1   22.08    2.19 
   2  13   1   23.41    1.96 
  -3 -13  -1    2.06    0.90 
  -3 -13  -1    1.30    1.01 
   3  13   1    0.81    0.79 
   3  13   1    2.56    0.80 
  -3  13  -1    0.05    0.81 
  -4 -13  -1    6.76    1.45 
  -4  13  -1    6.91    1.48 
  -5 -13  -1   -0.10    0.70 
  -4 -14   1    2.81    1.16 
  -4 -14   1    2.46    1.40 
  -4  14   1    3.26    1.33 
   4  14  -1    6.26    1.72 
  -3 -14   1   -0.09    0.93 
  -3 -14   1    3.20    1.11 
  -3  14   1    2.56    1.13 
   3  14  -1    0.36    1.04 
   3  14  -1    0.67    0.55 
   2 -14  -1   25.51    2.21 
   2 -14  -1   20.79    2.04 
   2 -14  -1   27.63    1.91 
  -2 -14   1   21.08    2.29 
  -2 -14   1   23.98    2.21 
  -2 -14   1   31.84    2.76 
  -2  14   1   18.15    2.18 
   2  14  -1   25.46    2.63 
   2  14  -1   26.36    2.13 
  -1 -14   1    0.78    0.57 
  -1 -14   1    0.21    0.59 
   1 -14  -1    0.93    0.61 
   1 -14  -1    0.61    0.57 
  -1 -14   1   -0.59    0.45 
   1 -14  -1    1.88    0.95 
   1  14  -1    0.94    0.61 
  -1  14   1    0.58    0.90 
   1  14  -1    1.06    0.91 
   0 -14   1    6.75    1.01 
   0 -14   1    5.46    1.15 
   0 -14   1    5.36    1.43 
   0 -14  -1    5.78    1.06 
   0 -14  -1    4.57    1.19 
   0 -14  -1    6.96    1.48 
   0  14  -1    5.04    1.11 
   0  14  -1    4.96    1.11 
   0  14   1    5.11    1.09 
   0  14   1    2.45    1.13 
   1 -14   1    1.19    0.79 
   1 -14   1    1.73    0.97 
   1 -14   1    0.69    0.61 
  -1 -14  -1    0.65    0.71 
  -1 -14  -1    2.43    0.98 
   1  14   1    2.03    0.92 
  -1  14  -1    0.73    0.62 
   1  14   1    1.38    0.77 
  -1  14  -1    1.54    1.05 
   1  14   1    1.06    0.98 
  -2 -14  -1    2.64    0.91 
  -2 -14  -1    1.35    0.83 
   2 -14   1    3.01    1.10 
   2 -14   1    2.16    0.64 
   2 -14   1    1.51    0.78 
  -2 -14  -1    1.32    0.87 
   2  14   1    2.38    1.08 
  -2  14  -1    3.97    1.28 
   2  14   1    1.67    0.79 
  -3 -14  -1   22.24    2.52 
  -3 -14  -1   18.20    2.17 
  -3  14  -1   20.67    2.29 
   3  14   1   20.26    1.84 
   3  14   1   19.13    2.48 
  -4 -14  -1    4.01    1.44 
  -4 -14  -1    5.85    1.50 
  -4  14  -1    5.66    1.57 
  -4 -15   1    3.66    1.62 
  -4  15   1    3.30    1.36 
   4  15  -1    7.08    1.99 
  -3 -15   1    0.23    0.82 
  -3  15   1    1.14    1.07 
   3  15  -1    1.88    1.00 
   3  15  -1    0.72    0.94 
   2 -15  -1    2.06    0.88 
  -2 -15   1    2.06    0.80 
   2 -15  -1    1.38    0.56 
   2 -15  -1    1.41    0.74 
  -2 -15   1    1.74    1.02 
  -2  15   1    1.35    0.94 
   2  15  -1    2.94    1.30 
   2  15  -1    1.55    0.69 
   1 -15  -1    0.97    0.93 
   1 -15  -1   -0.23    0.51 
  -1 -15   1    2.96    0.93 
   1 -15  -1    0.17    0.71 
  -1 -15   1    0.85    0.78 
   1  15  -1    0.54    0.85 
  -1  15   1    0.97    1.04 
   1  15  -1    2.77    0.96 
   0 -15  -1    8.55    1.60 
   0 -15  -1   11.47    1.45 
   0 -15   1    9.94    1.38 
   0 -15   1    9.72    1.51 
   0  15   1   10.66    1.58 
   0  15   1    9.67    1.35 
   0  15  -1   11.61    1.54 
  -1 -15  -1    0.57    1.04 
   1 -15   1   -0.15    0.67 
  -1 -15  -1    2.08    0.81 
   1 -15   1    1.53    0.98 
   1 -15   1    0.02    0.58 
   1  15   1    1.09    0.81 
  -1  15  -1    1.04    0.66 
  -1  15  -1    1.73    0.91 
   1  15   1    1.59    1.09 
   1  15   1    0.75    0.81 
   2 -15   1    8.82    1.41 
   2 -15   1    9.86    1.14 
  -2 -15  -1    9.17    1.44 
   2 -15   1   11.17    1.55 
  -2 -15  -1    8.82    1.71 
  -2  15  -1    5.93    1.65 
   2  15   1    8.60    1.34 
   2  15   1    9.62    1.57 
  -3 -15  -1    6.31    1.79 
  -3  15  -1    3.84    1.43 
   3  15   1    6.79    1.50 
   3  15   1    6.03    1.11 
  -4 -15  -1    0.69    1.12 
  -4  15  -1    0.19    1.02 
  -3 -16   1    2.45    1.16 
  -3  16   1    7.86    1.72 
   3  16  -1    2.68    1.48 
   2 -16  -1    2.14    0.72 
  -2 -16   1    2.65    1.14 
  -2 -16   1    2.28    0.96 
   2 -16  -1    2.10    0.93 
   2  16  -1    1.32    0.94 
  -2  16   1    0.76    0.83 
   1 -16  -1    4.48    1.05 
  -1 -16   1    6.38    1.37 
  -1 -16   1    8.03    1.35 
   1 -16  -1    4.72    1.36 
   1  16  -1    8.35    1.56 
  -1  16   1    7.70    1.65 
   0 -16  -1    2.23    0.99 
   0 -16   1    4.76    1.41 
   0 -16  -1    3.75    1.07 
   0 -16   1    3.13    1.07 
   0  16   1    4.32    1.10 
   0  16   1    3.01    1.20 
   0  16  -1    4.25    1.13 
   1 -16   1    1.21    0.92 
  -1 -16  -1    0.93    0.74 
  -1 -16  -1    0.82    0.94 
   1 -16   1   -0.27    0.53 
   1  16   1    0.44    0.81 
   1  16   1    0.62    0.76 
  -1  16  -1    0.22    0.98 
   1  16   1    0.65    0.83 
   2 -16   1    1.99    0.70 
  -2 -16  -1    1.96    1.27 
  -2 -16  -1    4.28    1.22 
   2 -16   1    1.70    0.79 
   2  16   1    5.15    1.12 
  -2  16  -1    2.46    1.31 
   2  16   1    3.26    1.34 
  -3 -16  -1    0.29    1.08 
  -3  16  -1   -0.78    1.02 
  -3 -17   1    6.92    1.64 
   3  17  -1    7.34    1.68 
  -3  17   1    7.76    1.79 
   2 -17  -1    4.94    0.97 
   2 -17  -1    3.57    1.21 
  -2 -17   1    1.93    1.10 
   2  17  -1    3.59    1.35 
  -2  17   1    5.00    1.52 
  -1 -17   1    0.10    0.72 
  -1 -17   1   -0.56    0.63 
   1 -17  -1    0.91    0.70 
   1 -17  -1   -0.45    0.70 
   1  17  -1    1.11    1.05 
  -1  17   1    0.55    1.15 
   0 -17  -1    0.51    0.69 
   0 -17  -1    2.03    0.96 
   0 -17   1    0.68    1.07 
   0 -17   1    1.47    0.84 
   0  17   1    0.99    1.24 
   0  17  -1   -0.03    0.82 
   1 -17   1    0.07    0.62 
  -1 -17  -1    0.92    0.84 
   1 -17   1    0.09    0.64 
  -1 -17  -1    1.10    0.92 
   1  17   1   -0.41    0.70 
  -2 -17  -1    0.89    1.14 
   2 -17   1   -0.39    0.48 
   2 -17   1    0.13    0.79 
  -2  17  -1    0.23    0.85 
  -3 -17  -1    6.86    1.85 
  -2 -18   1    0.03    0.84 
   2 -18  -1    1.84    1.02 
   2 -18  -1    0.17    0.58 
  -2  18   1    0.57    1.19 
   2  18  -1   -0.24    0.95 
  -1 -18   1    0.21    0.88 
   1 -18  -1   -0.01    0.72 
   1 -18  -1   -0.46    0.75 
  -1 -18   1    0.76    0.94 
   1  18  -1    1.84    1.07 
  -1  18   1    3.38    1.63 
   0 -18   1    2.65    1.00 
   0 -18  -1    3.24    1.13 
   0 -18  -1    4.25    1.49 
   0 -18   1    2.65    1.30 
   0  18  -1    1.72    1.33 
   0  18   1    4.80    1.62 
  -1 -18  -1    4.01    1.46 
  -1 -18  -1    2.78    1.14 
   1 -18   1    3.80    1.13 
   1 -18   1    4.32    1.44 
   2 -18   1    0.19    0.66 
  -2 -18  -1   -0.26    0.74 
   2 -18   1   -1.18    0.65 
  -1 -19   1   -0.91    0.76 
   1 -19  -1    1.42    0.97 
   1 -19  -1    0.57    1.12 
  -1 -19   1    0.24    1.21 
   1  19  -1    1.54    1.09 
  -1  19   1    0.50    1.32 
   0 -19  -1    0.75    0.86 
   0 -19   1    0.58    0.85 
   0 -19   1   -1.51    0.47 
   0 -19  -1    0.46    0.87 
  -1 -19  -1    2.05    1.05 
   1 -19   1    3.19    1.31 
   1 -19   1    1.71    0.98 
  -1 -19  -1    3.35    1.54 
  -6   0   2    1.56    0.77 
  -5   0   2    5.18    0.72 
  -5   0   2    5.39    0.96 
  -5   0   2    5.19    0.64 
  -4   0   2    4.66    0.76 
  -4   0   2    3.53    0.63 
   4   0  -2    3.87    0.87 
  -4   0   2    4.31    0.51 
  -3   0   2   10.54    1.10 
   3   0  -2    9.88    1.14 
  -3   0   2   12.04    0.79 
   2   0  -2   97.22    5.15 
  -2   0   2   90.11    4.78 
  -2   0   2   93.43    5.08 
  -1   0   2  299.83   14.44 
   1   0  -2  267.10   14.44 
   0   0   2  116.42    5.70 
   0   0  -2  113.10    5.69 
   0   0   2  103.65    5.66 
   0   0  -2  112.81    5.67 
  -1   0  -2  952.57   48.48 
   1   0   2  995.38   48.56 
   1   0   2  956.79   48.43 
   1   0   2  946.82   48.47 
  -1   0  -2  968.63   48.44 
  -1   0  -2  938.02   48.42 
   1   0   2 1000.00   48.52 
   1   0   2  941.93   48.50 
   2   0   2    1.72    0.40 
  -2   0  -2    3.80    0.61 
  -2   0  -2    1.99    0.25 
  -2   0  -2    1.96    0.25 
  -2   0  -2    1.16    0.27 
  -3   0  -2    6.91    1.03 
  -3   0  -2    8.75    0.83 
  -3   0  -2    9.23    0.77 
  -3   0  -2    9.50    0.63 
  -3   0  -2    8.26    0.61 
  -4   0  -2    0.20    0.20 
  -4   0  -2    0.06    0.30 
  -4   0  -2   -0.49    0.24 
  -5   0  -2    3.39    0.45 
  -5   0  -2    3.03    0.68 
  -5   0  -2    2.41    0.71 
  -6   0  -2   11.23    0.90 
  -6   0  -2   12.44    1.30 
  -6  -1   2   -0.12    0.63 
  -5  -1   2   -0.09    0.44 
  -5  -1   2   -0.26    0.48 
  -5   1   2    0.76    0.61 
  -5   1   2    0.13    0.30 
  -5   1   2    0.01    0.30 
  -4  -1   2    1.03    0.56 
  -4  -1   2    0.11    0.47 
   4   1  -2    0.73    0.64 
  -4   1   2    0.97    0.34 
  -4   1   2    1.10    0.35 
  -4   1   2    1.01    0.46 
   3  -1  -2   14.82    1.26 
  -3  -1   2   14.72    1.34 
  -3  -1   2   11.32    1.11 
  -3   1   2   12.70    0.91 
   3   1  -2   11.78    1.29 
  -3   1   2   12.36    1.16 
  -2  -1   2  128.11    6.75 
   2  -1  -2  124.89    6.63 
  -2  -1   2  121.45    6.63 
  -2   1   2  129.02    6.60 
   2   1  -2  117.84    6.76 
  -1  -1   2   95.44    5.09 
  -1  -1   2  100.31    5.05 
   1  -1  -2   93.50    5.15 
  -1  -1   2   93.44    5.25 
  -1   1   2  105.78    5.14 
   1   1  -2  109.83    5.33 
   0  -1   2   48.82    2.80 
   0  -1   2   54.86    2.80 
   0  -1  -2   54.13    2.80 
   0  -1   2   53.08    2.82 
   0  -1  -2   56.58    2.82 
   0   1  -2   54.68    2.81 
   0   1  -2   54.09    2.82 
   0   1   2   53.81    2.82 
   0   1   2   54.30    2.80 
   0   1  -2   53.89    2.80 
   0   1  -2   54.36    2.81 
  -1  -1  -2  292.30   15.22 
  -1  -1  -2  315.88   15.18 
  -1  -1  -2  296.11   15.19 
  -1  -1  -2  300.66   15.19 
  -1  -1  -2  302.72   15.26 
   1  -1   2  299.87   15.10 
   1   1   2  295.93   15.22 
   1   1   2  289.45   15.28 
   1   1   2  301.96   15.17 
   1   1   2  310.80   15.18 
   1   1   2  293.20   15.19 
  -1   1  -2  292.70   15.10 
  -2  -1  -2   12.97    0.83 
  -2  -1  -2   12.35    0.92 
  -2  -1  -2   12.53    0.81 
  -2  -1  -2   10.38    0.91 
  -2  -1  -2   10.75    0.88 
  -2  -1  -2   12.41    1.13 
   2  -1   2   12.69    0.87 
   2   1   2   10.32    0.97 
  -2   1  -2   13.26    0.75 
  -2   1  -2   15.17    1.01 
  -2   1  -2   12.42    0.76 
  -3  -1  -2    1.85    0.45 
  -3  -1  -2    1.48    0.30 
  -3  -1  -2    1.57    0.30 
  -3  -1  -2    1.92    0.46 
  -3  -1  -2    1.44    0.41 
  -3   1  -2    1.94    0.48 
  -3   1  -2    1.74    0.24 
  -3   1  -2    2.02    0.35 
  -3   1  -2    1.85    0.60 
  -4  -1  -2   18.50    1.44 
  -4  -1  -2   17.64    1.38 
  -4  -1  -2   17.64    1.19 
  -4  -1  -2   17.79    1.18 
  -4  -1  -2   17.13    1.38 
  -4   1  -2   19.12    1.45 
  -4   1  -2   18.55    1.10 
  -4   1  -2   17.49    1.29 
  -5  -1  -2    0.78    0.54 
  -5  -1  -2    0.82    0.34 
  -5  -1  -2    1.28    0.53 
  -5   1  -2    1.35    0.54 
  -5   1  -2    0.89    0.26 
  -5   1  -2    1.35    0.55 
  -6  -1  -2    0.00    0.31 
  -6   1  -2    0.18    0.24 
  -6   1  -2   -0.04    0.49 
  -6  -2   2    9.85    1.51 
  -6   2   2    7.64    0.43 
  -6   2   2    6.95    0.47 
  -5  -2   2    2.10    0.78 
  -5  -2   2    2.77    0.93 
  -5   2   2    3.07    0.77 
  -5   2   2    3.43    0.61 
  -4  -2   2   -0.10    0.43 
  -4  -2   2   -1.17    0.39 
   4   2  -2    0.64    0.68 
  -4   2   2   -0.03    0.25 
  -4   2   2   -0.26    0.43 
  -4   2   2    0.04    0.13 
  -3  -2   2   19.67    1.52 
   3  -2  -2   17.23    1.37 
   3   2  -2   15.78    1.62 
  -3   2   2   19.78    1.39 
   2  -2  -2    7.51    0.69 
  -2  -2   2    7.11    0.87 
  -2  -2   2    9.20    0.86 
   2   2  -2    8.29    0.90 
   2   2  -2    7.46    0.51 
  -2   2   2    8.24    0.66 
   1  -2  -2  113.44    5.90 
  -1  -2   2  110.83    6.04 
   1  -2  -2  120.49    5.89 
  -1  -2   2  117.95    6.14 
  -1  -2   2  115.89    6.15 
  -1  -2   2  114.85    5.98 
  -1  -2   2  118.80    5.95 
   1  -2  -2  117.26    5.85 
   1   2  -2  115.51    5.88 
  -1   2   2  112.65    5.90 
  -1   2   2  116.17    5.86 
   1   2  -2  114.87    6.17 
   1   2  -2  110.51    6.08 
  -1   2   2  117.18    5.92 
   0  -2   2   17.22    1.08 
   0  -2  -2   19.05    1.10 
   0  -2   2   19.19    1.10 
   0  -2   2   18.46    1.14 
   0  -2  -2   18.89    1.15 
   0  -2   2   18.13    1.08 
   0  -2  -2   18.53    1.14 
   0  -2  -2   18.42    1.12 
   0   2   2   19.53    1.15 
   0   2  -2   19.39    1.10 
   0   2   2   18.95    1.18 
   0   2  -2   18.73    1.12 
   0   2   2   19.83    1.15 
   0   2   2   18.07    1.13 
   0   2  -2   19.26    1.13 
   0   2   2   18.56    1.09 
   0   2  -2   19.55    1.14 
   0   2  -2   18.03    1.10 
  -1  -2  -2   33.86    2.05 
  -1  -2  -2   28.83    1.99 
  -1  -2  -2   37.29    1.89 
   1  -2   2   36.94    1.88 
  -1  -2  -2   38.19    2.16 
  -1  -2  -2   37.61    2.02 
  -1  -2  -2   33.32    1.92 
   1  -2   2   39.74    1.90 
  -1  -2  -2   33.70    2.16 
   1  -2   2   39.05    2.01 
   1   2   2   35.78    2.07 
  -1   2  -2   35.16    1.91 
   1   2   2   35.30    2.02 
  -1   2  -2   31.62    1.88 
   1   2   2   34.65    2.01 
   1   2   2   37.09    2.18 
  -2  -2  -2    0.23    0.21 
  -2  -2  -2    0.01    0.30 
  -2  -2  -2   -0.56    0.18 
  -2  -2  -2    0.39    0.31 
  -2  -2  -2   -0.23    0.24 
   2  -2   2    0.23    0.15 
  -2  -2  -2    0.05    0.20 
   2   2   2    0.14    0.24 
  -2   2  -2    0.09    0.09 
   2   2   2    0.15    0.34 
   2   2   2    0.19    0.18 
  -2   2  -2    0.13    0.10 
  -3  -2  -2   30.06    1.83 
  -3  -2  -2   28.33    1.69 
  -3  -2  -2   28.71    1.71 
  -3  -2  -2   25.88    1.89 
  -3  -2  -2   26.22    1.86 
  -3   2  -2   27.33    1.86 
  -3   2  -2   27.75    1.96 
   3   2   2   27.90    1.77 
  -3   2  -2   26.68    1.60 
  -3   2  -2   26.95    1.52 
  -4  -2  -2    4.05    0.55 
  -4  -2  -2    3.66    0.63 
  -4  -2  -2    3.31    0.54 
  -4  -2  -2    3.82    0.74 
  -4  -2  -2    5.01    0.79 
  -4   2  -2    4.29    0.56 
  -4   2  -2    3.71    0.67 
  -4   2  -2    4.44    0.39 
  -5  -2  -2    4.68    0.84 
  -5  -2  -2    6.67    0.99 
  -5  -2  -2    5.12    0.67 
  -5   2  -2    6.10    0.77 
  -5   2  -2    4.65    0.83 
  -5   2  -2    4.62    0.47 
  -6  -2  -2    4.55    0.68 
  -6   2  -2    4.78    0.51 
  -6   2  -2    3.79    0.85 
  -6  -3   2   11.34    1.66 
  -6   3   2   13.15    0.82 
  -5  -3   2    8.50    1.21 
  -5  -3   2    8.16    1.27 
  -5   3   2    8.27    0.52 
  -5   3   2    8.95    0.95 
  -5   3   2    8.65    0.56 
   5   3  -2    7.05    1.45 
  -4  -3   2    4.95    0.37 
  -4  -3   2    4.17    0.89 
  -4  -3   2    5.36    0.97 
  -4   3   2    5.42    0.33 
  -4   3   2    5.80    0.84 
  -4   3   2    5.47    0.33 
   4   3  -2    7.72    1.16 
  -3  -3   2    0.83    0.54 
  -3  -3   2    0.61    0.15 
   3   3  -2   -0.30    0.33 
  -3   3   2    0.47    0.11 
  -3   3   2    0.61    0.13 
   3   3  -2    0.83    0.22 
  -3   3   2    0.25    0.33 
  -2  -3   2   18.16    1.52 
  -2  -3   2   19.10    1.10 
   2  -3  -2   17.71    1.14 
  -2  -3   2   18.43    1.42 
   2   3  -2   17.74    1.34 
   2   3  -2   19.52    1.56 
  -2   3   2   18.86    1.12 
  -2   3   2   17.09    1.09 
  -2   3   2   18.54    1.02 
  -2   3   2   18.03    1.05 
  -2   3   2   20.17    1.08 
   1  -3  -2  204.21   10.31 
  -1  -3   2  199.30   10.59 
   1  -3  -2  200.85   10.30 
  -1  -3   2  207.78   10.45 
  -1  -3   2  192.35   10.44 
  -1  -3   2  192.67   10.57 
   1  -3  -2  205.81   10.22 
   1  -3  -2  216.18   10.37 
  -1  -3   2  198.16   10.39 
   1   3  -2  203.10   10.56 
   1   3  -2  207.15   10.35 
  -1   3   2  205.13   10.46 
  -1   3   2  204.75   10.40 
  -1   3   2  207.92   10.40 
  -1   3   2  211.46   10.38 
   1   3  -2  198.00   10.62 
  -1   3   2  198.03   10.37 
   1   3  -2  194.50   10.44 
   0  -3  -2   43.93    2.50 
   0  -3   2   42.71    2.47 
   0  -3   2   47.21    2.57 
   0  -3  -2   44.08    2.53 
   0  -3  -2   46.71    2.53 
   0  -3   2   41.09    2.44 
   0  -3   2   46.32    2.47 
   0  -3  -2   43.50    2.55 
   0  -3  -2   46.09    2.48 
   0   3   2   44.87    2.56 
   0   3  -2   43.91    2.47 
   0   3  -2   46.18    2.50 
   0   3   2   48.37    2.56 
   0   3  -2   47.02    2.52 
   0   3   2   44.76    2.52 
   0   3   2   41.74    2.46 
   0   3  -2   46.04    2.54 
   0   3   2   43.16    2.58 
  -1  -3  -2    2.20    0.40 
  -1  -3  -2    1.36    0.40 
   1   3   2    1.03    0.40 
  -1   3  -2    2.15    0.31 
  -2  -3  -2   17.50    1.25 
  -2  -3  -2   15.17    1.41 
  -2  -3  -2   15.80    1.00 
  -2  -3  -2   15.78    0.97 
  -2  -3  -2   15.86    1.12 
  -2  -3  -2   15.58    1.27 
  -2  -3  -2   14.87    1.12 
  -2   3  -2   16.84    1.10 
  -2   3  -2   15.45    0.95 
  -2   3  -2   14.63    0.94 
   2   3   2   15.80    1.10 
   2   3   2   13.38    1.15 
   2   3   2   14.07    1.32 
  -3  -3  -2   15.22    1.13 
  -3  -3  -2   15.07    1.11 
  -3  -3  -2   16.83    1.30 
  -3  -3  -2   15.29    1.34 
  -3   3  -2   13.50    0.88 
  -3   3  -2   12.57    1.01 
  -3   3  -2   15.96    1.27 
  -3   3  -2   14.24    0.92 
   3   3   2   13.16    1.14 
  -4  -3  -2    4.53    0.86 
  -4  -3  -2    4.80    0.85 
  -4  -3  -2    4.30    0.62 
  -4  -3  -2    3.10    0.61 
  -4   3  -2    4.64    0.54 
  -4   3  -2    4.56    0.42 
  -4   3  -2    3.10    0.67 
  -5  -3  -2    0.26    0.43 
  -5  -3  -2    0.89    0.69 
  -5  -3  -2    0.67    0.55 
  -5   3  -2    0.47    0.51 
  -5   3  -2    0.89    0.27 
  -6  -3  -2    1.15    0.49 
  -6   3  -2    0.69    0.29 
  -6   3  -2    0.14    0.51 
  -6  -4   2    2.73    1.14 
  -6   4   2    1.93    0.39 
  -5  -4   2    8.62    1.35 
  -5  -4   2   10.34    1.43 
  -5   4   2    7.57    0.68 
  -5   4   2    7.60    0.61 
  -5   4   2    7.27    0.68 
  -5   4   2    5.37    0.86 
   5   4  -2    7.05    1.32 
  -4  -4   2    0.11    0.54 
  -4  -4   2    0.07    0.38 
  -4  -4   2    0.51    0.22 
  -4   4   2    0.81    0.25 
  -4   4   2    0.10    0.18 
  -4   4   2    0.35    0.24 
  -4   4   2    0.43    0.43 
   4   4  -2   -0.36    0.65 
  -3  -4   2    7.58    0.97 
  -3  -4   2    6.36    0.79 
  -3  -4   2    7.65    0.62 
   3   4  -2    8.04    1.22 
  -3   4   2    7.30    0.68 
   3   4  -2    7.97    0.63 
  -3   4   2    6.91    0.61 
  -3   4   2    8.57    0.63 
  -3   4   2    7.42    0.60 
  -2  -4   2    9.48    0.73 
  -2  -4   2    9.43    0.98 
  -2  -4   2    9.63    0.81 
  -2  -4   2    7.36    0.94 
   2   4  -2    6.35    0.94 
  -2   4   2    9.51    0.67 
  -2   4   2    8.39    0.72 
  -2   4   2    9.57    0.73 
  -2   4   2    8.29    0.71 
  -2   4   2    9.08    0.54 
   2   4  -2   11.61    1.04 
  -2   4   2    8.76    0.65 
   1  -4  -2   77.44    4.12 
   1  -4  -2   80.72    4.14 
  -1  -4   2   81.34    4.17 
  -1  -4   2   77.48    4.22 
  -1  -4   2   78.93    4.21 
  -1  -4   2   75.87    4.36 
   1  -4  -2   66.56    3.91 
  -1  -4   2   79.88    4.36 
   1  -4  -2   77.97    4.09 
   1  -4  -2   78.01    4.07 
  -1   4   2   80.73    4.18 
  -1   4   2   81.54    4.15 
   1   4  -2   63.42    4.24 
  -1   4   2   77.52    4.20 
   1   4  -2   76.07    4.18 
  -1   4   2   82.00    4.20 
  -1   4   2   79.94    4.23 
   1   4  -2   73.30    4.36 
   0  -4  -2   56.21    3.14 
   0  -4   2   53.44    3.12 
   0  -4   2   53.19    3.03 
   0  -4  -2   50.79    3.00 
   0  -4   2   57.77    3.11 
   0  -4   2   54.20    3.00 
   0  -4  -2   56.56    3.08 
   0  -4  -2   52.13    3.09 
   0  -4   2   53.13    2.98 
   0  -4  -2   54.27    3.01 
   0  -4  -2   56.78    3.06 
   0   4   2   53.14    2.99 
   0   4   2   52.51    3.11 
   0   4  -2   55.53    3.04 
   0   4   2   52.01    3.07 
   0   4  -2   56.05    3.10 
   0   4   2   54.14    3.11 
   0   4   2   51.90    3.15 
   0   4  -2   56.01    3.06 
   0   4  -2   55.07    3.01 
  -1  -4  -2  213.59   10.88 
  -1  -4  -2  207.03   11.02 
  -1  -4  -2  213.61   10.99 
   1  -4   2  211.14   10.89 
   1  -4   2  219.46   10.97 
  -1  -4  -2  213.11   11.17 
  -1  -4  -2  210.45   11.12 
  -1  -4  -2  213.73   11.08 
   1  -4   2  208.95   10.82 
  -1   4  -2  211.52   10.85 
   1   4   2  209.88   11.08 
  -1   4  -2  223.78   11.02 
   1   4   2  200.76   11.17 
   1   4   2  213.61   11.01 
  -1   4  -2  212.18   10.90 
   1   4   2  202.48   10.83 
   1   4   2  218.09   10.83 
  -1   4  -2  209.38   10.76 
  -1   4  -2  205.31   10.90 
  -2  -4  -2   27.64    1.67 
  -2  -4  -2   28.09    1.86 
  -2  -4  -2   25.74    2.02 
  -2  -4  -2   29.15    1.66 
  -2  -4  -2   31.36    2.01 
  -2  -4  -2   26.19    2.09 
  -2  -4  -2   29.39    1.84 
   2  -4   2   28.57    1.60 
   2   4   2   25.20    1.89 
   2   4   2   29.76    2.10 
  -2   4  -2   25.34    1.76 
   2   4   2   28.10    1.72 
  -2   4  -2   28.88    1.67 
  -2   4  -2   28.14    1.65 
  -3  -4  -2   51.08    3.06 
  -3  -4  -2   57.24    3.41 
  -3  -4  -2   51.94    2.86 
  -3  -4  -2   50.34    2.95 
  -3  -4  -2   52.23    3.27 
  -3  -4  -2   51.68    3.10 
  -3   4  -2   50.72    3.09 
  -3   4  -2   52.44    2.85 
  -3   4  -2   51.04    2.86 
  -3   4  -2   52.31    3.01 
  -4  -4  -2    1.08    0.48 
  -4  -4  -2    0.82    0.55 
  -4  -4  -2    0.97    0.58 
  -4  -4  -2    0.51    0.42 
  -4  -4  -2    0.48    0.25 
  -4  -4  -2    0.17    0.36 
  -4   4  -2    0.68    0.52 
  -4   4  -2    0.26    0.19 
  -4   4  -2    0.75    0.29 
  -5  -4  -2    5.28    1.05 
  -5  -4  -2    3.68    0.75 
  -5  -4  -2    5.23    1.00 
  -5  -4  -2    4.60    0.74 
  -5   4  -2    3.72    0.48 
  -5   4  -2    3.28    0.84 
  -6  -4  -2    0.35    0.48 
  -6   4  -2    0.23    0.28 
  -6   4  -2    0.83    0.59 
  -6  -5   2    7.29    1.50 
  -6   5   2    8.73    0.83 
  -5  -5   2    6.39    1.28 
  -5  -5   2    3.33    0.80 
  -5  -5   2    3.44    1.10 
   5   5  -2    1.78    1.10 
  -5   5   2    3.18    0.50 
  -5   5   2    2.80    0.61 
  -4  -5   2    6.47    0.91 
  -4  -5   2   10.42    1.26 
  -4  -5   2    7.36    0.72 
  -4  -5   2    6.32    1.19 
  -4  -5   2    7.39    0.90 
  -4   5   2    7.84    0.77 
  -4   5   2    8.92    0.83 
   4   5  -2    7.03    1.26 
  -4   5   2    7.17    0.75 
  -4   5   2    7.97    0.71 
   4   5  -2    6.94    0.69 
  -3  -5   2    2.26    0.48 
  -3  -5   2    4.96    0.91 
  -3  -5   2    2.65    0.61 
  -3  -5   2    2.50    0.42 
  -3   5   2    2.76    0.48 
  -3   5   2    2.75    0.35 
  -3   5   2    2.42    0.43 
   3   5  -2    4.02    1.05 
  -3   5   2    2.66    0.47 
   3   5  -2    2.96    0.42 
  -2  -5   2    5.98    0.64 
  -2  -5   2    6.45    0.74 
  -2  -5   2    6.27    0.84 
  -2  -5   2    4.72    0.59 
  -2   5   2    5.45    0.64 
  -2   5   2    4.52    0.60 
  -2   5   2    5.73    0.57 
   2   5  -2    5.24    0.42 
   2   5  -2    4.92    0.94 
  -2   5   2    5.45    0.62 
  -2   5   2    6.66    0.71 
  -1  -5   2   73.31    3.99 
   1  -5  -2   71.18    3.64 
   1  -5  -2   73.11    3.89 
  -1  -5   2   75.90    4.03 
   1  -5  -2   67.79    3.86 
   1  -5  -2   70.08    3.89 
  -1  -5   2   74.39    3.92 
  -1  -5   2   74.55    4.09 
   1  -5  -2   72.90    3.85 
   1  -5  -2   72.41    3.83 
  -1  -5   2   64.18    3.91 
   1  -5  -2   64.88    3.90 
  -1  -5   2   69.54    4.13 
   1   5  -2   74.78    4.16 
  -1   5   2   67.27    3.94 
   1   5  -2   67.84    3.91 
  -1   5   2   68.53    3.98 
  -1   5   2   69.54    3.88 
   1   5  -2   70.58    4.08 
  -1   5   2   75.59    3.99 
   1   5  -2   67.86    3.85 
  -1   5   2   67.81    3.98 
   0  -5  -2   27.56    1.74 
   0  -5  -2   23.88    1.62 
   0  -5  -2   25.65    1.68 
   0  -5  -2   24.38    1.59 
   0  -5  -2   25.44    1.59 
   0  -5   2   22.86    1.55 
   0  -5   2   25.78    1.68 
   0  -5   2   23.21    1.58 
   0  -5   2   24.69    1.55 
   0  -5  -2   24.91    1.73 
   0  -5   2   24.88    1.69 
   0   5   2   23.03    1.65 
   0   5   2   24.30    1.73 
   0   5   2   24.16    1.69 
   0   5   2   22.25    1.65 
   0   5  -2   25.73    1.59 
   0   5  -2   24.93    1.67 
   0   5  -2   24.13    1.60 
   0   5   2   24.01    1.57 
   0   5  -2   25.22    1.64 
  -1  -5  -2    2.21    0.56 
   1  -5   2    3.72    0.41 
  -1  -5  -2    3.33    0.47 
  -1  -5  -2    2.11    0.58 
   1  -5   2    4.17    0.45 
  -1  -5  -2    4.18    0.62 
  -1  -5  -2    4.09    0.60 
  -1   5  -2    3.54    0.52 
   1   5   2    4.16    0.76 
  -1   5  -2    3.04    0.48 
   1   5   2    2.54    0.53 
  -2  -5  -2   -0.06    0.45 
  -2  -5  -2    0.78    0.45 
   2  -5   2    0.76    0.32 
  -2  -5  -2    0.62    0.38 
  -2  -5  -2    0.71    0.29 
  -2  -5  -2   -0.03    0.38 
  -2   5  -2    0.13    0.28 
   2   5   2    0.50    0.35 
   2   5   2    0.41    0.42 
  -2   5  -2    0.46    0.22 
  -2   5  -2    0.53    0.28 
   2   5   2    0.69    0.52 
  -2   5  -2   -0.40    0.27 
   3  -5   2    0.23    0.07 
  -3  -5  -2    0.30    0.31 
  -3  -5  -2    0.14    0.45 
  -3  -5  -2    0.32    0.39 
  -3  -5  -2   -0.10    0.34 
  -3  -5  -2    0.38    0.44 
  -3  -5  -2    0.38    0.25 
  -3   5  -2    0.34    0.23 
  -3   5  -2   -0.08    0.33 
  -3   5  -2    0.42    0.29 
  -4  -5  -2   11.01    1.39 
  -4  -5  -2   10.83    0.90 
  -4  -5  -2   14.81    1.46 
  -4  -5  -2   11.51    1.17 
  -4  -5  -2   11.53    1.06 
  -4   5  -2   11.86    0.92 
  -4   5  -2   10.23    0.91 
  -4   5  -2   11.66    1.21 
  -5  -5  -2    0.85    0.60 
  -5  -5  -2    1.50    0.80 
  -5  -5  -2    1.82    0.67 
  -5  -5  -2    2.56    0.88 
  -5   5  -2    2.40    0.81 
  -5   5  -2    1.22    0.40 
  -6  -5  -2    9.04    1.15 
  -6   5  -2    8.87    0.88 
  -6   5  -2    8.35    1.22 
  -6  -6   2    0.87    1.00 
  -6   6   2    0.60    0.43 
  -5  -6   2    3.33    0.91 
  -5  -6   2    2.82    0.96 
  -5  -6   2    2.74    1.11 
   5   6  -2    2.37    1.03 
  -5   6   2    3.69    0.63 
  -5   6   2    2.58    0.66 
  -4  -6   2    0.90    0.40 
  -4  -6   2   -0.26    0.41 
  -4  -6   2    0.47    0.55 
  -4  -6   2    0.09    0.65 
  -4   6   2    0.99    0.38 
  -4   6   2    0.78    0.43 
  -4   6   2    0.79    0.28 
  -4   6   2    0.56    0.47 
   4   6  -2    1.34    0.78 
  -3  -6   2   13.89    1.57 
  -3  -6   2   14.95    1.17 
  -3  -6   2   15.98    1.31 
  -3   6   2   15.34    1.20 
   3   6  -2   13.65    1.70 
  -3   6   2   13.83    1.23 
  -3   6   2   15.37    1.22 
  -2  -6   2   24.98    1.65 
  -2  -6   2   22.45    1.68 
  -2  -6   2   24.94    2.01 
   2   6  -2   24.76    1.46 
  -2   6   2   24.27    1.62 
  -2   6   2   24.61    1.73 
  -2   6   2   25.13    1.95 
   2   6  -2   25.99    2.06 
  -2   6   2   21.04    1.63 
  -2   6   2   25.18    1.71 
   1  -6  -2    1.30    0.41 
  -1  -6   2    1.34    0.40 
   1  -6  -2    1.23    0.37 
   1  -6  -2    1.13    0.25 
  -1  -6   2    1.35    0.46 
  -1  -6   2    1.29    0.46 
   1  -6  -2    1.44    0.41 
   1  -6  -2    0.87    0.36 
   1  -6  -2    1.25    0.40 
  -1  -6   2    0.78    0.44 
  -1   6   2    2.57    0.61 
  -1   6   2    2.77    0.59 
   1   6  -2    1.83    0.53 
   1   6  -2    1.37    0.38 
  -1   6   2    0.94    0.47 
  -1   6   2    1.22    0.39 
   0  -6  -2    0.59    0.40 
   0  -6   2    0.53    0.30 
   0  -6  -2    0.27    0.29 
   0  -6   2    0.18    0.28 
   0  -6  -2    0.77    0.38 
   0  -6   2    0.41    0.42 
   0  -6   2   -0.14    0.25 
   0  -6  -2    0.35    0.32 
   0  -6  -2   -0.43    0.31 
   0   6   2    0.07    0.22 
   0   6  -2    0.49    0.35 
   0   6  -2   -0.09    0.37 
   0   6   2    0.00    0.27 
   0   6   2    0.18    0.28 
   0   6   2    0.32    0.33 
   0   6  -2    0.25    0.31 
   0   6   2    0.78    0.47 
   0   6  -2    0.44    0.31 
   1  -6   2   33.15    2.04 
  -1  -6  -2   28.11    2.21 
  -1  -6  -2   34.04    2.20 
  -1  -6  -2   31.44    2.19 
  -1  -6  -2   27.10    2.07 
   1  -6   2   30.90    1.85 
  -1  -6  -2   29.88    1.95 
   1  -6   2   31.47    1.74 
   1  -6   2   32.69    1.92 
  -1   6  -2   31.13    1.84 
  -1   6  -2   31.24    2.02 
  -1   6  -2   27.98    2.07 
  -1   6  -2   31.49    1.95 
  -1   6  -2   31.14    2.03 
   1   6   2   30.28    2.17 
   1   6   2   30.52    1.90 
   1   6   2   33.33    2.14 
  -2  -6  -2    0.67    0.50 
   2  -6   2    0.41    0.27 
  -2  -6  -2    0.45    0.41 
  -2  -6  -2    0.52    0.41 
  -2  -6  -2    0.60    0.30 
   2  -6   2    1.04    0.45 
   2   6   2   -0.39    0.30 
  -2   6  -2    0.49    0.30 
  -2   6  -2   -0.07    0.35 
  -2   6  -2    0.12    0.14 
   2   6   2    0.51    0.22 
   2   6   2    0.25    0.40 
  -2   6  -2    0.52    0.32 
   2   6   2    0.17    0.23 
  -2   6  -2    0.94    0.34 
   3  -6   2    0.07    0.15 
  -3  -6  -2    0.62    0.35 
  -3  -6  -2   -0.93    0.33 
  -3  -6  -2    0.41    0.55 
  -3  -6  -2    0.32    0.28 
  -3  -6  -2   -0.05    0.38 
  -3   6  -2   -0.18    0.26 
  -3   6  -2   -0.42    0.22 
  -3   6  -2    0.24    0.39 
  -4  -6  -2    2.37    0.61 
  -4  -6  -2    1.95    0.51 
  -4  -6  -2    1.92    0.81 
  -4  -6  -2    1.02    0.77 
  -4  -6  -2    1.03    0.58 
  -4   6  -2    2.25    0.52 
  -4   6  -2    2.17    0.62 
  -4   6  -2    2.33    0.66 
  -4   6  -2    1.55    0.46 
  -5  -6  -2    2.48    0.71 
  -5  -6  -2    1.54    0.80 
  -5  -6  -2    0.58    0.80 
  -5  -6  -2    2.55    0.79 
  -5   6  -2    1.69    0.49 
  -6  -6  -2    2.67    0.85 
  -6   6  -2    4.70    1.00 
  -6   6  -2    3.22    0.69 
  -6  -7   2    0.41    0.97 
  -6   7   2    1.76    0.60 
  -5  -7   2    0.32    0.59 
  -5  -7   2   -0.63    0.74 
  -5  -7   2    0.50    0.86 
  -5   7   2    1.36    0.66 
  -5   7   2    0.24    0.40 
   5   7  -2   -0.65    0.61 
  -4  -7   2    0.56    0.52 
  -4  -7   2   -0.30    0.68 
  -4  -7   2    0.19    0.38 
  -4  -7   2   -1.42    0.51 
  -4   7   2    0.12    0.39 
  -4   7   2    0.69    0.53 
   4   7  -2    1.41    0.85 
  -3  -7   2   19.54    2.00 
  -3  -7   2   24.31    2.21 
  -3  -7   2   22.63    1.73 
  -3  -7   2   23.41    1.64 
   3   7  -2   19.16    2.04 
  -3   7   2   23.17    1.73 
  -3   7   2   22.70    1.75 
  -3   7   2   20.89    1.63 
  -2  -7   2    0.10    0.38 
  -2  -7   2    1.35    0.68 
  -2  -7   2    0.53    0.38 
  -2  -7   2    1.77    0.50 
  -2   7   2    2.72    0.58 
  -2   7   2    1.22    0.51 
  -2   7   2    0.60    0.47 
   2   7  -2    0.49    0.29 
   2   7  -2    1.22    0.33 
   2   7  -2    0.89    0.55 
  -1  -7   2    3.44    0.73 
  -1  -7   2    4.89    0.68 
  -1  -7   2    4.03    0.81 
   1  -7  -2    5.77    0.69 
   1  -7  -2    4.58    0.46 
  -1  -7   2    4.43    0.75 
   1  -7  -2    3.26    0.68 
   1  -7  -2    5.34    0.68 
   1  -7  -2    4.45    0.64 
  -1   7   2    5.03    0.69 
   1   7  -2    4.55    0.62 
  -1   7   2    3.90    0.74 
   1   7  -2    5.91    0.84 
   1   7  -2    4.98    0.66 
   0  -7  -2   67.77    4.32 
   0  -7   2   71.99    4.10 
   0  -7  -2   74.39    4.34 
   0  -7  -2   77.98    4.30 
   0  -7  -2   73.20    4.17 
   0  -7  -2   71.15    4.14 
   0  -7   2   74.06    4.33 
   0  -7   2   76.29    4.16 
   0  -7   2   71.82    4.19 
   0   7  -2   72.38    4.15 
   0   7   2   74.26    4.15 
   0   7   2   76.28    4.16 
   0   7  -2   75.95    4.27 
   0   7   2   70.96    4.29 
   0   7  -2   69.02    4.18 
   1  -7   2   22.19    1.36 
   1  -7   2   24.08    1.53 
   1  -7   2   22.59    1.69 
  -1  -7  -2   22.53    1.88 
  -1  -7  -2   29.17    1.92 
  -1  -7  -2   22.63    1.80 
  -1  -7  -2   23.29    1.66 
  -1  -7  -2   21.84    1.77 
   1  -7   2   22.03    1.56 
   1   7   2   24.81    1.83 
  -1   7  -2   23.52    1.72 
  -1   7  -2   21.88    1.76 
  -1   7  -2   25.00    1.65 
   1   7   2   21.23    1.75 
   1   7   2   21.37    1.54 
  -1   7  -2   22.18    1.68 
  -1   7  -2   24.45    1.53 
  -2  -7  -2   40.23    2.87 
  -2  -7  -2   39.87    2.79 
  -2  -7  -2   42.90    3.05 
   2  -7   2   39.95    2.52 
  -2  -7  -2   44.65    2.62 
   2   7   2   41.38    2.41 
  -2   7  -2   44.62    2.78 
  -2   7  -2   41.65    2.33 
   2   7   2   44.21    3.01 
  -2   7  -2   37.29    2.59 
   2   7   2   45.21    2.54 
  -2   7  -2   40.88    2.63 
   2   7   2   42.81    2.69 
  -3  -7  -2    1.09    0.67 
  -3  -7  -2    1.03    0.43 
  -3  -7  -2    0.24    0.47 
   3  -7   2    1.25    0.32 
  -3  -7  -2    1.54    0.60 
  -3   7  -2    1.16    0.58 
  -3   7  -2    0.57    0.37 
  -3   7  -2    0.63    0.21 
  -3   7  -2    1.10    0.46 
  -4  -7  -2    3.00    0.62 
  -4  -7  -2    3.36    0.85 
  -4  -7  -2    2.61    0.88 
  -4  -7  -2    4.07    1.08 
  -4  -7  -2    3.24    0.69 
  -4   7  -2    2.95    0.69 
  -4   7  -2    4.32    0.86 
  -4   7  -2    3.21    0.66 
  -5  -7  -2    2.63    1.07 
  -5  -7  -2    1.40    0.88 
  -5  -7  -2    2.74    0.85 
  -5   7  -2    1.61    0.56 
  -6  -7  -2    0.57    0.68 
  -6  -7  -2    0.29    0.90 
  -6   7  -2   -0.59    0.58 
  -6   7  -2    0.33    0.44 
  -6  -8   2    3.14    1.36 
  -6   8   2    1.40    0.64 
  -5  -8   2    0.27    0.67 
  -5  -8   2    2.15    1.00 
  -5   8   2    0.94    0.54 
   5   8  -2    1.01    0.83 
  -5   8   2    1.63    0.74 
  -4  -8   2    3.19    1.18 
  -4  -8   2    3.32    0.87 
  -4  -8   2    3.54    1.13 
  -4   8   2    3.53    0.87 
  -4   8   2    2.65    0.71 
   4   8  -2    3.43    1.16 
  -3  -8   2   14.76    1.72 
  -3  -8   2   17.64    1.47 
  -3  -8   2   16.61    1.47 
  -3  -8   2   17.98    1.89 
  -3   8   2   16.62    1.48 
  -3   8   2   18.00    1.55 
   3   8  -2   20.16    2.02 
  -2  -8   2    1.19    0.73 
   2  -8  -2    1.84    0.36 
  -2  -8   2    2.23    0.60 
  -2  -8   2    1.46    0.56 
   2  -8  -2    0.85    0.40 
   2   8  -2    0.29    0.52 
  -2   8   2    3.36    0.81 
   2   8  -2    2.02    0.44 
   2   8  -2    1.01    0.47 
   1  -8  -2    6.85    0.63 
   1  -8  -2    7.33    0.81 
   1  -8  -2    6.18    0.82 
  -1  -8   2    8.77    1.08 
  -1  -8   2    5.90    0.90 
  -1  -8   2    7.62    0.90 
   1  -8  -2    9.13    0.94 
   1  -8  -2    8.22    0.96 
  -1   8   2    8.61    0.91 
   1   8  -2    9.88    1.10 
  -1   8   2    5.82    0.93 
   1   8  -2    8.96    0.88 
   1   8  -2    8.92    0.90 
   0  -8  -2   22.76    1.68 
   0  -8   2   22.44    1.69 
   0  -8  -2   24.32    1.69 
   0  -8  -2   23.38    1.77 
   0  -8  -2   24.26    1.93 
   0  -8  -2   23.34    1.86 
   0  -8   2   21.12    1.83 
   0  -8   2   22.75    1.61 
   0  -8   2   22.48    1.66 
   0   8   2   21.00    1.63 
   0   8  -2   24.26    1.80 
   0   8   2   21.62    1.65 
   0   8  -2   24.41    1.84 
   0   8   2   20.33    1.82 
   0   8  -2   26.12    1.79 
   0   8  -2   22.65    1.69 
  -1  -8  -2    0.63    0.37 
  -1  -8  -2   -0.17    0.46 
   1  -8   2    0.72    0.48 
  -1  -8  -2    0.33    0.41 
  -1  -8  -2    0.38    0.44 
   1  -8   2    0.25    0.22 
   1  -8   2    0.31    0.36 
  -1  -8  -2    1.01    0.46 
   1  -8   2    0.51    0.33 
  -1   8  -2   -0.27    0.44 
   1   8   2    0.30    0.35 
   1   8   2    0.70    0.37 
  -1   8  -2    0.38    0.35 
  -1   8  -2    0.28    0.27 
  -1   8  -2    0.92    0.45 
   1   8   2    0.12    0.49 
  -2  -8  -2   16.45    1.60 
   2  -8   2   14.51    1.24 
  -2  -8  -2   15.02    1.47 
  -2  -8  -2   15.28    1.29 
  -2  -8  -2   14.80    1.65 
  -2   8  -2   17.89    1.64 
  -2   8  -2   13.66    1.02 
   2   8   2   16.20    1.12 
   2   8   2   13.66    1.37 
  -2   8  -2   12.89    1.28 
  -2   8  -2   14.01    1.40 
   2   8   2   14.03    1.52 
   2   8   2   15.80    1.21 
   3  -8   2    7.02    0.70 
  -3  -8  -2    6.54    1.12 
  -3  -8  -2    5.92    1.03 
  -3  -8  -2    6.86    1.18 
  -3  -8  -2    6.96    0.87 
  -3   8  -2    5.90    1.01 
  -3   8  -2    7.82    0.92 
  -3   8  -2    6.30    0.87 
  -3   8  -2    5.74    0.54 
   3   8   2    7.20    1.21 
  -4  -8  -2    0.10    0.70 
  -4  -8  -2    0.47    0.84 
  -4  -8  -2    0.80    0.65 
  -4   8  -2   -0.05    0.19 
  -4   8  -2    0.60    0.45 
  -4   8  -2    1.00    0.64 
  -5  -8  -2    0.81    0.72 
  -5  -8  -2    0.07    0.73 
  -5   8  -2   -0.13    0.41 
  -6  -8  -2    1.36    1.06 
  -6  -8  -2    2.11    0.89 
  -6   8  -2    1.75    0.68 
  -6   8  -2    0.13    0.82 
  -6  -9   2    1.28    1.20 
  -6   9   2   -0.12    0.57 
  -5  -9   2   -0.78    0.77 
   5   9  -2    0.03    0.73 
  -5   9   2    0.50    0.69 
  -5   9   2   -0.18    0.47 
  -4  -9   2    3.13    1.21 
  -4  -9   2    3.22    1.33 
  -4  -9   2    5.16    0.97 
  -4   9   2    5.25    0.94 
   4   9  -2    3.44    1.26 
  -4   9   2    5.08    1.06 
  -3  -9   2    9.21    1.38 
  -3  -9   2   11.42    1.30 
  -3  -9   2   11.40    1.27 
  -3  -9   2    8.30    1.58 
  -3  -9   2   10.89    1.16 
   3   9  -2    9.98    1.51 
  -3   9   2   11.31    1.30 
  -3   9   2   10.19    1.19 
  -2  -9   2    1.68    0.72 
  -2  -9   2    2.12    0.64 
  -2  -9   2    2.29    0.70 
   2  -9  -2    2.43    0.60 
   2  -9  -2    1.71    0.42 
   2   9  -2    2.45    0.54 
   2   9  -2    1.49    0.79 
  -2   9   2    2.21    0.76 
   2   9  -2    2.56    0.52 
  -1  -9   2    3.81    0.71 
  -1  -9   2    2.54    0.88 
   1  -9  -2    2.46    0.61 
   1  -9  -2    2.54    0.67 
  -1  -9   2    2.99    0.64 
   1  -9  -2    1.50    0.37 
   1  -9  -2    2.62    0.58 
   1  -9  -2    1.62    0.62 
   1   9  -2    1.93    0.59 
   1   9  -2    3.43    0.70 
   1   9  -2    2.44    0.69 
  -1   9   2    1.94    0.74 
  -1   9   2    2.31    0.52 
   0  -9  -2   13.60    1.28 
   0  -9  -2   12.01    1.37 
   0  -9   2   12.81    1.12 
   0  -9   2    7.78    1.03 
   0  -9  -2   13.02    1.17 
   0  -9  -2   13.63    1.39 
   0  -9  -2   11.68    1.16 
   0  -9   2   12.97    1.37 
   0  -9   2   10.61    1.10 
   0   9  -2   13.63    1.27 
   0   9   2   10.91    1.25 
   0   9   2   12.43    1.15 
   0   9  -2   14.98    1.21 
   0   9  -2   10.53    1.22 
   0   9   2   13.05    1.18 
  -1  -9  -2   30.84    2.45 
  -1  -9  -2   34.70    2.21 
  -1  -9  -2   29.40    2.31 
   1  -9   2   30.04    1.82 
   1  -9   2   30.93    2.25 
   1  -9   2   30.00    2.01 
   1  -9   2   31.63    2.10 
  -1  -9  -2   28.18    2.30 
   1   9   2   29.73    2.31 
   1   9   2   30.82    2.30 
   1   9   2   31.71    2.07 
  -1   9  -2   27.99    1.99 
  -1   9  -2   31.58    2.16 
  -1   9  -2   29.11    2.27 
  -1   9  -2   32.21    2.25 
  -2  -9  -2    0.90    0.49 
  -2  -9  -2    0.75    0.48 
   2  -9   2    0.69    0.45 
  -2  -9  -2    1.33    0.62 
  -2  -9  -2    1.92    0.84 
   2   9   2    1.56    0.79 
   2   9   2    1.13    0.44 
   2   9   2    0.29    0.25 
  -2   9  -2    1.46    0.53 
  -2   9  -2    0.49    0.47 
  -2   9  -2    0.79    0.33 
   2   9   2    0.00    0.51 
  -3  -9  -2    0.65    0.78 
   3  -9   2    1.03    0.44 
  -3  -9  -2    0.60    0.85 
  -3  -9  -2    1.17    0.54 
  -3  -9  -2    1.89    0.72 
  -3   9  -2    0.43    0.26 
   3   9   2    1.69    0.80 
  -3   9  -2    0.56    0.62 
  -3   9  -2    0.93    0.55 
  -4  -9  -2    0.12    0.73 
  -4  -9  -2    0.31    0.62 
  -4   9  -2   -0.18    0.56 
  -4   9  -2    0.22    0.46 
  -5  -9  -2    5.70    1.27 
  -5  -9  -2    4.22    1.27 
  -5   9  -2    6.44    1.05 
  -6  -9  -2    0.81    0.95 
  -6  -9  -2   -0.48    0.75 
  -6   9  -2   -0.55    0.53 
  -5 -10   2    0.15    0.66 
  -5 -10   2    0.57    0.91 
   5  10  -2    1.29    0.99 
  -5  10   2    0.51    0.62 
  -5  10   2    1.32    0.82 
  -4 -10   2    2.10    0.83 
  -4 -10   2    3.60    0.96 
  -4 -10   2    2.88    1.09 
   4  10  -2    3.27    1.33 
  -4  10   2    3.01    0.87 
  -4  10   2    4.50    1.11 
  -3 -10   2    0.11    0.66 
  -3 -10   2    0.68    0.82 
  -3 -10   2   -0.53    0.40 
  -3 -10   2   -0.71    0.41 
  -3  10   2   -0.40    0.52 
   3  10  -2    0.25    0.85 
   3  10  -2    0.00    0.25 
   2 -10  -2   34.68    2.12 
   2 -10  -2   40.07    2.40 
  -2 -10   2   24.62    2.59 
  -2 -10   2   39.46    2.64 
  -2 -10   2   33.93    2.43 
  -2 -10   2   33.40    2.87 
   2  10  -2   36.68    2.44 
   2  10  -2   33.10    2.19 
   2  10  -2   28.97    2.66 
  -2  10   2   29.69    2.48 
   1 -10  -2    8.56    0.80 
   1 -10  -2    9.67    1.10 
  -1 -10   2   10.39    1.16 
  -1 -10   2   11.00    1.25 
   1 -10  -2    9.06    1.00 
  -1 -10   2    8.76    1.21 
   1 -10  -2    8.44    1.15 
   1 -10  -2    8.07    1.02 
   1  10  -2    8.69    1.17 
   1  10  -2   11.56    1.12 
   1  10  -2    7.77    0.99 
  -1  10   2    9.52    1.19 
   0 -10   2    0.43    0.59 
   0 -10   2    0.56    0.36 
   0 -10  -2    1.26    0.49 
   0 -10  -2    0.12    0.42 
   0 -10   2    1.41    0.50 
   0 -10  -2    0.70    0.41 
   0 -10  -2    0.55    0.49 
   0 -10   2    0.43    0.45 
   0 -10  -2    0.00    0.39 
   0 -10  -2    0.55    0.51 
   0  10   2    0.55    0.52 
   0  10   2    0.69    0.47 
   0  10   2    0.37    0.38 
   0  10  -2   -0.15    0.43 
   0  10  -2    0.95    0.55 
   1 -10   2   27.82    1.96 
  -1 -10  -2   23.46    1.96 
   1 -10   2   27.62    1.65 
  -1 -10  -2   22.21    2.18 
   1 -10   2   25.49    1.84 
  -1 -10  -2   27.99    2.22 
   1 -10   2   28.30    2.13 
  -1 -10  -2   24.89    2.16 
   1  10   2   27.31    2.19 
  -1  10  -2   27.86    2.24 
   1  10   2   22.71    2.08 
   1  10   2   26.31    1.89 
  -1  10  -2   27.04    2.12 
  -1  10  -2   26.16    1.88 
  -2 -10  -2   11.36    1.44 
   2 -10   2   13.82    1.36 
  -2 -10  -2   12.87    1.51 
   2 -10   2   14.21    1.28 
  -2 -10  -2   11.53    1.27 
  -2 -10  -2   15.62    1.80 
  -2  10  -2   15.46    1.58 
   2  10   2   12.62    1.50 
   2  10   2   11.76    1.16 
   2  10   2   11.46    1.37 
  -2  10  -2   10.49    0.98 
  -2  10  -2   12.44    1.36 
  -3 -10  -2    1.03    0.74 
  -3 -10  -2    0.63    0.52 
  -3 -10  -2    0.65    0.91 
  -3 -10  -2   -0.09    0.72 
   3 -10   2    0.68    0.48 
  -3  10  -2    0.83    0.67 
  -3  10  -2    0.22    0.51 
   3  10   2    0.34    0.60 
  -3  10  -2    0.08    0.25 
  -4 -10  -2    3.33    1.18 
  -4 -10  -2    3.62    1.10 
  -4  10  -2    2.51    0.81 
  -4  10  -2    1.93    0.89 
  -5 -10  -2   -0.06    0.68 
  -5 -10  -2   -0.10    0.86 
  -5  10  -2    0.32    0.59 
  -5 -11   2    3.04    1.35 
  -5 -11   2    2.39    0.92 
  -5  11   2    1.35    0.90 
   5  11  -2    2.41    1.27 
  -4 -11   2    1.08    0.73 
  -4 -11   2    0.88    1.03 
  -4  11   2    1.27    0.84 
   4  11  -2    1.26    1.08 
  -3 -11   2   34.09    2.73 
  -3 -11   2   39.46    2.72 
  -3 -11   2   31.61    3.05 
   3  11  -2   38.57    2.22 
  -3  11   2   37.44    2.90 
   3  11  -2   34.32    3.15 
  -2 -11   2    4.19    0.95 
   2 -11  -2    5.79    0.97 
  -2 -11   2    4.50    1.00 
  -2 -11   2    8.22    1.30 
  -2 -11   2    4.82    1.16 
   2 -11  -2    7.28    0.81 
   2 -11  -2    6.61    0.93 
   2  11  -2    6.78    1.34 
   2  11  -2    8.03    1.06 
  -2  11   2    7.18    1.27 
  -1 -11   2   24.47    1.88 
   1 -11  -2   20.40    1.80 
   1 -11  -2   23.47    1.84 
  -1 -11   2   21.00    1.92 
  -1 -11   2   17.74    1.90 
   1 -11  -2   20.22    1.45 
   1 -11  -2   20.43    1.67 
   1 -11  -2   21.11    1.86 
  -1 -11   2   22.95    2.19 
  -1  11   2   21.90    2.04 
   1  11  -2   22.02    1.79 
   1  11  -2   20.66    1.73 
   1  11  -2   22.35    2.06 
   0 -11   2   12.31    1.44 
   0 -11  -2   10.30    1.38 
   0 -11  -2   11.73    1.29 
   0 -11   2   12.05    1.28 
   0 -11  -2   12.40    1.29 
   0 -11  -2   12.70    1.39 
   0 -11  -2   14.37    1.50 
   0 -11  -2   11.96    1.45 
   0  11   2   14.48    1.60 
   0  11  -2   13.42    1.36 
   0  11  -2   14.27    1.43 
   0  11   2   15.11    1.40 
   0  11   2   11.27    1.27 
  -1 -11  -2   13.45    1.40 
  -1 -11  -2   10.62    1.40 
  -1 -11  -2   13.52    1.61 
   1 -11   2   12.62    1.27 
   1 -11   2   13.59    1.25 
   1 -11   2   14.87    1.52 
   1 -11   2   13.90    1.03 
  -1 -11  -2   12.50    1.52 
   1 -11   2   17.70    1.54 
  -1 -11  -2   11.41    1.60 
  -1  11  -2   13.60    1.42 
   1  11   2   12.46    1.49 
   1  11   2   11.67    1.50 
  -1  11  -2   12.85    1.24 
   1  11   2   10.25    1.18 
  -1  11  -2   13.76    1.59 
  -2 -11  -2   65.19    4.45 
  -2 -11  -2   68.24    4.58 
   2 -11   2   73.30    4.34 
   2 -11   2   68.94    4.18 
  -2 -11  -2   71.48    4.30 
  -2 -11  -2   65.88    4.70 
   2 -11   2   64.69    3.85 
  -2  11  -2   69.29    4.35 
  -2  11  -2   67.31    3.88 
  -2  11  -2   68.19    4.45 
   2  11   2   66.69    4.57 
   2  11   2   64.52    4.08 
   2  11   2   72.18    4.01 
   2  11   2   66.64    4.36 
  -3 -11  -2    5.86    0.99 
  -3 -11  -2    7.62    1.44 
  -3 -11  -2    4.36    0.98 
   3 -11   2    6.59    0.91 
  -3  11  -2    5.71    1.07 
   3  11   2    4.69    1.25 
  -3  11  -2    5.25    1.28 
   3  11   2    5.63    0.86 
  -3  11  -2    3.31    0.51 
   3  11   2    4.37    0.64 
  -4 -11  -2    2.23    1.11 
  -4 -11  -2    1.27    0.82 
  -4  11  -2    1.82    0.97 
  -4  11  -2    3.28    0.94 
  -5 -11  -2    1.65    1.11 
  -5  11  -2    0.14    0.63 
  -5 -12   2    2.34    1.00 
  -5 -12   2    0.70    0.98 
   5  12  -2   -0.08    1.22 
  -5  12   2    1.24    1.05 
  -4 -12   2    2.02    0.86 
  -4 -12   2    2.05    1.25 
   4  12  -2    0.79    0.93 
  -4  12   2    2.34    1.10 
   3 -12  -2    0.27    0.41 
  -3 -12   2    1.54    0.80 
  -3 -12   2    1.81    0.97 
   3  12  -2    2.41    1.23 
  -3  12   2    0.52    0.77 
   3  12  -2    1.41    0.49 
  -2 -12   2    3.55    1.00 
  -2 -12   2    4.48    0.98 
   2 -12  -2    4.16    0.68 
   2 -12  -2    4.86    0.96 
   2 -12  -2    3.91    0.96 
  -2 -12   2    3.55    1.10 
   2  12  -2    4.40    1.32 
   2  12  -2    1.84    0.58 
   2  12  -2    4.08    0.79 
  -2  12   2    4.52    1.22 
   1 -12  -2    7.12    0.99 
  -1 -12   2    6.09    1.04 
   1 -12  -2    6.63    1.03 
   1 -12  -2    6.68    1.20 
   1 -12  -2    6.82    0.79 
   1 -12  -2    7.74    1.10 
  -1 -12   2    8.73    1.08 
  -1 -12   2    9.80    1.46 
  -1 -12   2    4.72    1.30 
  -1  12   2    7.45    1.33 
   1  12  -2    7.67    1.04 
   1  12  -2    7.59    1.31 
   1  12  -2    7.65    1.04 
   0 -12  -2   -0.34    0.44 
   0 -12  -2   -0.25    0.58 
   0 -12   2    0.16    0.50 
   0 -12  -2    0.44    0.66 
   0 -12   2   -0.73    0.41 
   0 -12   2   -0.18    0.68 
   0 -12  -2    0.14    0.55 
   0 -12   2    0.13    0.22 
   0 -12  -2   -0.38    0.51 
   0  12  -2    0.78    0.59 
   0  12  -2    0.78    0.62 
   0  12   2   -0.08    0.44 
   0  12   2   -0.60    0.43 
   0  12   2   -0.31    0.64 
   1 -12   2    8.25    1.07 
  -1 -12  -2    8.49    1.35 
   1 -12   2    9.90    1.36 
  -1 -12  -2    9.71    1.24 
  -1 -12  -2    9.87    1.45 
   1 -12   2    9.14    1.42 
  -1 -12  -2    8.20    1.30 
   1 -12   2    9.67    1.16 
   1 -12   2    9.41    0.88 
  -1 -12  -2    9.92    1.36 
   1  12   2   12.92    1.47 
   1  12   2    8.57    1.32 
  -1  12  -2   10.23    1.48 
   1  12   2    8.73    1.09 
  -1  12  -2   10.26    1.12 
   2 -12   2   16.57    1.35 
   2 -12   2   17.16    1.64 
  -2 -12  -2   19.05    2.06 
  -2 -12  -2   17.31    1.72 
  -2 -12  -2   16.86    1.90 
   2 -12   2   16.22    1.72 
   2  12   2   15.12    1.93 
   2  12   2   16.66    1.82 
  -2  12  -2   17.61    1.96 
   2  12   2   18.27    1.60 
   2  12   2   16.53    1.46 
  -2  12  -2   16.97    1.80 
  -2  12  -2   17.97    1.38 
  -3 -12  -2    0.23    0.66 
   3 -12   2    0.90    0.60 
  -3  12  -2    1.20    0.90 
  -3  12  -2    1.37    0.73 
   3  12   2    1.26    0.57 
   3  12   2    0.27    0.53 
  -4 -12  -2    0.13    0.93 
  -4  12  -2    2.21    1.05 
  -5 -12  -2    0.84    1.13 
  -5 -13   2    1.08    0.93 
  -5 -13   2    1.67    1.13 
  -5  13   2    0.55    1.05 
   5  13  -2    0.74    1.31 
  -4 -13   2    0.86    0.91 
  -4 -13   2    1.44    0.93 
   4  13  -2    1.30    1.28 
  -4  13   2    3.93    1.25 
  -3 -13   2    6.34    1.70 
  -3 -13   2    6.17    1.27 
   3  13  -2    5.12    0.96 
   3  13  -2    7.25    1.48 
  -3  13   2    4.85    1.36 
  -2 -13   2    9.74    1.37 
   2 -13  -2   11.22    1.13 
   2 -13  -2   12.24    1.50 
  -2 -13   2   10.25    1.40 
  -2 -13   2   11.12    1.77 
   2 -13  -2    9.77    1.36 
   2  13  -2   13.74    1.48 
  -2  13   2   11.19    1.54 
   2  13  -2   12.56    1.70 
  -1 -13   2   11.26    1.64 
   1 -13  -2    9.75    1.23 
  -1 -13   2    9.02    1.26 
   1 -13  -2   10.16    1.28 
  -1 -13   2    8.96    1.75 
  -1 -13   2   12.36    1.50 
   1 -13  -2    9.05    0.91 
   1 -13  -2    7.75    1.38 
   1  13  -2    5.01    1.04 
   1  13  -2    9.02    1.49 
  -1  13   2   10.66    1.55 
   1  13  -2   10.12    1.24 
   0 -13   2    4.08    1.26 
   0 -13  -2    7.59    1.19 
   0 -13   2    2.17    0.73 
   0 -13  -2    4.43    1.11 
   0 -13   2    6.84    1.03 
   0 -13  -2    6.70    1.37 
   0 -13  -2    7.11    1.10 
   0 -13   2    7.50    1.19 
   0  13  -2    5.46    1.06 
   0  13  -2    5.51    1.06 
   0  13   2    6.44    1.09 
   0  13   2    5.61    1.39 
  -1 -13  -2    4.19    1.25 
  -1 -13  -2    5.00    1.07 
  -1 -13  -2    4.46    1.06 
   1 -13   2    4.78    1.11 
   1 -13   2    4.53    0.88 
   1 -13   2    2.72    1.13 
  -1 -13  -2    5.50    1.01 
  -1  13  -2    4.85    0.87 
   1  13   2    4.40    1.10 
   1  13   2    3.65    0.89 
   1  13   2    7.15    1.01 
   1  13   2    4.88    1.04 
  -1  13  -2    5.74    1.42 
   2 -13   2   34.89    2.37 
   2 -13   2   37.96    2.75 
  -2 -13  -2   36.33    2.80 
  -2 -13  -2   35.46    2.93 
  -2 -13  -2   38.31    3.19 
   2 -13   2   36.33    2.85 
  -2  13  -2   39.69    3.06 
  -2  13  -2   35.73    2.38 
   2  13   2   34.22    2.61 
   2  13   2   33.81    2.89 
   2  13   2   42.49    3.27 
  -3 -13  -2    0.76    0.75 
  -3  13  -2    1.13    0.98 
   3  13   2    0.69    0.62 
  -4 -13  -2    3.57    1.46 
  -5 -13  -2    0.98    1.10 
  -4 -14   2    8.39    1.54 
  -4 -14   2    2.53    1.27 
  -4  14   2    7.37    1.55 
   4  14  -2    6.85    1.79 
  -3 -14   2    0.58    0.79 
  -3 -14   2    2.07    1.24 
   3  14  -2    1.00    0.90 
   3  14  -2    0.86    0.79 
  -3  14   2   -0.22    0.79 
  -2 -14   2    0.00    0.59 
   2 -14  -2   -0.41    0.66 
  -2 -14   2    0.10    0.87 
   2 -14  -2   -0.51    0.52 
  -2 -14   2    1.68    0.81 
   2 -14  -2   -0.31    0.43 
   2  14  -2    0.62    0.67 
   2  14  -2    0.04    0.67 
  -2  14   2    0.85    0.94 
  -1 -14   2   19.83    1.91 
   1 -14  -2   17.07    1.70 
  -1 -14   2   25.50    2.60 
   1 -14  -2   19.58    2.00 
   1 -14  -2   20.20    2.09 
  -1 -14   2   17.40    2.18 
   1  14  -2   19.54    1.86 
   1  14  -2   18.44    2.11 
  -1  14   2   19.71    2.07 
   0 -14   2    7.39    1.17 
   0 -14  -2    8.06    1.40 
   0 -14  -2    7.20    1.17 
   0 -14  -2    6.01    1.42 
   0 -14   2    8.06    1.45 
   0 -14   2    6.57    1.60 
   0  14  -2    4.87    1.10 
   0  14   2    5.82    1.51 
   0  14  -2    6.19    1.57 
   1 -14   2    3.71    0.91 
  -1 -14  -2    3.22    1.03 
  -1 -14  -2    4.40    1.40 
   1 -14   2    4.17    0.99 
   1 -14   2    6.30    1.37 
   1  14   2    3.29    1.17 
   1  14   2    5.59    1.22 
  -1  14  -2    2.93    0.88 
   1  14   2    5.63    1.11 
  -2 -14  -2    6.57    1.35 
   2 -14   2    5.19    1.10 
  -2 -14  -2    5.53    1.16 
  -2 -14  -2    4.15    1.25 
   2 -14   2    6.83    1.29 
   2 -14   2    3.86    0.75 
   2  14   2    5.22    1.22 
  -2  14  -2    7.24    1.51 
   2  14   2    6.56    1.08 
  -3 -14  -2    3.62    1.06 
  -3 -14  -2    3.50    1.23 
  -3  14  -2    1.86    1.10 
   3  14   2    3.50    0.96 
  -4 -14  -2    1.43    1.10 
  -4 -15   2    7.77    1.70 
  -4  15   2    7.04    1.77 
   4  15  -2    4.93    1.76 
  -3 -15   2    0.37    1.08 
   3  15  -2   -0.61    1.07 
  -3  15   2   -0.09    0.93 
  -2 -15   2    5.72    1.31 
   2 -15  -2    4.86    1.13 
  -2 -15   2    5.24    1.52 
   2 -15  -2    3.87    0.92 
   2 -15  -2    3.85    0.89 
  -2  15   2    3.32    1.34 
   2  15  -2    3.14    1.03 
   2  15  -2    5.35    1.55 
   1 -15  -2    0.44    0.78 
  -1 -15   2    0.51    0.71 
   1 -15  -2    0.76    0.64 
   1 -15  -2    0.44    0.78 
  -1 -15   2   -0.02    0.89 
   1  15  -2   -1.03    0.73 
   1  15  -2    0.81    0.75 
  -1  15   2    0.14    0.71 
   0 -15   2   -0.13    0.81 
   0 -15  -2    0.60    0.69 
   0 -15  -2    0.79    0.70 
   0 -15   2    0.30    0.62 
   0  15   2    0.33    0.99 
   0  15  -2    0.31    0.69 
   1 -15   2   -0.94    0.65 
   1 -15   2   -0.26    0.51 
  -1 -15  -2   -0.08    0.65 
   1 -15   2    0.35    0.81 
  -1 -15  -2    0.77    0.78 
   1  15   2    0.59    0.60 
  -1  15  -2    0.00    0.67 
   1  15   2   -0.29    0.90 
   2 -15   2    1.15    0.77 
  -2 -15  -2    0.31    0.75 
   2 -15   2    0.96    0.52 
   2 -15   2    0.00    0.75 
  -2 -15  -2    0.25    0.71 
   2  15   2    0.13    0.65 
  -3 -15  -2    1.17    1.12 
   3  15   2    0.34    0.67 
  -4 -15  -2    2.30    1.15 
  -3 -16   2    2.35    1.36 
   3  16  -2    1.05    1.06 
  -3  16   2   -0.50    1.02 
   2 -16  -2    2.64    0.80 
  -2 -16   2    5.07    1.53 
  -2 -16   2    6.00    1.61 
   2 -16  -2    5.40    1.24 
  -2  16   2    7.15    1.63 
   2  16  -2    4.35    1.55 
  -1 -16   2    3.48    1.10 
  -1 -16   2    3.29    1.32 
   1 -16  -2    3.42    0.93 
   1 -16  -2    3.24    1.03 
   1  16  -2    3.97    1.35 
  -1  16   2    1.80    1.07 
   0 -16   2   -0.36    0.84 
   0 -16   2   -0.30    0.58 
   0 -16  -2   -0.31    0.76 
   0 -16  -2    0.11    0.67 
   0  16  -2   -0.64    0.65 
   0  16   2   -0.81    0.94 
   1 -16   2    1.18    0.93 
   1 -16   2   -0.45    0.60 
  -1 -16  -2    2.45    1.06 
  -1 -16  -2    0.45    0.74 
   1  16   2    0.31    1.03 
   1  16   2    1.84    0.92 
  -1  16  -2    0.99    0.81 
  -2 -16  -2    2.15    1.05 
   2 -16   2    1.35    0.90 
  -2 -16  -2    1.23    0.87 
   2 -16   2    0.90    0.60 
   2  16   2    1.33    0.86 
  -3 -16  -2    1.73    1.32 
   3  16   2    2.09    0.91 
  -3 -17   2    1.38    1.35 
  -3  17   2    3.14    1.51 
   3  17  -2    2.01    1.40 
   2 -17  -2    0.51    0.62 
   2 -17  -2    0.76    0.86 
  -2 -17   2    0.09    0.78 
  -2  17   2   -0.55    1.05 
   2  17  -2   -0.54    1.13 
   1 -17  -2    3.62    1.27 
   1 -17  -2    3.16    0.97 
  -1 -17   2    2.73    0.98 
  -1 -17   2    2.11    1.31 
  -1  17   2    1.53    1.06 
   1  17  -2    3.31    1.29 
   0 -17   2    3.48    1.37 
   0 -17   2    0.76    0.84 
   0 -17  -2    0.99    0.84 
   0 -17  -2    1.27    0.85 
   0  17   2   -0.25    1.05 
   0  17  -2    3.89    1.25 
  -1 -17  -2    0.48    0.77 
   1 -17   2    1.24    0.82 
  -1 -17  -2    0.48    0.96 
   1 -17   2    0.23    0.69 
   1  17   2   -0.38    1.07 
   2 -17   2    3.21    0.85 
   2 -17   2    0.71    0.91 
  -2 -17  -2    5.60    1.71 
  -3 -17  -2    0.93    1.20 
   2 -18  -2    2.58    0.82 
  -2 -18   2    1.15    1.00 
   2 -18  -2    1.83    1.12 
   2  18  -2    3.26    1.54 
  -2  18   2    2.05    1.47 
  -1 -18   2   -0.17    0.78 
   1 -18  -2    0.18    0.74 
  -1 -18   2    0.71    1.27 
   1 -18  -2    0.14    0.90 
  -1  18   2    0.35    0.88 
   1  18  -2   -0.01    0.93 
   0 -18  -2    1.43    1.16 
   0 -18  -2   -0.29    0.76 
   0 -18   2   -0.10    0.74 
   0 -18   2    0.30    1.02 
   0  18  -2   -0.62    0.68 
   0  18   2    0.93    1.22 
   1 -18   2    0.35    0.75 
   1 -18   2    0.13    0.96 
  -1 -18  -2    2.64    1.05 
  -1 -18  -2    0.82    0.83 
  -2 -18  -2   -1.27    1.01 
   2 -18   2    0.46    0.65 
   2 -18   2   -1.10    0.66 
   1 -19  -2    1.13    0.91 
   1 -19  -2    0.38    1.02 
  -1 -19   2    0.55    0.92 
  -1 -19   2    0.16    1.26 
  -1  19   2    0.09    0.96 
   1  19  -2   -0.37    0.93 
   0 -19   2    9.72    1.58 
   0 -19   2   10.67    1.83 
   0 -19  -2    6.97    1.52 
   0 -19  -2   12.80    2.02 
   0  19   2    9.36    2.26 
  -1 -19  -2    1.05    0.97 
   1 -19   2    0.61    0.80 
   1 -19   2    1.10    1.11 
  -1 -19  -2    0.30    0.87 
  -6   0   3    0.23    0.61 
  -5   0   3   -0.15    0.36 
  -5   0   3   -0.03    0.57 
  -4   0   3    0.19    0.19 
  -4   0   3   -0.30    0.34 
  -4   0   3    0.01    0.36 
   4   0  -3    0.31    0.50 
   3   0  -3    0.05    0.40 
  -3   0   3   -0.16    0.12 
  -3   0   3    0.31    0.39 
   2   0  -3   -0.07    0.29 
  -2   0   3   -0.27    0.23 
   1   0  -3   -0.01    0.08 
   1   0  -3   -0.03    0.21 
  -1   0   3   -0.08    0.18 
  -1   0   3   -0.07    0.10 
  -1   0   3    0.05    0.07 
  -1   0   3   -0.13    0.08 
  -1   0   3    0.09    0.11 
   0   0  -3    0.04    0.07 
   0   0  -3    0.01    0.08 
   0   0   3   -0.04    0.09 
   0   0   3   -0.10    0.11 
   1   0   3    0.11    0.15 
  -1   0  -3   -0.08    0.16 
   1   0   3    0.00    0.15 
   1   0   3   -0.06    0.14 
  -1   0  -3    0.06    0.14 
  -2   0  -3   -0.15    0.20 
  -2   0  -3   -0.12    0.12 
   2   0   3   -0.01    0.23 
  -2   0  -3    0.20    0.15 
   3   0   3   -0.17    0.31 
  -3   0  -3   -0.21    0.13 
  -3   0  -3    0.12    0.49 
  -3   0  -3    0.07    0.27 
  -3   0  -3   -0.14    0.21 
  -4   0  -3    0.21    0.37 
  -4   0  -3    0.02    0.31 
  -4   0  -3    0.05    0.20 
  -5   0  -3    0.16    0.25 
  -5   0  -3    0.03    0.39 
  -5   0  -3   -0.34    0.42 
  -6   0  -3   -0.72    0.45 
  -6   0  -3    0.14    0.29 
  -6  -1   3   -0.33    0.66 
  -6   1   3    1.68    0.86 
  -5  -1   3    3.93    1.03 
  -5  -1   3    4.04    0.80 
  -5   1   3    5.24    0.92 
   5   1  -3    4.53    1.16 
  -5   1   3    3.25    0.51 
  -4  -1   3    4.60    0.84 
  -4  -1   3    6.31    0.93 
   4  -1  -3    5.65    0.93 
   4   1  -3    4.33    0.89 
  -4   1   3    5.39    0.56 
  -4   1   3    6.13    0.72 
  -3  -1   3   11.69    1.11 
  -3  -1   3   13.55    1.20 
   3  -1  -3   12.03    1.15 
   3   1  -3   10.65    1.17 
  -3   1   3   10.55    1.04 
  -2  -1   3    5.42    0.73 
   2  -1  -3    6.53    0.68 
   2   1  -3    5.93    0.78 
  -2   1   3    6.25    0.61 
   1  -1  -3   16.93    0.89 
  -1  -1   3   15.74    0.96 
  -1  -1   3   16.71    0.95 
  -1  -1   3   15.27    1.09 
   1  -1  -3   16.42    1.01 
   1   1  -3   16.00    0.87 
   1   1  -3   16.41    1.12 
   1   1  -3   17.03    0.94 
  -1   1   3   15.71    0.93 
  -1   1   3   16.24    0.96 
  -1   1   3   16.07    0.91 
   1   1  -3   16.46    0.87 
   1   1  -3   15.87    0.89 
   0  -1   3    4.64    0.38 
   0  -1   3    5.12    0.39 
   0  -1  -3    5.15    0.39 
   0  -1  -3    4.87    0.39 
   0  -1   3    5.04    0.41 
   0   1  -3    4.94    0.38 
   0   1   3    4.92    0.39 
   0   1   3    5.24    0.43 
   0   1  -3    5.32    0.40 
   0   1  -3    4.82    0.39 
   0   1   3    4.85    0.40 
  -1  -1  -3    6.63    0.59 
   1  -1   3    7.26    0.50 
  -1  -1  -3    6.55    0.56 
  -1  -1  -3    7.61    0.56 
   1   1   3    6.72    0.57 
  -1   1  -3    6.22    0.61 
   1   1   3    8.57    0.70 
   1   1   3    7.51    0.59 
   1   1   3    7.51    0.63 
   1   1   3    7.75    0.59 
  -1   1  -3    8.37    0.53 
   2  -1   3    5.26    0.50 
  -2  -1  -3    3.98    0.46 
  -2  -1  -3    6.36    0.59 
  -2  -1  -3    4.72    0.49 
  -2  -1  -3    5.96    0.59 
   2   1   3    4.67    0.48 
  -2   1  -3    5.32    0.31 
   2   1   3    4.57    0.56 
  -2   1  -3    5.50    0.62 
  -2   1  -3    4.53    0.40 
   2   1   3    3.86    0.61 
  -3  -1  -3    7.17    0.67 
  -3  -1  -3    8.04    0.67 
  -3  -1  -3    8.65    0.80 
   3  -1   3    7.73    0.77 
  -3  -1  -3    8.24    0.83 
  -3  -1  -3    8.67    0.76 
  -3   1  -3    7.87    0.98 
   3   1   3    7.40    0.89 
  -3   1  -3    6.90    0.58 
  -3   1  -3    8.43    0.61 
  -3   1  -3    8.60    0.83 
  -4  -1  -3   25.66    1.83 
  -4  -1  -3   28.60    1.95 
  -4  -1  -3   27.77    1.72 
  -4   1  -3   27.73    1.70 
  -4   1  -3   26.99    1.60 
  -4   1  -3   25.72    1.92 
  -5  -1  -3   34.52    2.19 
  -5  -1  -3   34.15    2.40 
  -5  -1  -3   37.96    2.52 
  -5   1  -3   39.61    2.59 
  -5   1  -3   39.09    2.37 
  -5   1  -3   34.87    2.10 
  -6  -1  -3    3.60    0.57 
  -6   1  -3    2.80    0.84 
  -6   1  -3    3.88    0.50 
  -6  -2   3    4.58    1.23 
  -6   2   3    4.38    1.16 
  -5  -2   3    3.69    1.04 
  -5  -2   3    3.47    0.90 
   5   2  -3    3.88    1.14 
  -5   2   3    3.32    0.87 
  -5   2   3    3.55    0.57 
  -4  -2   3    0.18    0.48 
  -4  -2   3    0.54    0.45 
   4  -2  -3    0.00    0.42 
  -4   2   3   -0.56    0.32 
  -4   2   3   -0.15    0.22 
   4   2  -3    0.28    0.60 
  -4   2   3    0.24    0.22 
  -3  -2   3   12.42    1.18 
   3  -2  -3   11.87    1.12 
  -3   2   3   12.14    1.05 
   3   2  -3   14.71    1.46 
   2  -2  -3   86.22    4.62 
  -2  -2   3   84.58    4.38 
  -2  -2   3   83.52    4.78 
  -2  -2   3   86.70    4.84 
  -2   2   3   85.38    4.53 
  -2   2   3   85.15    4.40 
   2   2  -3   85.58    4.33 
   2   2  -3   90.38    4.94 
  -2   2   3   82.97    4.34 
   1  -2  -3   17.08    1.04 
  -1  -2   3   19.73    1.22 
  -1  -2   3   19.12    1.13 
  -1  -2   3   19.18    1.30 
  -1  -2   3   18.38    1.28 
   1  -2  -3   19.32    1.03 
  -1  -2   3   18.30    1.16 
   1  -2  -3   18.97    1.07 
  -1   2   3   18.94    1.03 
  -1   2   3   19.56    1.09 
   1   2  -3   18.69    1.13 
   1   2  -3   20.21    1.10 
  -1   2   3   17.98    1.11 
   1   2  -3   15.55    1.25 
   0  -2  -3   13.51    0.90 
   0  -2   3   15.30    0.97 
   0  -2   3   13.67    0.88 
   0  -2  -3   14.90    0.92 
   0  -2   3   13.36    0.88 
   0  -2   3   15.21    0.96 
   0  -2   3   13.93    0.88 
   0   2   3   15.85    0.96 
   0   2   3   15.03    0.97 
   0   2   3   14.41    0.88 
   0   2  -3   15.18    0.92 
   0   2  -3   14.19    0.90 
   0   2  -3   13.48    0.91 
   0   2  -3   13.00    0.90 
   0   2  -3   14.18    0.88 
   0   2   3   14.05    0.99 
  -1  -2  -3   76.49    3.99 
   1  -2   3   76.77    3.93 
  -1  -2  -3   78.20    4.16 
  -1  -2  -3   80.08    4.10 
  -1  -2  -3   72.14    4.07 
  -1  -2  -3   74.76    4.05 
   1  -2   3   76.01    3.95 
   1   2   3   76.62    4.10 
   1   2   3   76.44    4.09 
   1   2   3   77.61    4.23 
  -1   2  -3   75.66    3.98 
   1   2   3   76.66    4.11 
   1   2   3   73.13    4.07 
   1   2   3   74.40    3.87 
  -2  -2  -3    5.18    0.58 
  -2  -2  -3    6.32    0.64 
  -2  -2  -3    8.74    0.98 
  -2  -2  -3   10.66    0.86 
  -2  -2  -3    6.19    0.66 
   2  -2   3    6.64    0.45 
  -2  -2  -3    7.80    0.66 
   2   2   3    8.35    0.72 
   2   2   3    5.36    0.62 
   2   2   3    5.99    0.53 
  -3  -2  -3    7.66    0.89 
  -3  -2  -3    8.81    0.88 
  -3  -2  -3    8.46    0.78 
  -3  -2  -3    9.10    0.87 
   3  -2   3    8.53    0.77 
  -3  -2  -3    8.38    0.77 
  -3   2  -3    9.19    0.64 
  -3   2  -3   11.38    1.00 
   3   2   3    8.00    1.02 
   3   2   3    8.95    0.82 
  -3   2  -3    9.94    0.61 
  -4  -2  -3    0.56    0.45 
  -4  -2  -3    0.38    0.34 
  -4  -2  -3    0.45    0.35 
  -4  -2  -3    0.18    0.38 
  -4  -2  -3    0.45    0.47 
  -4   2  -3    0.06    0.35 
  -4   2  -3    0.20    0.19 
  -4   2  -3    0.36    0.26 
  -5  -2  -3   61.66    3.68 
  -5  -2  -3   61.53    3.45 
  -5   2  -3   55.32    3.19 
  -5   2  -3   58.09    3.71 
  -6  -2  -3    0.20    0.37 
  -6   2  -3    0.16    0.25 
  -6   2  -3   -0.18    0.49 
  -6  -3   3    2.03    1.02 
  -6   3   3    2.67    0.33 
  -6   3   3    3.29    0.38 
  -5  -3   3    0.62    0.70 
  -5  -3   3   -0.46    0.60 
   5   3  -3   -0.87    0.67 
  -5   3   3   -0.03    0.11 
  -5   3   3    0.42    0.37 
  -5   3   3    0.02    0.10 
  -4  -3   3    1.47    0.72 
  -4  -3   3    1.93    0.25 
  -4  -3   3    0.84    0.59 
   4   3  -3    0.49    0.75 
  -4   3   3    2.36    0.62 
  -4   3   3    2.19    0.19 
  -4   3   3    2.27    0.22 
  -3  -3   3   42.08    2.90 
  -3  -3   3   45.41    2.38 
   3  -3  -3   42.08    2.63 
  -3   3   3   43.25    2.32 
  -3   3   3   43.92    2.37 
   3   3  -3   45.68    2.37 
  -3   3   3   44.90    2.59 
   3   3  -3   46.42    3.15 
   2  -3  -3   10.11    0.78 
  -2  -3   3   11.69    1.12 
  -2  -3   3    9.32    0.97 
  -2  -3   3    9.36    0.72 
   2   3  -3    9.90    1.13 
  -2   3   3    9.10    0.72 
  -2   3   3   10.20    0.68 
  -2   3   3   10.37    0.67 
  -2   3   3   11.92    0.69 
  -1  -3   3    1.64    0.44 
   1   3  -3    1.42    0.30 
   1   3  -3    0.25    0.24 
  -1   3   3    2.25    0.31 
   1   3  -3    1.68    0.46 
   0  -3   3  322.70   16.03 
   0  -3   3  312.49   15.92 
   0  -3  -3  310.73   15.95 
   0  -3  -3  318.00   15.98 
   0  -3  -3  310.23   16.03 
   0  -3   3  313.70   15.92 
   0  -3  -3  313.32   16.01 
   0  -3   3  308.74   15.94 
   0   3  -3  312.32   15.96 
   0   3   3  319.77   16.04 
   0   3  -3  314.62   16.00 
   0   3  -3  307.57   15.98 
   0   3   3  312.74   16.02 
   0   3   3  304.10   16.06 
   0   3   3  316.40   16.01 
   0   3  -3  313.27   15.97 
   0   3  -3  311.16   15.94 
   0   3   3  315.09   15.93 
   1  -3   3   53.13    2.88 
   1  -3   3   53.64    3.01 
  -1  -3  -3   54.12    3.03 
  -1  -3  -3   51.86    3.02 
  -1  -3  -3   53.05    3.00 
   1  -3   3   55.50    2.86 
  -1  -3  -3   53.12    2.90 
  -1  -3  -3   52.19    3.10 
  -1   3  -3   49.99    2.89 
   1   3   3   55.59    3.08 
   1   3   3   54.62    2.82 
   1   3   3   53.09    3.03 
   1   3   3   51.90    3.01 
   1   3   3   53.98    3.19 
  -1   3  -3   54.74    2.87 
  -2  -3  -3   74.91    4.19 
  -2  -3  -3   73.81    4.47 
  -2  -3  -3   78.11    4.26 
   2  -3   3   76.36    3.99 
  -2  -3  -3   77.41    4.03 
  -2  -3  -3   73.33    3.97 
  -2  -3  -3   79.05    4.36 
  -2  -3  -3   75.87    4.16 
   2   3   3   77.55    4.46 
   2   3   3   76.63    4.09 
  -2   3  -3   74.04    4.00 
  -2   3  -3   74.92    3.91 
   2   3   3   73.99    4.24 
  -3  -3  -3    0.02    0.30 
   3  -3   3    0.50    0.23 
  -3  -3  -3    0.02    0.32 
  -3  -3  -3    0.81    0.35 
  -3  -3  -3    1.73    0.55 
  -3   3  -3    0.46    0.14 
  -3   3  -3    0.75    0.18 
  -3   3  -3    0.28    0.17 
   3   3   3    0.93    0.42 
   3   3   3    0.41    0.51 
  -4  -3  -3    8.85    1.02 
  -4  -3  -3    7.03    1.04 
  -4  -3  -3    8.15    0.88 
  -4  -3  -3    7.93    0.87 
  -4   3  -3    8.86    0.67 
  -4   3  -3    9.31    0.63 
  -4   3  -3    8.50    0.98 
  -4   3  -3    9.70    0.70 
  -5  -3  -3    9.87    1.28 
  -5  -3  -3   14.26    1.41 
  -5  -3  -3   13.54    1.19 
  -5   3  -3   12.30    0.92 
  -5   3  -3   12.37    1.37 
  -6  -3  -3    1.02    0.50 
  -6   3  -3    1.84    0.43 
  -6   3  -3    1.46    0.75 
  -6  -4   3    0.70    0.90 
  -6   4   3    0.70    0.33 
  -6   4   3    0.24    0.31 
  -5  -4   3    0.24    0.55 
  -5  -4   3    0.77    0.75 
  -5   4   3    0.75    0.28 
  -5   4   3    0.84    0.32 
   5   4  -3    0.33    0.66 
  -5   4   3    0.74    0.27 
  -4  -4   3    7.75    1.17 
  -4  -4   3    6.16    0.56 
  -4  -4   3    4.20    1.01 
  -4   4   3    4.93    0.71 
   4   4  -3    7.21    1.38 
  -4   4   3    5.99    0.54 
  -4   4   3    5.51    0.52 
  -3  -4   3    3.68    0.44 
  -3  -4   3    3.53    0.63 
  -3  -4   3    2.72    0.66 
   3   4  -3    3.56    0.36 
  -3   4   3    3.20    0.41 
   3   4  -3    2.09    0.72 
  -3   4   3    2.96    0.26 
  -3   4   3    3.29    0.42 
  -3   4   3    2.48    0.36 
  -2  -4   3   19.38    1.20 
   2  -4  -3   17.83    1.03 
  -2  -4   3   16.29    1.22 
  -2  -4   3   17.01    1.50 
  -2  -4   3   14.44    1.25 
  -2  -4   3   20.28    1.56 
   2   4  -3   16.76    1.51 
  -2   4   3   17.83    1.13 
  -2   4   3   15.54    1.13 
  -2   4   3   16.73    1.11 
  -2   4   3   18.13    0.95 
  -1  -4   3    0.42    0.30 
  -1  -4   3    0.09    0.19 
   1  -4  -3    0.72    0.27 
   1  -4  -3    1.06    0.25 
  -1  -4   3    2.00    0.44 
  -1  -4   3    1.74    0.33 
   1  -4  -3    0.91    0.26 
  -1  -4   3    1.07    0.32 
  -1   4   3    0.90    0.29 
   1   4  -3    1.74    0.44 
  -1   4   3    0.74    0.29 
  -1   4   3    1.20    0.34 
   1   4  -3    1.34    0.41 
   1   4  -3    0.36    0.22 
  -1   4   3    0.36    0.27 
  -1   4   3    1.28    0.36 
   0  -4   3    0.12    0.18 
   0  -4  -3    0.21    0.25 
   0  -4  -3    0.42    0.29 
   0  -4   3    0.17    0.18 
   0  -4   3    0.54    0.29 
   0  -4  -3    0.33    0.26 
   0  -4   3    0.15    0.16 
   0  -4  -3    0.14    0.25 
   0  -4  -3    0.49    0.27 
   0   4   3    0.15    0.30 
   0   4  -3    0.15    0.22 
   0   4   3   -0.26    0.31 
   0   4  -3   -0.19    0.13 
   0   4  -3    0.29    0.20 
   0   4   3    0.35    0.33 
   0   4  -3    0.42    0.22 
   0   4   3    0.37    0.24 
   0   4  -3    0.32    0.22 
   0   4   3    0.25    0.26 
   1  -4   3   16.99    1.10 
  -1  -4  -3   16.28    1.17 
  -1  -4  -3   14.64    1.27 
  -1  -4  -3   15.38    1.16 
   1  -4   3   14.58    1.15 
  -1  -4  -3   13.13    1.24 
  -1  -4  -3   15.70    1.07 
  -1  -4  -3   14.79    1.21 
   1  -4   3   16.10    1.01 
  -1   4  -3   14.75    0.97 
  -1   4  -3   15.14    1.06 
   1   4   3   15.35    1.20 
   1   4   3   16.81    1.04 
   1   4   3   19.43    1.31 
   1   4   3   17.12    1.23 
   1   4   3   15.98    1.35 
  -1   4  -3   16.05    1.04 
  -1   4  -3   15.38    1.07 
  -2  -4  -3    1.37    0.31 
  -2  -4  -3    2.14    0.51 
   2  -4   3    1.71    0.40 
  -2  -4  -3    2.08    0.55 
  -2  -4  -3    1.50    0.50 
  -2  -4  -3    2.20    0.49 
  -2  -4  -3    1.85    0.69 
  -2  -4  -3    2.61    0.34 
  -2   4  -3    2.23    0.34 
  -2   4  -3    2.85    0.37 
   2   4   3    1.78    0.47 
   2   4   3    2.83    0.75 
   2   4   3    2.55    0.60 
  -3  -4  -3    1.66    0.47 
  -3  -4  -3    1.57    0.57 
   3  -4   3    2.14    0.31 
  -3  -4  -3    2.36    0.56 
  -3  -4  -3    1.37    0.34 
  -3  -4  -3    1.60    0.60 
  -3  -4  -3    2.05    0.37 
  -3   4  -3    2.20    0.34 
   3   4   3    2.71    0.60 
  -3   4  -3    2.00    0.30 
  -4  -4  -3    3.58    0.82 
  -4  -4  -3    4.25    0.81 
  -4  -4  -3    3.42    0.69 
  -4  -4  -3    4.16    0.53 
  -4  -4  -3    3.39    0.58 
  -4   4  -3    4.05    0.43 
  -4   4  -3    4.40    0.43 
  -4   4  -3    4.29    0.50 
  -4   4  -3    4.08    0.84 
  -5  -4  -3    1.06    0.72 
  -5  -4  -3    0.94    0.49 
  -5  -4  -3    1.88    0.78 
  -5  -4  -3    0.64    0.47 
  -5   4  -3    0.27    0.27 
  -5   4  -3    0.66    0.59 
  -6  -4  -3    9.43    1.11 
  -6   4  -3    7.24    1.16 
  -6   4  -3    8.54    0.82 
  -6  -5   3    2.25    1.14 
  -6   5   3    3.69    0.59 
  -5  -5   3    0.50    0.77 
  -5  -5   3   -0.21    0.75 
  -5  -5   3    1.40    0.69 
  -5   5   3    0.18    0.29 
  -5   5   3    1.12    0.43 
   5   5  -3    1.57    0.91 
  -5   5   3   -0.12    0.30 
  -4  -5   3    2.03    0.83 
  -4  -5   3    0.92    0.37 
  -4  -5   3    1.15    0.51 
  -4  -5   3    1.75    0.83 
  -4   5   3    1.22    0.37 
  -4   5   3    0.88    0.35 
  -4   5   3    0.86    0.37 
   4   5  -3    0.92    0.28 
  -4   5   3    0.68    0.34 
   4   5  -3    0.90    0.71 
  -3  -5   3   14.72    1.51 
  -3  -5   3   13.21    1.21 
  -3  -5   3   13.41    1.02 
   3   5  -3   13.99    0.94 
   3   5  -3   14.23    1.54 
  -3   5   3   11.49    1.00 
  -3   5   3   12.92    0.82 
  -3   5   3   13.74    1.05 
  -3   5   3   15.88    1.08 
  -2  -5   3    7.38    1.00 
  -2  -5   3    8.00    0.73 
  -2  -5   3    7.35    0.78 
  -2  -5   3    5.68    0.69 
  -2   5   3    6.55    0.73 
   2   5  -3    6.51    1.04 
  -2   5   3    6.94    0.70 
  -2   5   3    6.60    0.64 
   2   5  -3    6.51    0.50 
  -2   5   3    6.17    0.63 
  -2   5   3    6.37    0.67 
   1  -5  -3    1.39    0.25 
  -1  -5   3    2.03    0.46 
   1  -5  -3    1.45    0.35 
  -1  -5   3    1.10    0.41 
   1  -5  -3    0.82    0.33 
  -1  -5   3    0.99    0.37 
  -1  -5   3    0.92    0.45 
  -1  -5   3    0.92    0.49 
   1  -5  -3    1.53    0.35 
   1  -5  -3    1.28    0.32 
   1   5  -3    2.07    0.44 
   1   5  -3    0.99    0.50 
   1   5  -3    0.92    0.31 
   1   5  -3    2.06    0.56 
  -1   5   3    1.25    0.41 
  -1   5   3    1.42    0.43 
  -1   5   3    0.46    0.30 
  -1   5   3    1.92    0.47 
  -1   5   3    1.73    0.41 
   0  -5   3   10.67    0.80 
   0  -5  -3   10.02    0.85 
   0  -5  -3   11.35    0.92 
   0  -5   3    8.57    0.78 
   0  -5   3    8.30    0.78 
   0  -5  -3    9.13    0.89 
   0  -5  -3    9.26    0.84 
   0  -5  -3    8.45    0.81 
   0  -5   3    9.52    0.94 
   0   5   3   11.10    0.95 
   0   5  -3    9.63    0.85 
   0   5  -3    9.24    0.90 
   0   5   3    9.33    0.91 
   0   5   3   10.39    0.84 
   0   5   3    7.80    0.89 
   0   5  -3    9.45    0.80 
   0   5  -3   10.53    0.88 
   0   5   3   10.39    0.92 
   0   5  -3    9.58    0.84 
   1  -5   3   18.14    1.29 
  -1  -5  -3   19.64    1.48 
  -1  -5  -3   17.66    1.26 
  -1  -5  -3   16.71    1.37 
   1  -5   3   17.91    1.20 
  -1  -5  -3   17.67    1.46 
  -1  -5  -3   17.32    1.39 
  -1   5  -3   19.22    1.18 
   1   5   3   16.55    1.43 
   1   5   3   18.55    1.54 
  -1   5  -3   21.64    1.34 
  -1   5  -3   18.76    1.30 
   1   5   3   19.62    1.41 
  -1   5  -3   19.68    1.27 
   1   5   3   17.23    1.20 
  -2  -5  -3   31.04    2.22 
  -2  -5  -3   31.94    2.19 
  -2  -5  -3   34.72    2.38 
  -2  -5  -3   32.71    2.01 
   2  -5   3   34.16    2.03 
   2  -5   3   33.21    1.90 
  -2   5  -3   34.42    1.98 
   2   5   3   34.81    2.13 
   2   5   3   30.22    2.25 
   2   5   3   32.60    2.42 
  -2   5  -3   33.61    2.02 
  -2   5  -3   31.43    1.94 
  -3  -5  -3    3.92    0.77 
  -3  -5  -3    5.07    0.79 
  -3  -5  -3    5.93    0.60 
  -3  -5  -3    5.03    0.55 
  -3  -5  -3    4.03    0.79 
  -3   5  -3    4.68    0.50 
  -3   5  -3    4.36    0.54 
  -4  -5  -3    4.08    0.87 
  -4  -5  -3    3.80    0.93 
  -4  -5  -3    3.62    0.56 
  -4  -5  -3    4.62    0.60 
  -4  -5  -3    5.74    0.84 
  -4   5  -3    4.75    0.59 
  -4   5  -3    4.38    0.50 
  -4   5  -3    3.41    0.82 
  -5  -5  -3    7.43    0.93 
  -5  -5  -3    6.05    1.16 
  -5  -5  -3    7.27    1.22 
  -5  -5  -3    8.49    1.06 
  -5   5  -3    7.67    1.15 
  -5   5  -3    6.43    0.74 
  -6  -5  -3   10.13    1.23 
  -6   5  -3    7.82    0.87 
  -6   5  -3    8.26    1.27 
  -6  -6   3    2.22    1.17 
  -6   6   3    2.35    0.59 
   6   6  -3    4.05    1.35 
  -5  -6   3    0.59    0.65 
  -5  -6   3    1.68    1.09 
  -5  -6   3    0.82    0.90 
  -5   6   3    1.13    0.44 
  -5   6   3    0.78    0.50 
   5   6  -3    1.89    1.15 
  -5   6   3    1.00    0.48 
  -4  -6   3    5.45    1.10 
  -4  -6   3    6.48    0.98 
  -4  -6   3    8.49    1.25 
  -4  -6   3    5.79    0.78 
  -4   6   3    7.44    0.56 
  -4   6   3    8.07    0.84 
   4   6  -3    6.37    0.66 
  -4   6   3    7.10    0.84 
   4   6  -3    7.45    1.33 
  -4   6   3    7.84    0.86 
  -3  -6   3    7.26    1.20 
  -3  -6   3    8.75    1.00 
  -3  -6   3    9.88    0.90 
   3   6  -3    8.06    1.36 
  -3   6   3    9.48    0.92 
  -3   6   3    9.88    0.96 
  -3   6   3   10.30    0.94 
  -2  -6   3   49.10    3.12 
  -2  -6   3   56.35    3.09 
  -2  -6   3   50.86    3.13 
  -2  -6   3   44.14    3.30 
   2  -6  -3   50.31    2.72 
  -2   6   3   51.15    3.08 
   2   6  -3   54.67    3.51 
   2   6  -3   53.48    2.85 
  -2   6   3   52.80    3.14 
  -2   6   3   55.12    3.05 
   1  -6  -3   11.42    0.87 
  -1  -6   3    7.84    0.96 
   1  -6  -3    8.60    0.66 
   1  -6  -3    9.78    0.87 
  -1  -6   3    7.35    0.82 
   1  -6  -3   10.32    0.88 
  -1  -6   3    9.63    0.96 
   1  -6  -3    9.74    0.87 
  -1  -6   3    8.71    1.01 
   1  -6  -3    9.35    0.91 
  -1   6   3    8.33    0.83 
   1   6  -3    7.81    0.81 
  -1   6   3    9.73    0.96 
  -1   6   3    7.99    0.88 
  -1   6   3    8.14    0.91 
   1   6  -3    9.20    1.00 
   1   6  -3    8.68    0.83 
   0  -6  -3   37.76    2.62 
   0  -6  -3   41.72    2.61 
   0  -6   3   41.89    2.47 
   0  -6  -3   45.04    2.62 
   0  -6  -3   40.97    2.51 
   0  -6   3   41.31    2.52 
   0  -6   3   41.03    2.44 
   0  -6   3   39.26    2.61 
   0  -6  -3   42.85    2.53 
   0   6   3   40.21    2.65 
   0   6   3   40.09    2.71 
   0   6  -3   41.06    2.61 
   0   6   3   41.54    2.50 
   0   6  -3   43.25    2.60 
   0   6   3   45.43    2.79 
   0   6  -3   45.91    2.58 
   0   6   3   37.73    2.61 
   0   6  -3   38.45    2.49 
   1  -6   3   23.39    1.43 
  -1  -6  -3   23.51    1.69 
   1  -6   3   22.79    1.32 
  -1  -6  -3   20.59    1.65 
   1  -6   3   21.35    1.56 
  -1  -6  -3   21.15    1.73 
  -1  -6  -3   21.42    1.75 
   1  -6   3   23.81    1.48 
  -1  -6  -3   21.50    1.52 
  -1   6  -3   21.86    1.57 
  -1   6  -3   24.19    1.60 
  -1   6  -3   20.66    1.49 
   1   6   3   22.04    1.46 
   1   6   3   21.36    1.66 
  -1   6  -3   21.13    1.41 
   1   6   3   23.47    1.85 
  -2  -6  -3    8.43    0.77 
  -2  -6  -3    7.27    0.99 
  -2  -6  -3    8.31    1.03 
   2  -6   3    7.90    0.70 
  -2  -6  -3    6.00    0.85 
   2   6   3    8.23    0.70 
  -2   6  -3    7.05    0.76 
  -2   6  -3    7.54    0.59 
  -2   6  -3    6.26    0.72 
   2   6   3    6.32    0.81 
   2   6   3    5.41    1.07 
  -3  -6  -3    8.87    1.03 
  -3  -6  -3    8.30    0.78 
  -3  -6  -3    7.49    1.07 
  -3  -6  -3    8.79    0.81 
  -3  -6  -3    5.71    0.98 
  -3   6  -3    7.66    0.74 
  -3   6  -3    7.88    0.79 
  -4  -6  -3    7.51    1.06 
  -4  -6  -3    7.60    1.16 
  -4  -6  -3    9.03    0.88 
  -4  -6  -3   10.07    0.93 
  -4  -6  -3    7.44    1.15 
  -4   6  -3    8.75    0.87 
  -4   6  -3    9.67    1.08 
  -4   6  -3    6.71    0.73 
  -5  -6  -3    0.33    0.60 
  -5  -6  -3   -0.67    0.44 
  -5  -6  -3   -0.02    0.69 
  -5   6  -3    0.39    0.62 
  -5   6  -3    0.22    0.36 
  -6  -6  -3    1.55    0.71 
  -6   6  -3    1.37    0.55 
  -6   6  -3    2.59    0.90 
  -6  -7   3    0.68    1.11 
   6   7  -3    0.59    1.29 
  -5  -7   3    1.95    1.04 
  -5  -7   3    0.66    0.75 
  -5   7   3    0.85    0.48 
   5   7  -3    0.69    1.13 
  -5   7   3    0.71    0.61 
  -4  -7   3   12.45    1.19 
  -4  -7   3   12.52    1.76 
  -4  -7   3   15.95    1.44 
  -4  -7   3   12.70    1.61 
  -4   7   3   13.37    1.28 
  -4   7   3   12.38    1.19 
   4   7  -3    9.16    1.59 
  -4   7   3   11.80    1.23 
  -3  -7   3    0.16    0.32 
  -3  -7   3    0.03    0.41 
  -3  -7   3    0.37    0.65 
  -3  -7   3    0.04    0.39 
  -3   7   3    0.40    0.42 
  -3   7   3    1.17    0.52 
   3   7  -3    1.79    0.85 
   2  -7  -3    0.97    0.26 
  -2  -7   3    0.53    0.40 
  -2  -7   3    0.84    0.44 
  -2  -7   3    1.02    0.68 
  -2  -7   3    0.51    0.39 
  -2   7   3    0.71    0.49 
   2   7  -3    1.10    0.48 
  -2   7   3    1.48    0.52 
   2   7  -3    0.87    0.30 
   2   7  -3    1.69    0.69 
  -1  -7   3   95.24    5.18 
  -1  -7   3   88.46    5.32 
   1  -7  -3   89.69    5.07 
   1  -7  -3   89.10    5.18 
  -1  -7   3   97.79    5.51 
   1  -7  -3   95.55    5.17 
   1  -7  -3   98.06    5.20 
   1  -7  -3   90.21    4.88 
  -1  -7   3   94.56    5.27 
  -1   7   3   92.38    5.29 
  -1   7   3   90.00    5.28 
   1   7  -3   89.98    5.38 
  -1   7   3   94.57    5.33 
   1   7  -3   91.91    5.18 
   1   7  -3   90.94    5.10 
  -1   7   3   91.47    5.13 
   0  -7   3    8.63    0.85 
   0  -7   3    7.21    0.91 
   0  -7  -3   10.58    1.00 
   0  -7  -3    8.47    1.02 
   0  -7  -3    8.91    0.88 
   0  -7  -3   10.47    1.05 
   0  -7  -3    8.06    0.88 
   0  -7   3    7.99    0.79 
   0  -7   3    8.35    0.83 
   0   7  -3    6.66    0.83 
   0   7  -3    6.05    0.84 
   0   7   3    9.75    1.06 
   0   7   3    7.08    0.98 
   0   7   3    7.37    0.82 
   0   7  -3    6.54    0.87 
  -1  -7  -3    8.28    0.97 
  -1  -7  -3    9.26    1.01 
   1  -7   3    8.65    0.93 
   1  -7   3    9.20    0.66 
  -1  -7  -3   11.06    1.08 
  -1  -7  -3    6.74    0.83 
   1  -7   3    7.86    0.74 
  -1  -7  -3    8.17    1.04 
   1  -7   3    8.34    0.79 
  -1   7  -3    6.73    0.80 
   1   7   3   10.42    1.18 
  -1   7  -3    8.95    0.94 
   1   7   3    7.31    0.99 
   1   7   3    7.19    0.77 
  -1   7  -3    5.28    0.80 
  -1   7  -3    6.53    0.73 
  -2  -7  -3    1.98    0.73 
   2  -7   3    2.99    0.49 
  -2  -7  -3    2.83    0.55 
  -2  -7  -3    1.73    0.60 
  -2  -7  -3    1.34    0.73 
   2   7   3    2.01    0.42 
  -2   7  -3    2.54    0.53 
  -2   7  -3    2.43    0.37 
   2   7   3    3.00    0.66 
  -2   7  -3    2.48    0.66 
  -2   7  -3    1.67    0.50 
   2   7   3    2.11    0.43 
  -3  -7  -3    3.88    0.77 
  -3  -7  -3    2.94    0.78 
   3  -7   3    3.02    0.39 
  -3  -7  -3    4.21    1.06 
  -3  -7  -3    1.87    0.53 
  -3   7  -3    2.82    0.38 
  -3   7  -3    1.99    0.54 
  -3   7  -3    3.12    0.57 
  -4  -7  -3    3.84    0.93 
  -4  -7  -3    5.98    0.80 
  -4  -7  -3    4.96    1.06 
  -4  -7  -3    4.40    0.78 
  -4  -7  -3    4.38    1.19 
  -4   7  -3    5.42    0.88 
  -4   7  -3    4.06    0.74 
  -5  -7  -3    0.42    0.57 
  -5  -7  -3    0.52    0.73 
  -5  -7  -3   -0.32    0.78 
  -5   7  -3   -0.03    0.41 
  -6  -7  -3    4.46    1.08 
  -6   7  -3    4.14    0.84 
  -6   7  -3    1.40    0.84 
  -6  -8   3    1.06    1.16 
  -6  -8   3    2.23    0.83 
   6   8  -3    1.72    1.46 
  -5  -8   3    0.99    1.04 
  -5   8   3    1.35    0.64 
   5   8  -3   -0.10    1.10 
  -5   8   3    1.19    0.70 
  -4  -8   3    4.82    1.36 
  -4  -8   3    2.65    0.77 
  -4  -8   3    3.65    1.29 
  -4  -8   3    3.70    0.76 
   4   8  -3    3.75    1.38 
  -4   8   3    4.12    0.98 
  -4   8   3    3.43    0.78 
  -3  -8   3    6.42    0.88 
  -3  -8   3    6.02    0.96 
  -3  -8   3    4.45    0.82 
  -3  -8   3    4.73    1.14 
  -3   8   3    5.57    0.92 
   3   8  -3    4.93    1.23 
  -3   8   3    4.93    0.87 
  -2  -8   3    8.20    1.29 
  -2  -8   3   10.68    1.07 
  -2  -8   3   12.87    1.14 
   2  -8  -3    8.36    0.77 
   2  -8  -3   10.00    0.89 
  -2  -8   3   10.93    1.14 
   2   8  -3   11.25    1.43 
  -2   8   3    7.33    1.05 
  -2   8   3    9.37    1.14 
   2   8  -3   10.32    1.00 
   2   8  -3   10.87    0.91 
   1  -8  -3    7.40    0.88 
   1  -8  -3    6.75    0.67 
   1  -8  -3    8.38    0.92 
  -1  -8   3    8.70    0.93 
  -1  -8   3    7.33    0.91 
   1  -8  -3    7.00    0.81 
   1  -8  -3    6.14    0.85 
  -1  -8   3    8.74    1.15 
   1   8  -3    7.41    1.07 
   1   8  -3    7.67    0.85 
   1   8  -3    8.08    0.93 
  -1   8   3    9.08    1.02 
  -1   8   3    7.75    0.89 
  -1   8   3    7.46    0.96 
   0  -8   3   17.14    1.46 
   0  -8  -3   17.06    1.57 
   0  -8   3   20.48    1.66 
   0  -8   3   20.41    1.45 
   0  -8  -3   17.01    1.44 
   0  -8  -3   19.54    1.59 
   0  -8  -3   16.82    1.42 
   0  -8  -3   21.93    1.61 
   0  -8   3   18.46    1.39 
   0   8   3   20.20    1.72 
   0   8  -3   17.05    1.50 
   0   8   3   18.35    1.63 
   0   8   3   19.97    1.48 
   0   8  -3   20.69    1.60 
   0   8  -3   18.71    1.48 
  -1  -8  -3    7.94    1.04 
   1  -8   3    8.72    0.71 
  -1  -8  -3   10.42    1.13 
   1  -8   3   10.36    0.88 
   1  -8   3    9.09    1.03 
  -1  -8  -3   12.07    1.28 
   1  -8   3    9.53    0.91 
  -1  -8  -3    8.52    0.97 
   1   8   3    8.63    1.12 
   1   8   3    8.99    0.89 
  -1   8  -3    8.54    0.86 
  -1   8  -3    8.36    1.01 
  -1   8  -3   10.48    1.00 
   2  -8   3    0.77    0.39 
  -2  -8  -3    0.57    0.50 
  -2  -8  -3    0.56    0.50 
  -2  -8  -3    1.25    0.59 
  -2  -8  -3    0.40    0.39 
  -2   8  -3    0.94    0.45 
   2   8   3    0.82    0.35 
   2   8   3    0.41    0.30 
  -2   8  -3    1.27    0.54 
  -2   8  -3    0.69    0.57 
  -2   8  -3    0.11    0.22 
   2   8   3   -0.14    0.48 
  -3  -8  -3    3.99    0.92 
  -3  -8  -3    2.52    0.63 
  -3  -8  -3    3.70    0.88 
  -3  -8  -3    4.86    1.00 
  -3   8  -3    3.48    0.44 
  -3   8  -3    2.22    0.62 
  -3   8  -3    4.45    0.70 
  -4  -8  -3    2.71    1.13 
  -4  -8  -3    3.58    0.94 
  -4  -8  -3    3.42    0.97 
  -4   8  -3    2.81    0.70 
  -4   8  -3    3.18    0.44 
  -5  -8  -3    3.13    0.89 
  -5  -8  -3    1.15    0.86 
  -5   8  -3    1.92    0.65 
  -6  -8  -3    1.50    0.82 
  -6   8  -3    1.08    0.85 
  -6   8  -3    0.44    0.54 
  -6  -9   3    1.41    0.82 
  -6  -9   3    1.23    1.19 
   6   9  -3    2.27    1.61 
  -5  -9   3   -0.27    0.55 
  -5  -9   3    0.26    0.71 
  -5   9   3    0.61    0.69 
   5   9  -3    0.19    1.08 
  -4  -9   3    0.27    0.59 
  -4  -9   3    0.46    0.69 
  -4  -9   3    0.34    0.58 
   4   9  -3    0.11    0.97 
  -4   9   3    0.99    0.70 
  -3  -9   3   11.29    1.24 
  -3  -9   3   12.14    1.36 
  -3  -9   3   12.37    1.37 
  -3  -9   3   14.71    1.70 
   3   9  -3   13.06    1.82 
  -3   9   3   14.68    1.47 
   3   9  -3   12.92    0.85 
  -2  -9   3    1.00    0.57 
  -2  -9   3    1.42    0.58 
   2  -9  -3    0.92    0.36 
   2  -9  -3    0.98    0.43 
  -2  -9   3    0.78    0.59 
  -2   9   3    0.73    0.61 
   2   9  -3    1.64    0.46 
   2   9  -3    1.25    0.48 
   2   9  -3    1.10    0.63 
  -1  -9   3   21.23    1.76 
   1  -9  -3   21.79    1.38 
  -1  -9   3   23.25    1.70 
   1  -9  -3   18.18    1.60 
  -1  -9   3   19.14    1.87 
   1  -9  -3   21.30    1.58 
   1  -9  -3   21.63    1.74 
   1  -9  -3   20.72    1.70 
   1   9  -3   21.21    1.60 
   1   9  -3   17.17    1.55 
   1   9  -3   20.95    1.88 
  -1   9   3   19.40    1.71 
   0  -9  -3    0.64    0.44 
   0  -9  -3    1.15    0.51 
   0  -9   3    0.92    0.61 
   0  -9   3    0.99    0.41 
   0  -9   3    0.57    0.44 
   0  -9  -3    0.20    0.50 
   0  -9  -3    1.37    0.53 
   0  -9   3    1.02    0.40 
   0  -9  -3    0.45    0.38 
   0  -9  -3    0.67    0.40 
   0   9  -3    1.06    0.54 
   0   9   3    1.43    0.68 
   0   9  -3    1.00    0.46 
   0   9   3    0.35    0.41 
   0   9  -3    0.74    0.49 
   1  -9   3   12.59    1.07 
   1  -9   3    8.47    1.15 
   1  -9   3   12.05    0.91 
  -1  -9  -3   13.86    1.55 
  -1  -9  -3   11.29    1.36 
  -1  -9  -3   11.09    1.28 
   1  -9   3   14.16    1.14 
  -1  -9  -3   12.74    1.19 
   1   9   3   11.39    1.35 
  -1   9  -3   12.63    1.21 
   1   9   3   13.33    1.14 
  -1   9  -3   13.75    1.14 
  -1   9  -3   12.82    1.28 
  -2  -9  -3    0.32    0.52 
   2  -9   3    0.40    0.39 
  -2  -9  -3    1.11    0.58 
  -2  -9  -3    0.12    0.42 
  -2  -9  -3   -0.29    0.53 
  -2   9  -3    0.13    0.40 
   2   9   3    0.12    0.33 
  -2   9  -3    0.30    0.54 
  -2   9  -3    0.06    0.27 
   2   9   3   -0.44    0.47 
   2   9   3   -0.05    0.15 
  -3  -9  -3    6.96    1.26 
  -3  -9  -3    7.47    1.16 
  -3  -9  -3    4.96    1.10 
  -3  -9  -3    5.63    0.89 
  -3   9  -3    5.66    0.60 
  -3   9  -3    5.31    0.90 
  -4  -9  -3   10.89    1.56 
  -4  -9  -3    7.84    1.28 
  -4   9  -3   10.73    1.10 
  -4   9  -3    9.16    1.18 
  -5  -9  -3   -0.53    0.76 
  -5  -9  -3   -0.34    0.58 
  -5   9  -3    0.56    0.54 
  -6   9  -3    0.00    0.58 
  -6   9  -3   -0.03    0.73 
  -5 -10   3    3.10    1.39 
  -5 -10   3    3.00    1.01 
  -5  10   3    6.05    1.20 
   5  10  -3    4.88    1.75 
  -4 -10   3   15.43    2.09 
  -4 -10   3   13.47    1.66 
  -4 -10   3   15.50    1.69 
  -4  10   3   14.26    1.67 
   4  10  -3   15.52    2.09 
  -3 -10   3    2.48    1.17 
  -3 -10   3    0.00    0.55 
  -3 -10   3   -0.08    0.46 
  -3 -10   3   -0.21    0.50 
  -3  10   3    1.21    0.69 
   3  10  -3    0.35    0.27 
   3  10  -3   -0.39    0.53 
  -2 -10   3    0.19    0.45 
  -2 -10   3   -0.43    0.38 
  -2 -10   3   -0.07    0.50 
   2 -10  -3    0.64    0.47 
   2 -10  -3   -0.20    0.32 
   2  10  -3   -0.11    0.29 
   2  10  -3   -0.05    0.32 
   2  10  -3    1.23    0.69 
  -2  10   3    0.50    0.59 
  -1 -10   3    3.39    0.95 
   1 -10  -3    2.78    0.67 
   1 -10  -3    5.41    0.86 
   1 -10  -3    3.27    0.55 
   1 -10  -3    4.36    0.77 
   1 -10  -3    4.95    0.89 
  -1 -10   3    2.92    0.75 
  -1 -10   3    2.93    0.75 
   1  10  -3    3.03    0.74 
   1  10  -3    4.00    0.72 
  -1  10   3    3.79    1.04 
   1  10  -3    3.20    0.93 
   0 -10  -3    0.51    0.46 
   0 -10  -3    0.57    0.56 
   0 -10   3   -0.06    0.29 
   0 -10   3    0.55    0.44 
   0 -10  -3    0.01    0.38 
   0 -10  -3    0.53    0.49 
   0 -10  -3    1.17    0.47 
   0 -10   3    0.40    0.47 
   0 -10  -3    0.74    0.67 
   0  10   3    1.14    0.71 
   0  10  -3    0.22    0.47 
   0  10   3    0.40    0.45 
   0  10  -3    0.62    0.48 
  -1 -10  -3    0.64    0.48 
  -1 -10  -3    1.78    0.88 
   1 -10   3    1.12    0.63 
   1 -10   3    1.70    0.62 
   1 -10   3    1.14    0.34 
  -1 -10  -3    2.32    0.76 
  -1 -10  -3    1.40    0.67 
   1 -10   3    1.27    0.49 
   1  10   3    1.90    0.70 
  -1  10  -3    1.46    0.51 
   1  10   3    1.43    0.52 
  -1  10  -3    2.58    0.75 
  -2 -10  -3    0.41    0.56 
  -2 -10  -3    0.55    0.54 
  -2 -10  -3    1.19    0.59 
   2 -10   3    0.42    0.53 
  -2 -10  -3    0.71    0.44 
   2  10   3    0.32    0.36 
   2  10   3    0.56    0.66 
  -2  10  -3    0.34    0.34 
  -2  10  -3    0.55    0.54 
  -2  10  -3    0.31    0.49 
   2  10   3    0.96    0.48 
  -3 -10  -3   17.84    2.12 
  -3 -10  -3   18.95    1.86 
  -3 -10  -3   15.72    1.57 
   3 -10   3   17.05    1.47 
  -3 -10  -3   14.50    1.84 
  -3  10  -3   17.75    1.66 
  -3  10  -3   18.03    1.24 
  -4 -10  -3   12.18    1.69 
  -4 -10  -3   11.35    1.50 
  -4  10  -3    8.23    1.20 
  -5 -10  -3    4.67    1.37 
  -5  10  -3    3.08    0.91 
  -5 -11   3    0.97    0.77 
  -5 -11   3    1.35    1.16 
  -5  11   3   -0.41    0.72 
   5  11  -3    0.35    0.97 
  -4 -11   3    0.69    0.87 
  -4 -11   3    1.38    0.79 
   4  11  -3    2.35    1.11 
  -4  11   3    3.39    1.07 
  -3 -11   3   14.19    1.54 
  -3 -11   3   18.24    1.78 
  -3 -11   3   13.10    1.96 
   3  11  -3   13.37    2.03 
  -3  11   3   14.94    1.75 
   3  11  -3   16.67    1.17 
   2 -11  -3    1.52    0.63 
  -2 -11   3    1.25    0.74 
  -2 -11   3    1.66    0.72 
   2 -11  -3    1.59    0.50 
  -2 -11   3    1.01    0.89 
   2  11  -3    0.94    0.58 
   2  11  -3    0.40    0.80 
   2  11  -3    0.32    0.39 
  -2  11   3    1.69    0.92 
   1 -11  -3    1.75    0.72 
  -1 -11   3    0.98    0.64 
   1 -11  -3    0.83    0.39 
  -1 -11   3    1.77    0.66 
   1 -11  -3    0.28    0.48 
   1 -11  -3    0.17    0.48 
  -1 -11   3    0.74    0.73 
   1 -11  -3    0.46    0.56 
   1  11  -3    0.20    0.50 
   1  11  -3    0.57    0.46 
   1  11  -3    1.34    0.59 
  -1  11   3    0.85    0.71 
   0 -11  -3   21.29    1.74 
   0 -11  -3   24.52    1.97 
   0 -11   3   21.31    1.75 
   0 -11  -3   19.27    1.99 
   0 -11   3   18.40    1.87 
   0 -11  -3   22.54    1.96 
   0 -11  -3   21.28    1.80 
   0 -11  -3   22.75    1.95 
   0  11   3   21.77    1.98 
   0  11   3   22.83    1.80 
   0  11  -3   18.97    1.76 
   0  11  -3   21.96    1.81 
   1 -11   3    0.57    0.46 
  -1 -11  -3    1.27    0.66 
   1 -11   3    0.49    0.64 
   1 -11   3    0.82    0.49 
   1 -11   3    0.23    0.28 
  -1 -11  -3    0.14    0.48 
  -1 -11  -3    0.23    0.66 
  -1 -11  -3    2.67    0.92 
  -1  11  -3   -0.32    0.43 
  -1  11  -3    0.89    0.60 
   1  11   3    0.92    0.52 
   1  11   3    0.50    0.58 
  -2 -11  -3    1.23    0.74 
  -2 -11  -3    1.80    0.81 
  -2 -11  -3    1.97    0.68 
   2 -11   3    1.56    0.68 
  -2 -11  -3    2.94    0.97 
  -2  11  -3    1.19    0.64 
   2  11   3    1.44    0.53 
   2  11   3    1.87    0.84 
   2  11   3    2.85    0.68 
  -2  11  -3    1.62    0.52 
  -3 -11  -3   20.18    2.12 
  -3 -11  -3   18.49    2.08 
  -3 -11  -3   24.44    2.00 
   3 -11   3   22.09    1.83 
   3  11   3   20.77    1.72 
  -3  11  -3   24.54    1.55 
  -3  11  -3   23.94    2.06 
  -4 -11  -3    6.04    1.43 
  -4  11  -3    6.55    1.25 
  -5 -11  -3    1.95    1.09 
  -5 -12   3    2.28    1.41 
  -5 -12   3    1.96    0.97 
  -5  12   3    1.21    1.08 
   5  12  -3    2.18    1.32 
  -4 -12   3    6.31    1.73 
  -4 -12   3    3.44    1.04 
  -4  12   3    2.98    1.14 
   4  12  -3    2.55    1.45 
  -3 -12   3    1.25    0.84 
  -3 -12   3    0.54    1.00 
   3  12  -3    1.60    1.00 
  -3  12   3    2.58    1.01 
   3  12  -3    1.29    0.47 
  -2 -12   3    3.09    0.97 
  -2 -12   3    2.87    0.90 
   2 -12  -3    3.28    0.86 
  -2 -12   3    3.19    1.12 
   2 -12  -3    3.10    0.72 
   2  12  -3    1.30    0.98 
   2  12  -3    3.15    0.76 
  -2  12   3    3.80    1.19 
   1 -12  -3   48.31    3.39 
   1 -12  -3   54.98    3.50 
  -1 -12   3   48.88    3.26 
  -1 -12   3   49.82    3.38 
   1 -12  -3   46.93    3.27 
  -1 -12   3   48.29    3.58 
   1 -12  -3   46.41    2.87 
   1 -12  -3   48.88    3.16 
   1  12  -3   51.63    3.27 
   1  12  -3   43.63    3.44 
   1  12  -3   44.73    3.23 
  -1  12   3   49.09    3.58 
   0 -12  -3    8.63    1.15 
   0 -12  -3    8.96    1.32 
   0 -12  -3    8.65    1.18 
   0 -12   3    8.38    1.11 
   0 -12  -3    8.02    1.14 
   0 -12   3    8.84    1.27 
   0 -12  -3   10.58    1.46 
   0  12  -3    6.85    1.10 
   0  12   3    6.67    1.07 
   0  12   3    9.45    1.43 
   0  12  -3    7.84    1.21 
  -1 -12  -3    6.78    1.17 
  -1 -12  -3    7.57    1.14 
   1 -12   3    6.73    1.09 
  -1 -12  -3   10.69    1.32 
  -1 -12  -3   11.68    1.52 
   1 -12   3    9.26    1.06 
  -1 -12  -3    6.79    1.09 
   1 -12   3    8.05    1.01 
  -1  12  -3    7.32    1.12 
  -1  12  -3    8.61    1.10 
   1  12   3    9.09    1.25 
   1  12   3    5.71    0.92 
  -2 -12  -3   17.04    2.43 
  -2 -12  -3   20.06    1.84 
  -2 -12  -3   16.97    2.02 
   2 -12   3   17.56    1.81 
   2 -12   3   15.87    1.65 
   2  12   3   17.51    1.88 
   2  12   3   18.18    1.51 
  -2  12  -3   20.11    1.54 
  -2  12  -3   20.17    1.86 
   2  12   3   19.10    1.64 
  -3 -12  -3    1.21    0.78 
   3 -12   3    1.00    0.63 
  -3  12  -3    1.42    0.71 
   3  12   3    0.62    0.50 
  -4 -12  -3    2.02    1.09 
  -5 -12  -3    1.01    1.09 
  -5 -13   3   -0.31    0.77 
  -5 -13   3    0.24    0.82 
  -5  13   3    1.60    1.10 
   5  13  -3    0.22    1.20 
  -4 -13   3   -0.18    0.72 
  -4 -13   3   -0.06    1.07 
  -4  13   3    0.85    0.89 
   4  13  -3   -0.64    0.75 
  -3 -13   3    2.92    0.96 
  -3 -13   3    1.21    0.92 
   3  13  -3    0.11    1.02 
  -3  13   3    3.99    1.25 
  -2 -13   3   10.02    1.34 
   2 -13  -3    6.96    0.98 
   2 -13  -3    5.89    1.08 
  -2 -13   3    9.12    1.29 
  -2 -13   3    9.36    1.51 
  -2  13   3    9.28    1.54 
   2  13  -3    7.72    1.20 
   2  13  -3    6.42    1.51 
  -1 -13   3   13.12    1.62 
  -1 -13   3   11.29    1.46 
   1 -13  -3   13.18    1.62 
   1 -13  -3   15.82    1.75 
   1 -13  -3   14.19    1.45 
   1 -13  -3   13.84    1.18 
  -1 -13   3   16.08    1.83 
   1  13  -3   16.71    1.59 
   1  13  -3   13.80    1.79 
   1  13  -3   14.18    1.51 
  -1  13   3   12.60    1.63 
   0 -13  -3    1.95    0.91 
   0 -13   3    2.60    0.75 
   0 -13  -3    2.30    0.86 
   0 -13   3    1.02    0.80 
   0 -13  -3    1.67    0.68 
   0 -13  -3    1.34    0.67 
   0 -13   3    0.44    0.41 
   0  13  -3    0.82    0.57 
   0  13   3    2.28    1.07 
   0  13  -3    2.52    0.74 
   0  13  -3    1.42    0.69 
  -1 -13  -3    0.74    0.76 
  -1 -13  -3    0.56    0.84 
   1 -13   3    1.68    0.93 
   1 -13   3    0.10    0.50 
   1 -13   3    1.21    0.84 
  -1 -13  -3    0.80    0.71 
   1  13   3    1.73    0.64 
  -1  13  -3    0.53    0.51 
   1  13   3    1.18    0.77 
   2 -13   3   31.35    2.50 
   2 -13   3   23.55    2.14 
  -2 -13  -3   26.53    2.27 
   2 -13   3   25.22    1.84 
  -2 -13  -3   25.11    2.45 
  -2  13  -3   26.15    1.94 
   2  13   3   25.22    2.05 
   2  13   3   25.69    2.41 
  -3 -13  -3    5.31    1.50 
   3  13   3    6.98    1.00 
  -4 -13  -3    4.95    1.39 
  -4 -14   3    1.59    0.98 
  -4 -14   3    1.03    0.98 
  -4  14   3   -0.01    0.93 
   4  14  -3    0.49    1.27 
  -3 -14   3    0.06    0.67 
  -3 -14   3    0.69    0.73 
   3  14  -3   -0.67    0.95 
   3  14  -3    0.08    0.50 
  -3  14   3    1.35    1.07 
  -2 -14   3    0.55    0.71 
   2 -14  -3    0.08    0.50 
   2 -14  -3    0.37    0.68 
  -2 -14   3   -0.31    0.71 
  -2 -14   3    0.67    1.01 
   2  14  -3    0.84    0.99 
  -2  14   3    0.36    0.96 
   2  14  -3    0.88    0.75 
   1 -14  -3    0.50    0.63 
   1 -14  -3    0.90    0.60 
  -1 -14   3   -0.51    0.72 
  -1 -14   3   -0.18    0.59 
   1 -14  -3   -0.24    0.66 
   1  14  -3    0.46    0.56 
  -1  14   3    0.84    0.87 
   1  14  -3    0.40    0.77 
   0 -14  -3    0.15    0.46 
   0 -14  -3    1.46    0.95 
   0 -14  -3    0.35    0.61 
   0 -14   3    0.41    0.81 
   0 -14   3    0.91    0.93 
   0 -14   3    0.69    0.61 
   0  14   3    1.50    1.01 
   0  14  -3    0.09    0.69 
   0  14  -3    0.96    0.74 
   0  14  -3    0.59    0.66 
   1 -14   3    1.13    0.95 
   1 -14   3    1.55    0.92 
  -1 -14  -3    1.28    0.86 
   1 -14   3    1.74    0.69 
  -1 -14  -3    1.48    0.73 
  -1  14  -3    1.75    0.70 
   1  14   3    0.70    0.76 
  -2 -14  -3    1.21    0.98 
  -2 -14  -3   -0.08    0.61 
  -2 -14  -3    0.40    0.56 
   2 -14   3    0.37    0.48 
   2 -14   3    0.16    0.64 
   2 -14   3   -0.83    0.65 
   2  14   3   -0.70    0.51 
  -2  14  -3    0.41    0.48 
   2  14   3   -0.42    0.70 
   3 -14   3   10.63    1.28 
  -3 -14  -3    8.87    1.77 
   3  14   3    9.81    1.25 
  -4 -14  -3   -0.34    0.86 
  -4 -15   3   -1.21    0.69 
  -4  15   3    0.81    1.05 
   4  15  -3    1.15    1.07 
  -3 -15   3    7.25    1.94 
  -3  15   3    4.76    1.54 
   3  15  -3    7.28    1.64 
  -2 -15   3    1.16    1.15 
   2 -15  -3    0.81    0.73 
   2 -15  -3    0.05    0.51 
  -2 -15   3    2.08    0.93 
  -2  15   3    1.81    1.17 
   2  15  -3    0.24    0.82 
   1 -15  -3    0.43    0.63 
  -1 -15   3    2.09    1.19 
  -1 -15   3    0.22    0.54 
   1 -15  -3    0.91    0.69 
   1 -15  -3    0.41    0.83 
   1  15  -3    1.19    0.85 
  -1  15   3   -0.20    0.91 
   1  15  -3    0.57    0.93 
   0 -15   3    0.69    0.85 
   0 -15   3    1.07    0.73 
   0 -15  -3    3.31    1.00 
   0 -15  -3    0.18    0.91 
   0  15  -3    0.18    0.79 
   0  15  -3    1.10    0.80 
   0  15   3    0.77    0.98 
   1 -15   3    1.16    0.90 
  -1 -15  -3    1.62    1.09 
  -1 -15  -3   -0.04    0.64 
   1 -15   3    0.77    0.95 
   1 -15   3    1.18    0.65 
   1  15   3    0.07    0.69 
   1  15   3    1.12    0.84 
  -1  15  -3    0.96    0.70 
  -2 -15  -3   -0.11    0.67 
   2 -15   3    0.62    0.52 
   2 -15   3   -0.31    0.67 
  -2 -15  -3   -0.29    0.78 
   2 -15   3    0.47    0.77 
   2  15   3    0.13    0.65 
   2  15   3    0.72    0.98 
   3 -15   3    2.46    0.87 
  -3 -15  -3    2.91    1.17 
   3  15   3    1.75    0.80 
  -4 -15  -3    3.41    1.51 
  -3 -16   3    3.97    1.60 
  -3  16   3    6.38    1.74 
   3  16  -3    4.35    1.75 
  -2 -16   3    1.03    1.13 
   2 -16  -3    1.19    0.73 
   2  16  -3    1.78    1.09 
  -2  16   3    2.77    1.15 
  -1 -16   3    4.77    1.50 
   1 -16  -3    5.91    1.11 
   1 -16  -3    3.33    1.08 
  -1 -16   3    2.77    1.03 
  -1  16   3    3.32    1.41 
   1  16  -3    2.91    1.26 
   0 -16  -3    0.25    0.65 
   0 -16  -3    0.04    0.63 
   0 -16   3    0.03    0.72 
   0 -16   3    0.64    1.00 
   0  16   3   -0.12    0.76 
   0  16  -3    0.01    0.72 
   1 -16   3    4.93    1.34 
  -1 -16  -3    7.86    1.40 
   1 -16   3    6.52    1.11 
  -1 -16  -3    5.92    1.30 
   1  16   3    6.24    1.30 
   1  16   3    8.29    1.48 
  -1  16  -3    7.57    1.32 
   2 -16   3    0.69    0.83 
   2 -16   3    0.97    0.64 
  -2 -16  -3    0.45    0.80 
  -2 -16  -3    1.78    1.04 
   2  16   3    0.53    0.96 
   2  16   3    0.58    0.74 
  -3 -16  -3   -0.95    0.54 
   3 -16   3    0.06    0.71 
  -3 -17   3   -0.12    1.07 
  -3  17   3   -1.18    1.01 
   3  17  -3   -1.38    1.03 
  -2 -17   3    4.23    1.52 
   2 -17  -3    4.58    1.01 
   2  17  -3    2.64    1.25 
  -2  17   3    3.15    1.39 
   1 -17  -3    4.35    1.07 
  -1 -17   3    2.62    1.32 
   1 -17  -3    2.83    1.21 
  -1 -17   3    3.32    1.08 
  -1  17   3    1.05    1.23 
   1  17  -3    2.76    1.26 
   0 -17  -3    1.93    1.16 
   0 -17   3    2.03    0.94 
   0 -17   3    2.38    1.23 
   0 -17  -3    3.28    1.06 
   0  17   3    3.90    1.30 
   0  17  -3    2.82    1.12 
   1 -17   3   -0.94    0.74 
   1 -17   3    0.41    0.64 
  -1 -17  -3    1.48    0.95 
  -1 -17  -3    0.71    0.98 
   1  17   3    0.51    1.04 
   2 -17   3    0.39    0.65 
   2 -17   3    0.43    0.84 
  -2 -17  -3    0.63    0.85 
  -3 -17  -3    4.31    1.54 
  -2 -18   3    0.50    0.86 
   2 -18  -3    0.63    0.66 
  -2  18   3    2.26    1.45 
   2  18  -3    4.48    1.55 
  -1 -18   3    0.60    1.22 
   1 -18  -3    0.31    0.79 
   1 -18  -3    1.21    0.85 
  -1 -18   3    0.44    0.82 
   1  18  -3   -0.26    1.09 
  -1  18   3    2.07    1.29 
   0 -18   3    0.18    1.04 
   0 -18  -3    1.89    1.01 
   0 -18  -3    1.14    1.11 
   0 -18   3    1.58    0.95 
   0  18   3    0.75    0.99 
   0  18  -3    0.45    0.91 
  -1 -18  -3    0.83    0.87 
   1 -18   3   -0.26    0.58 
  -1 -18  -3   -0.78    0.82 
   1 -18   3   -0.64    0.88 
   1  18   3    0.56    1.15 
   2 -18   3   12.84    1.45 
  -2 -18  -3    8.15    2.15 
   2 -18   3   11.52    1.77 
  -1  19   3   -0.63    1.10 
   0 -19   3   -0.74    0.68 
   0 -19  -3    2.02    1.02 
   0 -19   3    0.14    0.86 
   0 -19  -3   -0.18    0.97 
   0  19   3    0.04    0.93 
  -6   0   4    5.46    1.19 
  -5   0   4    0.49    0.64 
   5   0  -4    2.76    0.89 
  -5   0   4    2.21    0.65 
  -4   0   4    2.10    0.68 
   4   0  -4    1.99    0.72 
   3   0  -4   11.06    1.20 
  -3   0   4   11.27    1.10 
  -3   0   4   11.83    0.68 
  -2   0   4    1.05    0.11 
  -2   0   4    1.07    0.11 
   2   0  -4    0.62    0.32 
  -2   0   4    1.25    0.18 
  -1   0   4  228.85   11.87 
   1   0  -4  231.30   11.84 
   1   0  -4  236.28   11.86 
   1   0  -4  234.89   11.84 
  -1   0   4  231.94   11.86 
   1   0  -4  230.88   12.00 
  -1   0   4  236.32   11.95 
  -1   0   4  240.76   11.85 
   0   0  -4  552.16   26.90 
   0   0   4  527.94   26.95 
   0   0  -4  522.46   26.94 
   0   0   4  529.96   26.89 
   1   0   4   60.77    3.23 
  -1   0  -4   58.89    3.12 
   1   0   4   61.99    3.35 
  -1   0  -4   60.58    3.22 
   1   0   4   59.51    3.16 
  -1   0  -4   61.44    3.35 
  -2   0  -4   62.21    3.45 
   2   0   4   59.88    3.14 
  -2   0  -4   58.51    3.12 
   2   0   4   62.74    3.42 
   2   0   4   58.46    3.20 
  -2   0  -4   59.44    3.24 
  -3   0  -4    7.15    0.80 
  -3   0  -4    5.19    0.55 
   3   0   4    7.22    0.84 
  -3   0  -4    6.36    0.53 
  -4   0  -4   46.84    2.66 
   4   0   4   47.95    3.02 
  -4   0  -4   46.93    2.66 
  -4   0  -4   44.39    2.97 
  -5   0  -4    7.07    1.07 
  -5   0  -4   10.47    0.86 
  -6   0  -4   12.90    1.00 
  -6   0  -4    9.71    1.27 
  -6  -1   4    2.33    1.05 
  -6   1   4    1.78    0.89 
   5  -1  -4    1.07    0.70 
  -5  -1   4    0.31    0.54 
  -5  -1   4   -0.35    0.55 
  -5   1   4   -0.41    0.51 
   5   1  -4    1.42    0.87 
  -4  -1   4    0.62    0.53 
   4  -1  -4    1.34    0.62 
  -4   1   4    0.48    0.22 
   4   1  -4    1.75    0.76 
   3  -1  -4   -0.15    0.36 
  -3  -1   4   -0.20    0.26 
  -3  -1   4   -0.66    0.32 
   3   1  -4   -0.07    0.30 
  -3   1   4   -0.20    0.28 
  -2  -1   4    0.13    0.08 
  -2  -1   4    0.06    0.11 
  -2  -1   4    0.20    0.15 
   2  -1  -4    0.08    0.26 
  -2  -1   4    0.21    0.32 
  -2   1   4    0.40    0.25 
   2   1  -4    0.83    0.42 
  -2   1   4    0.03    0.07 
  -2   1   4    0.09    0.08 
  -2   1   4   -0.04    0.08 
   0  -1   4   65.07    3.52 
   0  -1  -4   68.34    3.54 
   0  -1   4   64.27    3.54 
   0  -1  -4   66.12    3.52 
   0   1   4   63.21    3.57 
   0   1  -4   68.61    3.54 
   0   1  -4   68.10    3.53 
   0   1  -4   71.99    3.60 
   0   1   4   66.73    3.55 
   1  -1   4  284.80   14.47 
  -1  -1  -4  277.00   14.52 
  -1  -1  -4  290.23   14.63 
   1   1   4  293.96   14.56 
   1   1   4  283.92   14.52 
  -1   1  -4  282.14   14.48 
  -1   1  -4  281.82   14.64 
   1   1   4  292.64   14.65 
   1   1   4  280.30   14.61 
  -2  -1  -4   -0.18    0.14 
  -2  -1  -4   -0.19    0.16 
   2  -1   4    0.11    0.17 
  -2  -1  -4    0.04    0.19 
   2   1   4   -0.09    0.20 
   2   1   4   -0.15    0.20 
   2   1   4   -0.25    0.28 
  -2   1  -4   -0.03    0.14 
  -2   1  -4    0.15    0.27 
   3  -1   4    6.81    0.77 
  -3  -1  -4    7.10    0.80 
  -3  -1  -4    7.48    0.68 
  -3  -1  -4    6.58    0.64 
  -3   1  -4    7.68    0.82 
   3   1   4    5.18    0.86 
  -3   1  -4    6.66    0.58 
  -3   1  -4    6.93    0.43 
  -4  -1  -4   27.88    1.80 
   4  -1   4   25.00    1.90 
  -4  -1  -4   29.05    1.77 
  -4  -1  -4   29.84    2.05 
  -4   1  -4   24.67    1.99 
  -4   1  -4   27.48    1.67 
  -4   1  -4   27.99    1.59 
  -5  -1  -4    8.42    1.07 
  -5  -1  -4    6.44    0.76 
  -5  -1  -4    7.03    0.85 
  -5   1  -4    7.22    1.07 
  -5   1  -4    6.51    0.68 
  -6  -1  -4    1.57    0.49 
  -6   1  -4    1.90    0.82 
  -6   1  -4    1.91    0.43 
  -6  -2   4    0.58    0.86 
  -6   2   4    0.66    0.15 
  -6   2   4    0.56    0.10 
  -6   2   4    0.77    0.71 
  -5  -2   4    8.45    1.24 
  -5  -2   4   10.87    1.42 
   5   2  -4    9.66    1.56 
  -5   2   4    7.22    0.73 
   4  -2  -4    0.78    0.51 
  -4  -2   4    0.78    0.63 
  -4   2   4    1.37    0.52 
   4   2  -4    0.49    0.58 
  -3  -2   4   -0.07    0.39 
  -3  -2   4    0.14    0.10 
   3  -2  -4    0.34    0.39 
  -3   2   4    0.19    0.12 
   3   2  -4    0.14    0.39 
  -3   2   4   -0.20    0.23 
  -3   2   4    0.23    0.08 
  -2  -2   4    4.31    0.45 
  -2  -2   4    3.69    0.40 
  -2  -2   4    3.83    0.68 
  -2  -2   4    6.29    0.76 
   2  -2  -4    3.75    0.54 
   2   2  -4    3.85    0.66 
  -2   2   4    5.13    0.47 
  -2   2   4    5.38    0.36 
  -2   2   4    4.52    0.37 
   1  -2  -4  126.54    6.51 
  -1  -2   4  127.62    6.56 
   1  -2  -4  124.47    6.47 
  -1  -2   4  129.34    6.75 
  -1  -2   4  123.05    6.68 
  -1  -2   4  126.17    6.59 
   1  -2  -4  123.68    6.51 
   1   2  -4  132.24    6.60 
   1   2  -4  128.99    6.54 
  -1   2   4  128.16    6.55 
   1   2  -4  123.68    6.75 
  -1   2   4  125.47    6.52 
   0  -2  -4   51.00    2.73 
   0  -2   4   49.41    2.70 
   0  -2  -4   52.34    2.73 
   0  -2   4   50.90    2.75 
   0  -2   4   51.46    2.79 
   0  -2   4   49.12    2.70 
   0   2  -4   47.66    2.73 
   0   2  -4   49.82    2.73 
   0   2   4   51.96    2.76 
   0   2  -4   47.54    2.70 
   0   2  -4   49.42    2.73 
   0   2   4   49.41    2.71 
   1  -2   4   25.52    1.34 
  -1  -2  -4   24.76    1.46 
   1  -2   4   24.54    1.37 
  -1  -2  -4   21.55    1.44 
  -1   2  -4   25.30    1.39 
   1   2   4   20.28    1.46 
   1   2   4   23.10    1.48 
   1   2   4   23.22    1.57 
   1   2   4   22.89    1.50 
   1   2   4   22.66    1.48 
  -2  -2  -4   56.23    2.97 
  -2  -2  -4   56.83    3.19 
  -2  -2  -4   58.91    3.22 
   2  -2   4   55.08    3.10 
  -2  -2  -4   59.41    3.34 
  -2  -2  -4   59.84    3.30 
  -2   2  -4   57.47    3.07 
   2   2   4   55.36    3.43 
   2   2   4   55.78    3.15 
  -2   2  -4   54.75    3.34 
   2   2   4   57.50    3.23 
  -3  -2  -4    1.20    0.46 
  -3  -2  -4    1.83    0.48 
  -3  -2  -4    2.39    0.57 
  -3  -2  -4    1.87    0.43 
   3  -2   4    1.91    0.44 
  -3   2  -4    2.71    0.59 
  -3   2  -4    1.68    0.30 
   3   2   4    1.95    0.44 
   3   2   4    1.30    0.57 
  -4  -2  -4    0.11    0.31 
  -4  -2  -4    0.04    0.35 
   4  -2   4    0.49    0.37 
  -4  -2  -4    0.02    0.38 
  -4   2  -4    0.13    0.43 
  -4   2  -4    0.13    0.22 
  -5  -2  -4   41.37    2.53 
  -5  -2  -4   34.09    2.31 
  -5   2  -4   37.08    2.67 
  -5   2  -4   36.65    2.17 
  -6  -2  -4    0.58    0.42 
  -6   2  -4    0.77    0.66 
  -6   2  -4    1.15    0.37 
  -6  -3   4    0.86    0.93 
   6   3  -4    1.10    1.08 
  -6   3   4    0.75    0.22 
  -6   3   4    0.17    0.22 
  -6   3   4    0.78    0.64 
  -5  -3   4    1.34    0.75 
  -5  -3   4    0.75    0.81 
  -5   3   4    0.73    0.37 
  -5   3   4    0.29    0.14 
   5   3  -4    0.48    0.68 
  -5   3   4    0.39    0.21 
  -4  -3   4   19.34    1.12 
   4  -3  -4   19.15    1.55 
  -4  -3   4   21.52    1.87 
  -4   3   4   17.73    1.11 
   4   3  -4   15.75    1.89 
  -4   3   4   18.26    1.43 
  -4   3   4   18.13    1.04 
  -3  -3   4    0.11    0.47 
   3  -3  -4    0.14    0.34 
  -3  -3   4    0.32    0.19 
  -3   3   4    0.07    0.11 
  -3   3   4    0.04    0.23 
   3   3  -4    0.27    0.42 
  -3   3   4    0.34    0.14 
   2  -3  -4   -0.17    0.20 
  -2  -3   4   -0.13    0.21 
  -2  -3   4   -0.15    0.18 
  -2  -3   4    0.40    0.35 
  -2  -3   4    0.03    0.29 
   2   3  -4   -0.20    0.41 
  -2   3   4    0.03    0.13 
  -2   3   4    0.08    0.16 
  -2   3   4    0.01    0.14 
  -1  -3   4   28.44    1.84 
  -1  -3   4   30.17    1.72 
  -1  -3   4   26.74    1.77 
   1  -3  -4   28.23    1.60 
  -1  -3   4   29.39    1.90 
   1  -3  -4   28.63    1.57 
  -1  -3   4   29.16    1.74 
   1  -3  -4   28.61    1.66 
  -1   3   4   29.23    1.70 
  -1   3   4   26.52    1.68 
   1   3  -4   29.70    1.75 
   1   3  -4   30.49    1.91 
   1   3  -4   30.08    1.69 
   0  -3   4   70.37    3.75 
   0  -3   4   68.29    3.63 
   0  -3   4   70.92    3.63 
   0  -3  -4   69.25    3.68 
   0  -3  -4   63.52    3.64 
   0  -3   4   65.97    3.70 
   0  -3   4   68.16    3.65 
   0   3  -4   68.40    3.67 
   0   3   4   66.63    3.63 
   0   3  -4   66.86    3.69 
   0   3   4   65.65    3.77 
   0   3  -4   67.57    3.65 
   0   3  -4   68.95    3.69 
   0   3   4   68.47    3.73 
   0   3   4   64.54    3.73 
   0   3  -4   68.20    3.69 
   1  -3   4   44.11    2.37 
  -1  -3  -4   41.40    2.56 
  -1  -3  -4   41.71    2.48 
  -1  -3  -4   42.40    2.49 
   1  -3   4   44.48    2.35 
  -1  -3  -4   41.08    2.38 
   1   3   4   44.01    2.54 
  -1   3  -4   42.56    2.33 
   1   3   4   42.68    2.50 
  -1   3  -4   44.29    2.33 
   1   3   4   43.19    2.49 
   1   3   4   38.36    2.59 
  -1   3  -4   40.25    2.38 
   1   3   4   43.08    2.53 
  -2  -3  -4    0.00    0.29 
  -2  -3  -4    0.16    0.31 
  -2  -3  -4    0.07    0.27 
  -2  -3  -4    0.23    0.31 
   2  -3   4    0.21    0.28 
  -2  -3  -4   -0.01    0.17 
  -2  -3  -4    0.02    0.12 
  -2  -3  -4    0.27    0.36 
   2   3   4    0.11    0.41 
   2   3   4   -0.22    0.31 
   2   3   4    0.05    0.30 
  -2   3  -4   -0.04    0.15 
  -3  -3  -4   -0.19    0.17 
  -3  -3  -4    0.02    0.34 
   3  -3   4   -0.06    0.23 
  -3  -3  -4    0.15    0.34 
  -3  -3  -4   -0.03    0.24 
  -3  -3  -4    0.18    0.29 
  -3   3  -4    0.04    0.16 
   3   3   4    0.39    0.53 
  -3   3  -4   -0.06    0.34 
   3   3   4    0.09    0.35 
   4  -3   4   10.90    0.92 
  -4  -3  -4    9.02    1.11 
  -4  -3  -4   11.96    1.08 
  -4  -3  -4   11.61    1.14 
  -4  -3  -4   12.76    1.23 
   4   3   4   12.29    1.06 
  -4   3  -4    9.78    0.83 
  -4   3  -4   12.55    1.25 
  -5  -3  -4    1.55    0.63 
  -5  -3  -4    1.32    0.52 
  -5   3  -4    0.05    0.28 
  -5   3  -4    1.19    0.67 
  -6  -3  -4    1.56    0.58 
  -6   3  -4    2.84    0.87 
  -6   3  -4    2.32    0.51 
  -6  -4   4    0.92    0.90 
  -6   4   4    0.99    0.83 
   6   4  -4    0.69    1.02 
  -6   4   4    0.90    0.34 
  -5  -4   4    0.46    0.77 
  -5  -4   4    0.71    0.79 
   5   4  -4    0.67    0.93 
  -5   4   4    0.04    0.25 
  -5   4   4    0.06    0.20 
  -4  -4   4    5.71    0.60 
  -4  -4   4    6.07    1.14 
  -4   4   4    5.56    0.57 
  -4   4   4    5.27    0.50 
   4   4  -4    4.08    1.20 
  -4   4   4    5.40    0.66 
   3  -4  -4   -0.38    0.22 
  -3  -4   4    0.19    0.29 
  -3  -4   4    0.54    0.45 
  -3  -4   4    0.13    0.23 
  -3  -4   4    0.00    0.27 
  -3   4   4    0.22    0.17 
  -3   4   4    0.30    0.20 
   3   4  -4    0.20    0.41 
   3   4  -4    0.32    0.14 
  -3   4   4    0.25    0.20 
  -2  -4   4    3.61    0.54 
  -2  -4   4    4.53    0.80 
  -2  -4   4    3.88    0.51 
  -2  -4   4    1.31    0.60 
   2   4  -4    3.05    0.67 
  -2   4   4    3.09    0.45 
   2   4  -4    3.67    0.23 
  -1  -4   4   19.67    1.33 
  -1  -4   4   18.38    1.51 
  -1  -4   4   18.65    1.36 
   1  -4  -4   21.26    1.25 
  -1  -4   4   20.88    1.47 
  -1  -4   4   21.17    1.37 
   1  -4  -4   19.29    1.28 
  -1   4   4   20.48    1.38 
   1   4  -4   20.55    1.38 
   1   4  -4   20.31    1.36 
  -1   4   4   20.73    1.40 
  -1   4   4   21.02    1.37 
   1   4  -4   20.09    1.50 
  -1   4   4   21.13    1.34 
   1   4  -4   18.13    1.41 
   0  -4   4   45.66    2.57 
   0  -4   4   44.81    2.57 
   0  -4  -4   45.66    2.69 
   0  -4   4   47.46    2.72 
   0  -4  -4   45.64    2.61 
   0  -4  -4   46.16    2.64 
   0  -4  -4   41.46    2.68 
   0  -4   4   48.18    2.62 
   0   4   4   44.64    2.59 
   0   4   4   45.45    2.71 
   0   4   4   45.99    2.70 
   0   4  -4   47.40    2.65 
   0   4  -4   45.60    2.65 
   0   4  -4   45.95    2.65 
   0   4   4   45.47    2.78 
   0   4   4   47.71    2.74 
   0   4  -4   45.84    2.66 
   0   4  -4   44.42    2.60 
   1  -4   4    5.64    0.69 
  -1  -4  -4    3.72    0.54 
  -1  -4  -4    5.17    0.52 
  -1  -4  -4    5.66    0.74 
  -1  -4  -4    6.53    0.70 
   1  -4   4    6.06    0.59 
  -1  -4  -4    3.28    0.58 
   1  -4   4    6.13    0.52 
   1   4   4    5.91    0.54 
   1   4   4    4.25    0.77 
   1   4   4    5.90    0.70 
  -1   4  -4    6.30    0.57 
   1   4   4    4.57    0.66 
  -1   4  -4    5.63    0.54 
  -1   4  -4    6.05    0.50 
  -1   4  -4    5.85    0.55 
   1   4   4    5.09    0.71 
  -2  -4  -4   51.00    3.26 
  -2  -4  -4   54.07    3.16 
  -2  -4  -4   54.03    3.13 
   2  -4   4   55.75    3.01 
  -2  -4  -4   53.43    2.95 
  -2  -4  -4   49.22    3.23 
   2  -4   4   52.73    2.76 
   2   4   4   52.82    3.19 
   2   4   4   49.51    3.04 
  -2   4  -4   51.87    2.79 
  -2   4  -4   53.12    2.94 
   2   4   4   48.24    3.35 
  -3  -4  -4   37.55    2.14 
  -3  -4  -4   36.07    2.45 
  -3  -4  -4   35.79    2.38 
  -3  -4  -4   37.98    2.57 
  -3  -4  -4   37.40    2.19 
   3   4   4   38.62    2.77 
   3   4   4   36.94    2.44 
  -3   4  -4   36.46    2.16 
  -4  -4  -4    0.49    0.51 
  -4  -4  -4   -0.14    0.34 
  -4  -4  -4    0.27    0.28 
  -4  -4  -4   -0.23    0.43 
  -4  -4  -4   -0.10    0.26 
   4  -4   4    0.04    0.22 
  -4   4  -4   -0.16    0.41 
  -4   4  -4   -0.03    0.22 
  -5  -4  -4    0.16    0.44 
  -5  -4  -4    0.26    0.55 
  -5  -4  -4   -0.36    0.40 
  -5  -4  -4   -0.30    0.56 
  -5   4  -4   -0.09    0.28 
  -5   4  -4    0.23    0.55 
  -6  -4  -4   -0.80    0.39 
  -6   4  -4   -0.06    0.32 
  -6   4  -4   -0.09    0.54 
  -6  -5   4    8.00    1.61 
  -6  -5   4    6.02    0.88 
  -6   5   4    6.18    0.79 
   6   5  -4    6.35    1.49 
  -5  -5   4    4.47    1.27 
  -5  -5   4    3.73    1.21 
  -5   5   4    5.93    0.69 
  -5   5   4    4.72    0.66 
   5   5  -4    6.75    1.53 
  -4  -5   4    7.09    0.79 
  -4  -5   4    7.03    1.01 
  -4  -5   4    8.06    1.33 
  -4   5   4    9.18    0.81 
  -4   5   4    9.30    0.73 
   4   5  -4    6.11    1.40 
  -4   5   4    8.47    0.77 
  -3  -5   4   -0.07    0.26 
  -3  -5   4    0.05    0.30 
  -3  -5   4    0.70    0.62 
  -3  -5   4   -0.09    0.26 
  -3   5   4    0.24    0.13 
  -3   5   4    0.24    0.26 
  -3   5   4    0.03    0.19 
   3   5  -4    0.30    0.50 
   2  -5  -4    1.37    0.22 
  -2  -5   4    1.72    0.64 
  -2  -5   4    0.44    0.34 
  -2  -5   4    0.51    0.33 
  -2   5   4    1.82    0.41 
   2   5  -4    1.52    0.59 
  -2   5   4    1.79    0.45 
   2   5  -4    1.34    0.27 
  -1  -5   4   29.12    1.89 
  -1  -5   4   26.42    1.90 
  -1  -5   4   30.97    1.92 
  -1  -5   4   28.85    1.83 
   1  -5  -4   28.21    1.77 
  -1  -5   4   27.92    2.03 
   1  -5  -4   28.29    1.74 
   1   5  -4   27.68    1.85 
  -1   5   4   28.73    1.92 
  -1   5   4   31.55    1.93 
  -1   5   4   26.37    1.84 
   1   5  -4   27.71    1.80 
   1   5  -4   30.39    2.08 
  -1   5   4   29.02    1.91 
   1   5  -4   30.10    2.21 
   1   5  -4   29.10    1.87 
  -1   5   4   32.22    1.85 
   0  -5   4    0.01    0.26 
   0  -5   4   -0.34    0.17 
   0  -5   4   -0.21    0.21 
   0  -5  -4   -0.25    0.15 
   0  -5  -4    0.13    0.28 
   0  -5  -4    0.26    0.24 
   0  -5   4   -0.19    0.21 
   0  -5  -4    0.02    0.22 
   0   5   4   -0.02    0.24 
   0   5   4    0.17    0.38 
   0   5  -4   -0.24    0.15 
   0   5  -4    0.01    0.20 
   0   5   4    0.04    0.36 
   0   5  -4    0.29    0.31 
   0   5  -4   -0.06    0.21 
   0   5  -4    0.20    0.25 
   0   5   4   -0.02    0.35 
   0   5   4    0.11    0.33 
  -1  -5  -4    9.45    0.91 
  -1  -5  -4    9.69    0.80 
  -1  -5  -4    7.20    0.87 
   1  -5   4    7.88    0.79 
  -1  -5  -4    9.15    1.00 
  -1  -5  -4    8.00    0.90 
   1  -5   4    8.43    0.70 
  -1   5  -4    8.53    0.75 
   1   5   4    7.08    0.88 
  -1   5  -4    8.68    0.77 
   1   5   4    9.85    0.75 
   1   5   4    7.45    0.83 
  -1   5  -4    7.56    0.77 
   1   5   4    7.84    0.87 
   1   5   4    7.18    0.93 
  -1   5  -4    8.07    0.67 
  -2  -5  -4   33.09    2.08 
  -2  -5  -4   33.77    2.26 
  -2  -5  -4   35.22    2.41 
   2  -5   4   33.43    1.95 
  -2  -5  -4   34.87    2.33 
  -2   5  -4   33.54    2.09 
   2   5   4   32.46    2.20 
  -2   5  -4   36.11    2.04 
   2   5   4   34.65    2.56 
   2   5   4   33.38    2.61 
  -2   5  -4   36.39    1.96 
  -2   5  -4   32.53    1.97 
  -3  -5  -4   14.38    1.33 
  -3  -5  -4    9.93    1.29 
  -3  -5  -4   15.99    1.31 
  -3  -5  -4   14.09    0.99 
  -3  -5  -4   12.58    1.02 
   3   5   4   13.13    1.47 
  -3   5  -4   14.15    1.04 
  -3   5  -4   12.49    0.84 
  -4  -5  -4    1.38    0.58 
  -4  -5  -4    0.53    0.64 
  -4  -5  -4    2.48    0.48 
   4  -5   4    1.47    0.27 
  -4  -5  -4    1.38    0.60 
  -4  -5  -4    1.51    0.44 
  -4   5  -4    1.46    0.42 
  -5  -5  -4    4.70    1.04 
  -5  -5  -4    3.78    0.85 
  -5  -5  -4    4.48    1.09 
  -5   5  -4    3.81    0.63 
  -5   5  -4    4.17    0.98 
  -6  -5  -4    0.57    0.58 
  -6   5  -4    0.32    0.40 
  -6   5  -4    0.91    0.74 
  -6  -6   4    2.64    1.29 
  -6  -6   4    2.71    0.74 
   6   6  -4    4.68    1.66 
  -5  -6   4   16.94    1.85 
  -5  -6   4   12.00    1.89 
  -5  -6   4   10.80    1.19 
  -5   6   4   12.23    1.14 
  -5   6   4   10.93    1.10 
   5   6  -4    8.85    1.63 
  -4  -6   4    4.62    0.81 
  -4  -6   4    5.52    0.95 
  -4  -6   4    4.32    0.73 
  -4  -6   4    6.58    1.28 
   4   6  -4    4.08    0.69 
  -4   6   4    5.70    0.75 
   4   6  -4    8.14    1.56 
  -4   6   4    5.80    0.44 
  -4   6   4    5.02    0.73 
  -3  -6   4    0.47    0.38 
  -3  -6   4   -0.16    0.26 
  -3  -6   4    0.75    0.42 
  -3  -6   4    0.29    0.46 
  -3   6   4    0.21    0.22 
   3   6  -4    0.23    0.66 
  -3   6   4   -0.08    0.38 
  -3   6   4    0.01    0.30 
  -2  -6   4   14.90    1.50 
   2  -6  -4   16.23    1.00 
  -2  -6   4   19.78    1.35 
  -2  -6   4   16.79    1.39 
  -2  -6   4   17.49    1.39 
  -2   6   4   16.56    1.28 
   2   6  -4   16.38    1.12 
   2   6  -4   17.24    1.63 
  -2   6   4   15.45    1.31 
  -2   6   4   19.06    1.35 
   1  -6  -4   24.44    1.61 
   1  -6  -4   24.34    1.64 
  -1  -6   4   22.42    1.59 
  -1  -6   4   21.56    1.62 
   1  -6  -4   23.16    1.41 
  -1  -6   4   24.09    1.68 
   1  -6  -4   23.04    1.53 
  -1  -6   4   23.04    1.72 
  -1  -6   4   19.97    1.74 
  -1   6   4   24.96    1.74 
   1   6  -4   22.02    1.63 
  -1   6   4   23.85    1.71 
  -1   6   4   23.04    1.67 
   1   6  -4   24.10    1.58 
   1   6  -4   20.02    1.72 
   1   6  -4   24.41    1.67 
  -1   6   4   21.73    1.57 
   0  -6  -4    0.65    0.35 
   0  -6   4    0.34    0.27 
   0  -6  -4    0.34    0.35 
   0  -6  -4    0.56    0.35 
   0  -6  -4    0.80    0.38 
   0  -6   4    0.71    0.32 
   0  -6  -4    0.72    0.39 
   0  -6   4    0.20    0.34 
   0  -6   4    0.29    0.32 
   0   6   4    0.18    0.22 
   0   6  -4    0.81    0.37 
   0   6   4    0.74    0.51 
   0   6  -4    0.32    0.34 
   0   6  -4    0.92    0.43 
   0   6   4    0.41    0.45 
   0   6  -4    0.19    0.32 
   0   6   4    0.67    0.46 
   0   6  -4    0.48    0.28 
  -1  -6  -4    5.14    0.76 
   1  -6   4    5.71    0.50 
  -1  -6  -4    4.76    0.84 
  -1  -6  -4    5.14    0.77 
  -1  -6  -4    6.69    0.81 
   1  -6   4    5.36    0.59 
  -1  -6  -4    4.30    0.62 
   1  -6   4    3.55    0.62 
  -1   6  -4    5.19    0.64 
   1   6   4    7.88    1.07 
  -1   6  -4    5.12    0.66 
  -1   6  -4    5.74    0.58 
  -1   6  -4    4.65    0.61 
   1   6   4    5.81    0.61 
   1   6   4    3.24    0.74 
   2  -6   4    0.51    0.28 
  -2  -6  -4    0.23    0.24 
  -2  -6  -4    0.41    0.47 
  -2  -6  -4    0.13    0.38 
  -2  -6  -4    0.26    0.37 
  -2   6  -4    0.13    0.20 
  -2   6  -4    0.60    0.30 
   2   6   4    0.25    0.22 
   2   6   4    0.54    0.48 
  -2   6  -4   -0.03    0.26 
   2   6   4    0.20    0.47 
  -3  -6  -4    5.84    1.08 
  -3  -6  -4    7.62    0.78 
  -3  -6  -4    6.07    0.97 
  -3  -6  -4    6.43    0.91 
   3  -6   4    6.54    0.56 
  -3   6  -4    7.56    0.66 
   3   6   4    6.53    0.77 
  -3   6  -4    7.73    0.79 
  -4  -6  -4    4.21    0.92 
  -4  -6  -4    3.28    0.57 
  -4  -6  -4    3.66    0.60 
   4  -6   4    2.31    0.22 
  -4  -6  -4    4.73    0.88 
  -4  -6  -4    2.84    0.95 
  -4   6  -4    2.97    0.58 
  -4   6  -4    3.20    0.38 
  -5  -6  -4   10.57    1.54 
  -5  -6  -4   11.63    1.47 
  -5  -6  -4   10.38    1.29 
  -5   6  -4   12.10    1.13 
  -5   6  -4   14.14    1.57 
  -6  -6  -4    1.09    0.66 
  -6   6  -4    1.00    0.80 
  -6   6  -4    1.16    0.53 
  -6  -7   4    1.98    0.74 
  -6  -7   4    0.67    1.08 
   6   7  -4    4.64    1.68 
  -5  -7   4    2.49    1.23 
  -5  -7   4    2.05    1.12 
  -5  -7   4    1.37    0.66 
  -5   7   4    2.44    0.73 
   5   7  -4    0.32    0.82 
  -5   7   4    1.69    0.68 
  -4  -7   4    4.34    1.25 
  -4  -7   4    3.37    0.74 
  -4  -7   4    1.83    0.63 
  -4   7   4    1.71    0.61 
  -4   7   4    3.44    0.73 
   4   7  -4    2.69    1.26 
  -3  -7   4    3.35    0.66 
  -3  -7   4    1.67    0.74 
  -3  -7   4    3.53    0.73 
  -3  -7   4    3.02    0.62 
  -3   7   4    2.50    0.66 
  -3   7   4    2.68    0.68 
   3   7  -4    4.37    1.13 
  -2  -7   4    2.07    0.60 
  -2  -7   4    1.44    0.55 
  -2  -7   4    0.63    0.63 
   2  -7  -4    2.13    0.35 
  -2  -7   4    1.77    0.52 
   2   7  -4    1.91    0.78 
  -2   7   4    2.09    0.61 
   2   7  -4    1.94    0.43 
  -2   7   4    2.21    0.62 
  -2   7   4    2.11    0.58 
   1  -7  -4   16.95    1.32 
   1  -7  -4   13.98    1.07 
   1  -7  -4   18.73    1.33 
  -1  -7   4   16.30    1.29 
   1  -7  -4   14.08    1.21 
  -1  -7   4   13.20    1.46 
  -1  -7   4   16.91    1.34 
   1   7  -4   14.05    1.46 
  -1   7   4   15.63    1.39 
  -1   7   4   15.77    1.38 
  -1   7   4   15.97    1.27 
  -1   7   4   16.64    1.44 
   1   7  -4   15.55    1.26 
   1   7  -4   17.42    1.32 
   0  -7  -4   36.43    2.32 
   0  -7  -4   35.78    2.36 
   0  -7  -4   34.21    2.29 
   0  -7   4   34.89    2.21 
   0  -7   4   37.45    2.28 
   0  -7  -4   33.53    2.40 
   0  -7   4   35.74    2.47 
   0  -7   4   36.82    2.31 
   0  -7  -4   35.70    2.38 
   0   7  -4   36.50    2.38 
   0   7   4   32.19    2.39 
   0   7   4   37.12    2.28 
   0   7   4   37.43    2.57 
   0   7  -4   37.27    2.38 
   0   7  -4   32.63    2.33 
   0   7  -4   36.94    2.33 
   0   7   4   38.51    2.50 
   1  -7   4   24.11    1.55 
  -1  -7  -4   24.45    1.87 
   1  -7   4   25.92    1.76 
  -1  -7  -4   21.70    1.66 
  -1  -7  -4   20.57    1.75 
   1  -7   4   22.55    1.58 
  -1  -7  -4   24.54    1.86 
  -1  -7  -4   24.54    1.93 
   1  -7   4   24.13    1.44 
   1   7   4   22.91    2.03 
  -1   7  -4   22.30    1.69 
  -1   7  -4   23.59    1.59 
  -1   7  -4   23.26    1.70 
   1   7   4   25.31    1.62 
   1   7   4   23.95    1.83 
  -1   7  -4   22.45    1.65 
   2  -7   4    1.16    0.38 
  -2  -7  -4    1.04    0.53 
  -2  -7  -4    1.35    0.54 
  -2  -7  -4    1.75    0.50 
  -2  -7  -4    1.42    0.52 
   2   7   4    0.95    0.73 
  -2   7  -4    1.70    0.48 
  -2   7  -4    1.55    0.49 
   2   7   4    1.87    0.41 
  -2   7  -4    1.28    0.35 
   2   7   4    0.75    0.31 
   2   7   4    1.21    0.54 
  -3  -7  -4    0.09    0.57 
  -3  -7  -4    0.26    0.48 
  -3  -7  -4    0.27    0.54 
  -3  -7  -4    0.14    0.32 
   3   7   4    0.53    0.48 
  -3   7  -4   -0.23    0.27 
  -3   7  -4   -0.42    0.29 
  -3   7  -4   -0.06    0.19 
  -4  -7  -4    8.70    1.16 
  -4  -7  -4    6.18    1.26 
  -4  -7  -4    6.27    1.14 
  -4   7  -4    7.70    0.90 
  -5  -7  -4    6.45    1.11 
  -5  -7  -4    7.04    1.31 
  -5   7  -4    4.48    0.81 
  -6  -7  -4    3.68    0.98 
  -6   7  -4    1.96    0.70 
  -6   7  -4    1.79    0.88 
  -6  -8   4   -1.00    0.96 
  -6  -8   4   -0.26    0.55 
   6   8  -4    0.28    1.14 
  -5  -8   4    0.04    0.69 
  -5  -8   4   -0.46    0.45 
  -5   8   4    0.50    0.69 
   5   8  -4   -1.10    0.57 
  -4  -8   4   15.13    1.85 
  -4  -8   4   14.32    1.47 
  -4  -8   4   13.82    1.85 
  -4  -8   4   16.06    1.61 
   4   8  -4   16.86    2.06 
  -4   8   4   15.61    1.53 
  -4   8   4   15.59    1.50 
  -3  -8   4    4.66    0.87 
  -3  -8   4    3.74    0.77 
  -3  -8   4    4.54    1.01 
  -3  -8   4    4.06    0.84 
   3   8  -4    2.75    0.96 
  -3   8   4    3.45    0.84 
  -3   8   4    6.02    0.93 
  -2  -8   4    1.12    0.51 
   2  -8  -4    0.05    0.26 
  -2  -8   4   -0.20    0.56 
  -2  -8   4    0.80    0.47 
  -2  -8   4    0.56    0.38 
   2   8  -4    0.12    0.30 
   2   8  -4    0.03    0.59 
   2   8  -4    0.57    0.34 
  -2   8   4    1.19    0.50 
  -2   8   4    0.53    0.49 
  -2   8   4    0.96    0.51 
   1  -8  -4    1.99    0.55 
  -1  -8   4    1.18    0.50 
   1  -8  -4    2.06    0.58 
  -1  -8   4    0.95    0.68 
   1  -8  -4    1.61    0.51 
  -1  -8   4    2.64    0.57 
   1  -8  -4    2.14    0.59 
   1  -8  -4    1.65    0.40 
  -1   8   4    1.84    0.69 
  -1   8   4    2.05    0.69 
  -1   8   4    1.82    0.53 
  -1   8   4    1.84    0.69 
   1   8  -4    1.95    0.65 
   1   8  -4    2.40    0.52 
   1   8  -4    3.27    0.59 
   0  -8  -4   32.02    2.33 
   0  -8   4   35.63    2.31 
   0  -8   4   35.32    2.24 
   0  -8  -4   36.56    2.33 
   0  -8  -4   37.05    2.32 
   0  -8  -4   31.13    2.36 
   0  -8   4   31.45    2.13 
   0  -8   4   32.00    2.44 
   0  -8  -4   33.18    2.42 
   0   8  -4   31.10    2.24 
   0   8  -4   36.73    2.39 
   0   8  -4   38.70    2.43 
   0   8   4   36.06    2.48 
   0   8  -4   34.49    2.35 
   0   8   4   34.99    2.26 
   0   8   4   31.93    2.50 
   1  -8   4   17.44    1.36 
   1  -8   4   18.56    1.21 
   1  -8   4   18.12    1.52 
   1  -8   4   17.75    1.32 
  -1  -8  -4   15.28    1.58 
  -1  -8  -4   18.19    1.49 
  -1  -8  -4   19.26    1.75 
  -1  -8  -4   18.27    1.59 
  -1   8  -4   17.85    1.52 
  -1   8  -4   16.87    1.39 
  -1   8  -4   19.67    1.40 
   1   8   4   18.22    1.59 
   1   8   4   18.00    1.76 
   1   8   4   19.67    1.40 
  -2  -8  -4    2.87    0.62 
  -2  -8  -4    3.67    0.94 
  -2  -8  -4    3.36    0.95 
  -2  -8  -4    4.94    0.88 
   2  -8   4    4.84    0.71 
   2   8   4    5.17    0.87 
   2   8   4    3.16    0.96 
  -2   8  -4    4.34    0.73 
  -2   8  -4    4.45    0.56 
   2   8   4    3.30    0.56 
  -2   8  -4    4.33    0.73 
  -3  -8  -4    3.81    1.09 
  -3  -8  -4    5.82    1.05 
  -3  -8  -4    3.54    0.89 
  -3  -8  -4    2.77    0.68 
  -3   8  -4    1.99    0.62 
   3   8   4    3.99    0.77 
  -3   8  -4    3.41    0.66 
  -3   8  -4    3.94    0.49 
  -4  -8  -4    1.60    0.97 
  -4  -8  -4    1.55    0.85 
  -4  -8  -4    1.00    0.65 
   4  -8   4    1.33    0.30 
  -4   8  -4    0.55    0.31 
  -4   8  -4    0.80    0.51 
  -5  -8  -4    2.59    1.00 
  -5  -8  -4    1.46    0.76 
  -5   8  -4    1.75    0.66 
  -6  -8  -4    0.30    0.73 
  -6   8  -4   -0.23    0.51 
  -6   8  -4   -0.12    0.72 
   6   9  -4    0.08    1.25 
  -5  -9   4   -1.39    0.78 
  -5  -9   4   -0.01    0.63 
  -5   9   4   -0.16    0.60 
   5   9  -4    0.59    0.92 
  -4  -9   4    3.04    1.27 
  -4  -9   4    4.90    1.02 
  -4  -9   4    2.41    0.81 
  -4   9   4    4.44    0.96 
   4   9  -4    4.97    1.42 
  -4   9   4    4.55    0.96 
  -3  -9   4    4.17    0.93 
  -3  -9   4    5.69    0.97 
  -3  -9   4    7.37    1.41 
  -3  -9   4    9.17    1.16 
  -3   9   4    7.39    1.08 
  -3   9   4    5.87    1.05 
   3   9  -4    6.18    0.53 
   3   9  -4    7.29    1.30 
   2  -9  -4    0.91    0.39 
  -2  -9   4    2.35    0.66 
  -2  -9   4    2.67    0.77 
  -2  -9   4    1.55    0.82 
   2   9  -4    1.76    0.47 
   2   9  -4    1.57    0.53 
  -2   9   4    1.46    0.72 
  -2   9   4    1.40    0.67 
   2   9  -4    2.49    0.83 
  -1  -9   4    7.69    0.94 
  -1  -9   4    7.80    1.20 
   1  -9  -4    6.81    0.88 
   1  -9  -4    5.98    0.89 
   1  -9  -4    5.98    0.93 
   1  -9  -4    7.34    0.73 
   1  -9  -4    6.74    0.93 
  -1  -9   4    7.82    0.95 
  -1   9   4    6.16    1.04 
   1   9  -4    5.23    0.80 
   1   9  -4    7.61    0.88 
   1   9  -4    5.95    1.05 
  -1   9   4    6.55    1.06 
  -1   9   4    8.35    1.13 
   0  -9   4   -0.07    0.37 
   0  -9  -4    0.31    0.38 
   0  -9   4    0.16    0.52 
   0  -9  -4   -0.36    0.33 
   0  -9  -4   -0.28    0.38 
   0  -9  -4    0.10    0.49 
   0  -9  -4    0.26    0.43 
   0  -9   4   -0.09    0.24 
   0   9  -4   -0.04    0.38 
   0   9   4   -0.05    0.36 
   0   9   4   -0.12    0.36 
   0   9  -4    0.12    0.37 
   0   9  -4   -0.06    0.39 
   0   9  -4   -0.28    0.41 
   0   9   4    0.32    0.42 
  -1  -9  -4    0.49    0.49 
  -1  -9  -4    1.24    0.47 
   1  -9   4    0.44    0.35 
  -1  -9  -4    1.00    0.54 
   1  -9   4    0.83    0.43 
  -1  -9  -4    0.28    0.37 
   1  -9   4    0.89    0.30 
   1  -9   4   -0.69    0.33 
  -1   9  -4    0.36    0.42 
  -1   9  -4    0.26    0.36 
   1   9   4    0.27    0.39 
   1   9   4    0.25    0.58 
   1   9   4    0.32    0.51 
  -1   9  -4    0.68    0.39 
  -2  -9  -4   14.47    1.58 
  -2  -9  -4   15.16    1.55 
  -2  -9  -4   15.09    1.62 
  -2  -9  -4   14.96    1.34 
   2  -9   4   14.21    1.30 
  -2   9  -4   15.96    1.17 
   2   9   4   14.51    1.18 
   2   9   4   14.70    1.48 
   2   9   4   10.49    1.06 
  -2   9  -4   16.00    1.44 
  -3  -9  -4    0.77    0.68 
  -3  -9  -4    1.81    0.81 
  -3  -9  -4    1.07    0.52 
  -3  -9  -4    1.04    0.73 
  -3   9  -4    0.94    0.51 
  -3   9  -4    0.89    0.34 
  -3   9  -4    1.85    0.62 
   3   9   4    1.34    0.66 
  -4  -9  -4   21.12    1.96 
  -4  -9  -4   17.35    1.79 
  -4   9  -4   16.08    1.18 
  -4   9  -4   15.94    1.55 
  -5  -9  -4    7.99    1.44 
  -5  -9  -4    9.32    1.41 
  -5   9  -4    7.96    1.12 
  -5 -10   4    2.26    1.07 
  -5 -10   4    2.34    0.90 
  -5  10   4    5.12    1.17 
   5  10  -4    0.66    1.24 
  -4 -10   4    2.60    0.90 
  -4 -10   4    6.18    1.64 
   4  10  -4    2.56    1.31 
  -4  10   4    1.92    0.84 
  -3 -10   4   15.11    1.53 
  -3 -10   4   16.60    1.58 
  -3 -10   4   17.01    1.68 
  -3 -10   4   12.68    1.90 
   3  10  -4   16.11    2.07 
  -3  10   4   17.75    1.74 
   3  10  -4   14.57    1.06 
   2 -10  -4    1.35    0.51 
  -2 -10   4    1.61    0.61 
   2 -10  -4    0.72    0.41 
  -2 -10   4    1.08    0.54 
  -2 -10   4    0.63    0.77 
   2  10  -4    1.37    0.78 
  -2  10   4    2.67    0.89 
   2  10  -4    1.18    0.45 
   2  10  -4    0.48    0.41 
   1 -10  -4    3.82    0.76 
  -1 -10   4    1.74    0.86 
   1 -10  -4    3.04    0.82 
  -1 -10   4    3.83    0.68 
  -1 -10   4    1.82    0.67 
   1 -10  -4    3.93    0.58 
   1 -10  -4    4.07    0.73 
   1 -10  -4    2.49    0.73 
   1  10  -4    4.02    0.73 
  -1  10   4    3.38    0.96 
   1  10  -4    2.44    0.75 
   1  10  -4    2.70    0.91 
   0 -10  -4    1.47    0.63 
   0 -10   4    0.13    0.43 
   0 -10  -4    0.33    0.49 
   0 -10  -4    1.00    0.57 
   0 -10  -4    1.51    0.60 
   0 -10  -4    1.21    0.60 
   0 -10   4    1.02    0.51 
   0 -10   4    0.86    0.52 
   0  10   4    0.54    0.50 
   0  10  -4    1.33    0.61 
   0  10  -4    0.86    0.54 
   0  10  -4    0.77    0.57 
   0  10  -4    2.09    0.73 
   0  10   4    1.57    0.72 
   1 -10   4    7.02    0.80 
   1 -10   4    6.35    0.83 
  -1 -10  -4    5.55    0.96 
   1 -10   4    4.01    0.90 
   1 -10   4    4.50    0.57 
  -1 -10  -4    3.92    0.81 
  -1 -10  -4    5.24    0.88 
  -1 -10  -4    6.56    1.05 
  -1  10  -4    7.29    0.87 
  -1  10  -4    4.92    0.84 
   1  10   4    5.56    0.82 
   1  10   4    4.76    1.15 
  -2 -10  -4   45.12    2.99 
  -2 -10  -4   43.76    3.33 
   2 -10   4   44.79    2.90 
  -2 -10  -4   39.91    3.13 
  -2 -10  -4   45.12    3.20 
  -2  10  -4   44.60    3.07 
   2  10   4   43.52    2.78 
  -2  10  -4   44.72    2.73 
   2  10   4   42.74    2.70 
   2  10   4   43.54    3.08 
  -3 -10  -4   34.63    2.79 
  -3 -10  -4   34.52    2.87 
  -3 -10  -4   32.70    2.50 
  -3 -10  -4   37.25    3.58 
  -3  10  -4   39.80    2.72 
  -3  10  -4   36.12    2.21 
   3  10   4   33.81    2.57 
  -4 -10  -4    5.79    1.17 
  -4 -10  -4    3.47    1.18 
  -4  10  -4    4.41    1.00 
  -5 -10  -4    5.28    1.40 
  -5  10  -4    6.22    1.16 
  -5 -11   4    3.57    1.09 
  -5 -11   4    5.39    1.66 
   5  11  -4    5.22    1.90 
  -5  11   4    3.59    1.21 
  -4 -11   4    9.57    1.39 
  -4 -11   4    9.45    1.85 
   4  11  -4   12.26    1.92 
  -4  11   4    8.12    1.35 
  -3 -11   4    3.03    1.04 
  -3 -11   4    2.49    0.91 
  -3 -11   4    4.84    1.17 
  -3  11   4    3.29    1.06 
   3  11  -4    1.97    0.97 
   3  11  -4    2.81    0.55 
   2 -11  -4    7.20    0.83 
  -2 -11   4    6.63    1.14 
  -2 -11   4    4.61    1.08 
  -2 -11   4    5.20    0.96 
   2 -11  -4    5.44    0.89 
   2  11  -4    5.52    0.78 
   2  11  -4    4.49    0.94 
   2  11  -4    3.44    1.06 
  -2  11   4    4.85    1.11 
  -1 -11   4    2.61    0.80 
   1 -11  -4    1.48    0.71 
  -1 -11   4    3.00    0.95 
   1 -11  -4    1.80    0.49 
   1 -11  -4    2.41    0.71 
  -1 -11   4    2.25    0.79 
   1 -11  -4    2.62    0.86 
   1 -11  -4    3.27    0.79 
   1  11  -4    1.18    0.55 
  -1  11   4    1.61    0.85 
   1  11  -4    1.41    0.65 
   1  11  -4    2.92    0.89 
   0 -11  -4    1.66    0.73 
   0 -11  -4    1.20    0.59 
   0 -11  -4    1.55    0.66 
   0 -11   4    2.00    0.68 
   0 -11   4    1.11    0.53 
   0 -11  -4    2.02    0.69 
   0 -11   4    1.03    0.76 
   0 -11  -4    1.59    0.60 
   0 -11  -4    1.30    0.66 
   0  11  -4    1.84    0.73 
   0  11   4    1.82    0.68 
   0  11  -4    1.35    0.62 
   0  11  -4    1.57    0.73 
   0  11  -4    1.90    0.74 
   0  11   4    1.50    0.76 
   1 -11   4    3.32    0.69 
  -1 -11  -4    6.77    1.11 
  -1 -11  -4    5.15    0.94 
   1 -11   4    4.23    1.05 
   1 -11   4    5.04    0.75 
  -1 -11  -4    4.58    0.94 
  -1 -11  -4    5.79    0.88 
   1  11   4    4.34    0.92 
   1  11   4    6.58    0.89 
  -1  11  -4    6.04    0.93 
  -1  11  -4    5.43    1.02 
  -2 -11  -4   16.15    1.56 
   2 -11   4   15.75    1.46 
  -2 -11  -4   12.03    1.64 
  -2 -11  -4   12.39    1.65 
  -2 -11  -4   13.92    1.64 
  -2  11  -4   15.92    1.64 
   2  11   4   14.30    1.31 
  -2  11  -4   12.17    1.24 
   2  11   4   15.55    1.66 
   2  11   4   15.22    1.26 
  -3 -11  -4    5.60    1.17 
  -3 -11  -4    5.60    1.26 
  -3 -11  -4    6.74    1.12 
   3  11   4    8.34    0.95 
  -3  11  -4    7.10    1.22 
  -3  11  -4    9.03    0.90 
   3  11   4    9.65    1.26 
  -4 -11  -4    2.87    1.15 
  -4  11  -4    5.60    1.10 
  -5 -11  -4    1.66    1.15 
  -5 -12   4    0.40    1.22 
  -5 -12   4    1.33    0.94 
  -5  12   4   -0.49    0.86 
   5  12  -4   -0.32    0.84 
  -4 -12   4    2.27    0.95 
  -4 -12   4    2.38    1.16 
   4  12  -4    1.95    1.34 
  -4  12   4    1.85    1.00 
  -3 -12   4    0.66    0.73 
  -3 -12   4    0.67    0.97 
  -3  12   4    0.35    0.75 
   3  12  -4    0.63    1.02 
   3  12  -4    0.87    0.43 
  -2 -12   4    7.33    1.24 
   2 -12  -4    6.83    0.93 
  -2 -12   4    8.09    1.22 
  -2 -12   4    7.21    1.52 
   2 -12  -4    9.47    1.17 
   2  12  -4    9.82    1.17 
  -2  12   4    6.22    1.17 
   2  12  -4    7.68    1.37 
  -1 -12   4    1.70    0.69 
   1 -12  -4    2.93    0.85 
  -1 -12   4    3.20    1.14 
   1 -12  -4    2.37    0.58 
   1 -12  -4    1.61    0.72 
  -1 -12   4    3.21    0.85 
   1 -12  -4    2.61    0.85 
   1 -12  -4    1.07    0.62 
  -1  12   4    1.77    0.91 
   1  12  -4    2.67    0.92 
   1  12  -4    3.12    0.81 
   1  12  -4    2.79    0.78 
   0 -12  -4    2.06    0.75 
   0 -12   4    0.16    0.28 
   0 -12  -4    1.35    0.65 
   0 -12   4    2.00    0.96 
   0 -12  -4    1.52    0.71 
   0 -12  -4    1.90    0.78 
   0 -12   4    1.81    0.67 
   0  12   4    4.81    1.26 
   0  12   4    2.60    0.80 
   0  12  -4    3.32    0.92 
   0  12  -4    1.75    0.71 
   0  12  -4    2.10    0.75 
  -1 -12  -4    3.26    0.91 
  -1 -12  -4    2.58    1.03 
   1 -12   4    3.47    0.78 
  -1 -12  -4    4.73    1.05 
  -1 -12  -4    3.42    0.90 
   1 -12   4    4.21    1.12 
   1 -12   4    3.64    0.80 
  -1  12  -4    4.96    0.87 
  -1  12  -4    5.62    1.14 
   1  12   4    4.46    0.85 
   1  12   4    4.43    1.23 
  -2 -12  -4   37.17    2.99 
   2 -12   4   37.47    2.68 
  -2 -12  -4   34.39    2.72 
   2  12   4   35.02    2.51 
   2  12   4   39.54    2.57 
  -2  12  -4   36.22    2.89 
  -2  12  -4   38.18    2.49 
   2  12   4   32.66    2.84 
  -3 -12  -4   13.79    1.92 
   3 -12   4   18.65    1.54 
   3 -12   4   16.46    1.63 
   3  12   4   14.49    1.38 
  -4 -12  -4   -0.72    0.52 
  -5 -12  -4    0.64    1.02 
  -4 -13   4    9.59    1.54 
  -4 -13   4    5.84    1.80 
   4  13  -4    8.17    1.78 
  -4  13   4    6.43    1.46 
  -3 -13   4    0.49    0.72 
  -3 -13   4    0.46    0.71 
  -3  13   4    1.74    1.05 
   3  13  -4   -0.02    1.01 
  -2 -13   4    2.97    0.92 
   2 -13  -4    2.71    0.67 
   2 -13  -4    2.45    0.79 
  -2 -13   4    3.67    1.23 
  -2 -13   4    3.67    1.04 
  -2  13   4    2.47    1.17 
   2  13  -4    2.48    0.91 
   2  13  -4    4.70    1.34 
  -1 -13   4   16.17    1.88 
  -1 -13   4   16.66    1.68 
   1 -13  -4   16.93    1.70 
   1 -13  -4   12.41    1.45 
  -1 -13   4   19.09    1.86 
   1 -13  -4   18.96    1.78 
   1  13  -4   14.61    1.88 
  -1  13   4   16.73    1.97 
   1  13  -4   11.34    1.49 
   1  13  -4   17.86    1.69 
   0 -13   4   -0.22    0.44 
   0 -13  -4    0.05    0.57 
   0 -13  -4    0.11    0.58 
   0 -13   4    0.67    0.63 
   0 -13  -4    0.41    0.52 
   0  13  -4    0.61    0.70 
   0  13  -4   -0.42    0.38 
   0  13  -4    1.12    0.74 
   0  13   4    0.70    0.68 
  -1 -13  -4   25.05    2.45 
   1 -13   4   27.07    2.46 
   1 -13   4   30.84    2.17 
  -1 -13  -4   32.33    2.55 
  -1 -13  -4   28.95    2.40 
  -1  13  -4   29.60    2.30 
   1  13   4   28.10    2.21 
   1  13   4   30.59    2.68 
  -2 -13  -4    5.94    1.16 
   2 -13   4    8.15    1.21 
  -2 -13  -4    6.75    1.45 
  -2  13  -4    5.93    0.95 
   2  13   4    6.14    1.34 
   2  13   4    8.82    1.14 
   3 -13   4   45.68    2.92 
  -3 -13  -4   41.35    3.50 
   3  13   4   38.35    2.77 
  -4 -13  -4   -0.10    0.88 
  -4 -14   4    8.76    1.61 
  -4 -14   4    5.34    1.91 
  -4  14   4    7.81    1.85 
   4  14  -4    7.08    2.11 
  -3 -14   4    1.03    0.93 
  -3 -14   4    2.41    1.05 
  -3  14   4    1.36    0.87 
   3  14  -4    0.82    0.88 
  -2 -14   4    3.76    1.05 
   2 -14  -4    2.14    0.72 
   2 -14  -4    2.80    0.88 
  -2 -14   4    4.59    1.35 
  -2 -14   4    4.29    1.22 
  -2  14   4    4.57    1.29 
   2  14  -4    4.37    1.36 
   2  14  -4    1.74    0.75 
   1 -14  -4    3.94    0.95 
   1 -14  -4    5.70    1.02 
  -1 -14   4    2.75    1.00 
  -1 -14   4    3.98    0.88 
   1 -14  -4    5.94    1.22 
   1  14  -4    5.01    0.97 
  -1  14   4    2.01    1.08 
   1  14  -4    4.08    1.26 
   0 -14  -4    5.09    1.09 
   0 -14   4    5.51    1.02 
   0 -14   4    3.66    1.08 
   0 -14  -4    1.94    0.98 
   0  14   4    2.75    1.05 
   0  14  -4    4.09    1.11 
   0  14  -4    5.15    1.17 
   1 -14   4    6.72    1.03 
  -1 -14  -4    6.63    1.22 
  -1 -14  -4    8.32    1.51 
   1 -14   4    5.74    1.30 
   1  14   4    9.68    1.61 
  -1  14  -4   10.84    1.31 
  -2 -14  -4    8.78    1.37 
   2 -14   4   10.73    1.59 
   2 -14   4    8.66    1.31 
  -2 -14  -4    8.08    1.58 
   2  14   4    7.75    1.16 
   2  14   4    8.16    1.52 
  -2  14  -4    8.33    1.17 
   3 -14   4    0.33    0.60 
  -3 -14  -4    0.51    0.84 
   3  14   4    0.49    0.57 
  -4 -14  -4    0.02    1.02 
  -4 -15   4    0.63    0.95 
   4  15  -4    0.67    1.06 
  -4  15   4    1.59    1.23 
  -3 -15   4   -0.24    1.02 
   3  15  -4   -0.09    1.16 
  -3  15   4    1.23    1.14 
   2 -15  -4   -0.34    0.45 
  -2 -15   4    1.22    0.86 
  -2 -15   4    1.26    1.11 
   2 -15  -4   -0.99    0.55 
   2  15  -4   -1.06    0.82 
  -2  15   4   -0.87    0.80 
   1 -15  -4    2.48    0.93 
  -1 -15   4    0.79    0.97 
   1 -15  -4    1.12    0.69 
  -1 -15   4    2.18    0.90 
  -1  15   4    0.48    0.84 
   1  15  -4    1.34    0.98 
   0 -15  -4    1.63    0.96 
   0 -15  -4   -0.27    0.63 
   0 -15   4    0.17    0.62 
   0 -15   4   -0.37    0.56 
   0  15   4    0.70    0.99 
   0  15  -4    0.27    0.78 
  -1 -15  -4    0.75    0.69 
   1 -15   4    0.74    0.72 
  -1 -15  -4    0.38    0.61 
   1 -15   4    2.17    0.72 
  -1  15  -4    1.44    0.81 
   1  15   4    0.90    1.11 
   2 -15   4    2.61    1.08 
  -2 -15  -4    3.22    1.18 
  -2 -15  -4    3.86    1.16 
   2 -15   4    3.57    1.08 
   2  15   4    4.85    1.45 
   2  15   4    3.62    0.99 
   3 -15   4    6.85    1.12 
  -3 -15  -4    7.96    1.74 
  -4 -15  -4    0.06    0.72 
  -3 -16   4    0.20    1.27 
  -3  16   4    0.20    1.19 
   3  16  -4   -0.19    1.12 
  -2 -16   4    0.73    1.13 
   2 -16  -4    1.74    0.76 
  -2  16   4    1.17    1.16 
   2  16  -4   -0.15    1.11 
   1 -16  -4   12.90    1.85 
  -1 -16   4   16.76    1.82 
   1 -16  -4   16.58    1.72 
  -1 -16   4   13.63    2.12 
   1  16  -4   14.41    2.05 
  -1  16   4   13.77    1.95 
   0 -16   4    1.94    0.99 
   0 -16  -4    1.32    0.83 
   0 -16  -4    1.53    0.82 
   0 -16   4    0.48    0.74 
   0  16   4    2.27    1.29 
   0  16  -4    1.32    0.86 
   1 -16   4    1.40    0.86 
  -1 -16  -4    0.87    1.00 
   1 -16   4    1.27    0.68 
  -1 -16  -4    0.72    0.83 
  -1  16  -4    1.80    0.83 
   1  16   4    2.69    1.31 
   1  16   4    2.08    0.80 
  -2 -16  -4   10.39    1.84 
   2 -16   4    7.25    1.38 
  -2 -16  -4    8.24    1.50 
   2  16   4    6.87    1.24 
   2  16   4    7.44    1.86 
  -3 -16  -4    5.81    1.60 
   3 -16   4    3.32    1.11 
  -3 -17   4    2.90    1.62 
  -3  17   4    1.28    1.25 
   3  17  -4   -0.08    1.31 
  -2 -17   4   -0.32    0.73 
   2 -17  -4    0.40    0.62 
   2  17  -4   -0.30    1.01 
  -2  17   4    0.08    1.09 
   1 -17  -4    3.55    1.07 
  -1 -17   4    0.80    1.21 
   1 -17  -4    0.63    0.90 
  -1 -17   4    1.94    0.98 
  -1  17   4    1.36    1.29 
   1  17  -4    0.71    0.85 
   0 -17  -4    4.20    1.22 
   0 -17   4    7.09    1.30 
   0 -17  -4    6.86    1.53 
   0 -17   4    3.16    1.32 
   0  17   4    6.34    1.85 
   0  17  -4    4.20    1.39 
   1 -17   4    2.86    0.91 
  -1 -17  -4    2.97    1.12 
   1 -17   4    3.83    1.32 
  -1 -17  -4    2.89    1.10 
   1  17   4    2.33    1.38 
  -2 -17  -4    3.67    1.33 
   2 -17   4    2.78    1.15 
   2  17   4    2.44    1.42 
  -3 -17  -4   -0.01    0.86 
   2 -18  -4    3.14    0.93 
  -2 -18   4    1.28    1.17 
   2  18  -4    2.81    1.55 
  -2  18   4    2.80    1.46 
  -1 -18   4    1.23    1.21 
   1 -18  -4    2.33    1.02 
   1 -18  -4    1.78    0.90 
  -1 -18   4    2.80    1.15 
   1  18  -4    2.07    1.35 
  -1  18   4    2.73    1.52 
   0 -18  -4    0.71    0.85 
   0 -18  -4   -1.33    0.62 
   0 -18   4    0.52    0.94 
   0 -18   4   -0.88    0.72 
   0  18   4    1.16    1.29 
   0  18  -4    0.49    1.01 
   1 -18   4    0.53    1.05 
  -1 -18  -4    1.46    0.97 
  -1 -18  -4    1.61    1.17 
   1 -18   4    1.79    0.87 
   1  18   4    4.89    1.68 
   2 -18   4    1.51    1.04 
  -2 -18  -4   -0.26    1.06 
   0 -19   4    0.25    1.05 
   0 -19  -4    0.64    1.20 
   0 -19  -4    1.32    0.96 
   0 -19   4   -0.92    0.73 
   0  19   4    0.47    1.28 
  -6   0   5    0.07    0.14 
  -6   0   5    0.32    0.85 
   5   0  -5    0.41    0.67 
  -5   0   5   -0.03    0.10 
  -5   0   5    0.22    0.48 
  -5   0   5    0.63    0.61 
   4   0  -5    0.20    0.51 
  -4   0   5   -0.18    0.09 
  -3   0   5   -0.35    0.30 
  -3   0   5   -0.04    0.10 
   3   0  -5   -0.53    0.38 
   2   0  -5    0.06    0.31 
  -2   0   5   -0.19    0.10 
  -2   0   5   -0.10    0.06 
  -2   0   5    0.02    0.12 
  -2   0   5    0.03    0.25 
  -2   0   5   -0.01    0.11 
   1   0  -5   -0.06    0.12 
  -1   0   5   -0.09    0.12 
  -1   0   5    0.04    0.13 
   1   0  -5   -0.28    0.10 
  -1   0   5    0.23    0.19 
   1   0  -5   -0.26    0.11 
   1   0  -5    0.02    0.13 
   0   0  -5    0.54    0.21 
   0   0   5   -0.05    0.15 
   0   0   5    0.36    0.15 
   0   0  -5    0.15    0.16 
  -1   0  -5    0.03    0.17 
   1   0   5   -0.10    0.17 
  -1   0  -5    0.06    0.09 
  -1   0  -5   -0.03    0.14 
   1   0   5   -0.02    0.17 
  -2   0  -5   -0.09    0.19 
   2   0   5    0.12    0.26 
   2   0   5    0.02    0.18 
   2   0   5   -0.25    0.21 
  -2   0  -5    0.03    0.17 
   3   0   5   -0.34    0.28 
  -3   0  -5    0.11    0.14 
  -3   0  -5   -0.22    0.17 
  -3   0  -5    0.37    0.38 
   4   0   5   -0.16    0.40 
  -4   0  -5    0.25    0.20 
  -4   0  -5    0.17    0.26 
  -4   0  -5    0.08    0.32 
  -5   0  -5    0.06    0.31 
  -5   0  -5    0.09    0.50 
  -6   0  -5   -0.40    0.53 
  -6   0  -5   -0.37    0.28 
  -6  -1   5    0.38    0.79 
  -6  -1   5   -0.10    0.18 
  -6   1   5   -0.17    0.63 
   6   1  -5    0.95    0.96 
  -6   1   5    0.07    0.10 
  -5  -1   5    0.00    0.62 
   5  -1  -5    0.52    0.69 
  -5  -1   5    0.89    0.56 
  -5  -1   5   -0.07    0.15 
   5   1  -5    0.67    0.77 
  -5   1   5   -0.40    0.53 
  -4  -1   5   30.36    2.23 
   4  -1  -5   28.92    2.30 
  -4  -1   5   27.82    1.62 
   4   1  -5   27.83    2.39 
  -4   1   5   28.01    1.53 
  -4   1   5   30.05    1.61 
  -3  -1   5   10.55    0.59 
  -3  -1   5    9.46    0.61 
  -3  -1   5   10.14    0.71 
   3  -1  -5    9.86    1.12 
  -3   1   5   10.08    0.95 
   3   1  -5   10.18    1.20 
  -3   1   5   10.30    0.63 
  -2  -1   5    2.39    0.31 
  -2  -1   5    1.92    0.51 
  -2  -1   5    2.28    0.32 
   2  -1  -5    1.62    0.45 
  -2   1   5    2.59    0.27 
   2   1  -5    2.89    0.54 
  -2   1   5    3.06    0.44 
  -2   1   5    2.39    0.28 
   1  -1  -5  241.06   12.14 
  -1  -1   5  236.91   12.17 
   1  -1  -5  236.43   12.15 
   1  -1  -5  230.82   12.22 
  -1  -1   5  237.53   12.20 
  -1  -1   5  249.73   12.28 
   1   1  -5  240.46   12.17 
   1   1  -5  234.89   12.13 
  -1   1   5  242.25   12.17 
  -1   1   5  243.56   12.18 
  -1   1   5  236.65   12.16 
   1   1  -5  231.59   12.13 
   1   1  -5  242.76   12.20 
   1   1  -5  241.63   12.35 
   0  -1   5  204.15   10.51 
   0  -1  -5  205.18   10.57 
   0  -1   5  201.50   10.49 
   0  -1  -5  209.28   10.49 
   0  -1  -5  204.73   10.51 
   0   1  -5  201.56   10.50 
   0   1   5  210.73   10.57 
   0   1   5  200.13   10.51 
   0   1  -5  205.28   10.56 
   0   1  -5  208.24   10.50 
   1  -1   5  292.35   14.63 
  -1  -1  -5  289.99   14.79 
  -1  -1  -5  287.92   14.67 
  -1   1  -5  278.11   14.79 
  -1   1  -5  289.84   14.63 
   1   1   5  284.60   14.65 
   1   1   5  303.58   14.72 
  -1   1  -5  282.94   14.59 
   1   1   5  276.71   14.76 
  -2  -1  -5    0.23    0.20 
  -2  -1  -5    0.36    0.33 
  -2  -1  -5    0.37    0.24 
   2   1   5    0.64    0.41 
   2   1   5    0.70    0.29 
   2   1   5    0.41    0.30 
  -2   1  -5    0.34    0.29 
  -2   1  -5    0.14    0.17 
   2   1   5    0.23    0.35 
  -3  -1  -5    5.30    0.78 
  -3  -1  -5    7.14    0.63 
  -3  -1  -5    6.12    0.65 
   3  -1   5    7.02    0.80 
   3   1   5    6.15    0.59 
   3   1   5    6.01    0.87 
  -3   1  -5    6.89    0.61 
  -3   1  -5    8.21    0.91 
  -4  -1  -5    3.45    0.54 
  -4  -1  -5    3.43    0.52 
   4  -1   5    4.26    0.80 
  -4  -1  -5    2.40    0.70 
   4   1   5    3.08    0.85 
  -4   1  -5    1.98    0.66 
  -4   1  -5    3.10    0.47 
  -5  -1  -5   39.92    2.43 
  -5  -1  -5   38.08    2.75 
  -5   1  -5   41.83    2.36 
  -5   1  -5   35.31    2.76 
  -6  -1  -5   -0.26    0.33 
  -6  -1  -5   -0.15    0.50 
  -6   1  -5   -0.09    0.30 
  -6   1  -5    0.83    0.70 
  -6  -2   5    9.74    0.82 
  -6  -2   5   11.09    1.68 
  -6   2   5    9.75    0.61 
   6   2  -5   10.54    1.63 
  -6   2   5   13.37    1.57 
  -5  -2   5   17.76    1.86 
   5  -2  -5   16.38    1.72 
  -5  -2   5   17.12    1.74 
  -5  -2   5   15.91    1.09 
  -5   2   5   15.39    0.90 
   5   2  -5   19.67    2.11 
  -4  -2   5   10.64    0.79 
  -4  -2   5    7.66    0.72 
  -4  -2   5    9.71    1.27 
   4  -2  -5   11.96    1.24 
  -4   2   5   10.66    0.61 
   4   2  -5   10.46    1.36 
  -4   2   5    9.39    1.04 
  -3  -2   5    1.61    0.28 
  -3  -2   5    2.48    0.66 
   3  -2  -5    2.26    0.60 
  -3  -2   5    1.52    0.34 
  -3   2   5    1.72    0.42 
   3   2  -5    1.48    0.70 
  -3   2   5    1.71    0.22 
  -3   2   5    1.71    0.34 
   2  -2  -5    6.94    0.68 
  -2  -2   5    5.46    0.55 
  -2  -2   5    4.74    0.68 
  -2  -2   5    4.35    0.66 
  -2  -2   5    6.34    0.54 
  -2   2   5    6.64    0.55 
  -2   2   5    6.67    0.51 
   2   2  -5    3.90    0.69 
  -2   2   5    6.15    0.46 
   1  -2  -5  147.69    7.82 
  -1  -2   5  154.88    7.86 
   1  -2  -5  155.11    7.84 
  -1  -2   5  151.37    7.89 
   1  -2  -5  152.99    7.79 
  -1  -2   5  153.51    7.98 
   1   2  -5  152.33    8.06 
   1   2  -5  150.89    7.85 
  -1   2   5  146.86    7.83 
  -1   2   5  155.43    7.86 
   1   2  -5  152.64    7.90 
   0  -2   5  133.25    6.93 
   0  -2   5  133.73    6.99 
   0  -2   5  133.68    6.93 
   0  -2  -5  142.50    6.95 
   0  -2  -5  131.89    6.95 
   0   2   5  132.27    6.94 
   0   2  -5  130.49    6.92 
   0   2   5  131.49    7.01 
   0   2  -5  130.48    6.95 
   0   2  -5  136.46    6.97 
   0   2  -5  134.21    6.97 
   0   2   5  134.06    6.99 
   1  -2   5   30.26    1.61 
  -1  -2  -5   26.49    1.75 
   1  -2   5   28.88    1.58 
  -1  -2  -5   27.03    1.68 
   1   2   5   26.69    1.70 
   1   2   5   25.93    1.72 
  -1   2  -5   28.20    1.62 
   1   2   5   25.82    1.75 
   1   2   5   24.58    1.67 
   1   2   5   27.41    1.83 
  -1   2  -5   31.21    1.83 
  -2  -2  -5   61.17    3.64 
  -2  -2  -5   65.96    3.50 
  -2  -2  -5   63.26    3.53 
   2   2   5   60.43    3.51 
  -2   2  -5   62.96    3.42 
   2   2   5   62.11    3.77 
   2   2   5   64.76    3.56 
  -2   2  -5   62.03    3.68 
   2   2   5   64.57    3.55 
  -3  -2  -5   -0.10    0.25 
  -3  -2  -5    0.34    0.38 
  -3  -2  -5   -0.10    0.24 
   3  -2   5    0.09    0.29 
  -3   2  -5    0.04    0.17 
   3   2   5   -0.04    0.38 
   3   2   5    0.11    0.28 
  -3   2  -5   -0.44    0.29 
  -4  -2  -5   10.64    0.98 
  -4  -2  -5   11.60    1.21 
   4  -2   5   10.87    1.06 
  -4  -2  -5   11.33    1.02 
  -4   2  -5   13.27    1.31 
  -4   2  -5   10.93    0.86 
   4   2   5    9.50    1.36 
  -5  -2  -5    9.29    0.98 
  -5  -2  -5   10.84    1.21 
  -5   2  -5   10.36    1.29 
  -5   2  -5    9.49    0.85 
  -6  -2  -5   46.10    2.96 
  -6   2  -5   49.90    2.87 
  -6   2  -5   49.20    3.44 
  -6  -3   5    3.81    0.61 
  -6  -3   5    3.40    1.19 
   6   3  -5    4.67    1.38 
  -6   3   5    3.48    1.00 
  -6   3   5    2.52    0.36 
  -5  -3   5   11.55    1.57 
  -5  -3   5    9.32    1.37 
  -5  -3   5    9.54    0.88 
  -5   3   5   10.34    0.68 
   5   3  -5   10.21    1.71 
  -4  -3   5    2.37    0.40 
   4  -3  -5    2.40    0.70 
  -4  -3   5    1.50    0.67 
  -4  -3   5    2.36    0.46 
  -4   3   5    2.97    0.30 
   4   3  -5    3.44    1.04 
  -4   3   5    2.97    0.59 
  -3  -3   5    2.47    0.44 
  -3  -3   5    1.60    0.59 
  -3  -3   5    3.77    0.44 
   3  -3  -5    3.85    0.62 
  -3   3   5    3.05    0.44 
  -3   3   5    3.03    0.32 
   3   3  -5    1.24    0.71 
  -2  -3   5    2.00    0.40 
  -2  -3   5    1.92    0.61 
   2  -3  -5    1.99    0.39 
  -2  -3   5    1.98    0.59 
  -2  -3   5    1.96    0.38 
  -2   3   5    1.46    0.25 
   2   3  -5    1.62    0.53 
  -2   3   5    1.30    0.32 
  -2   3   5    1.36    0.28 
  -1  -3   5   46.13    2.64 
   1  -3  -5   45.52    2.43 
  -1  -3   5   45.93    2.66 
  -1  -3   5   43.50    2.57 
  -1  -3   5   43.27    2.54 
   1  -3  -5   47.29    2.46 
  -1  -3   5   45.29    2.75 
   1  -3  -5   43.04    2.51 
   1   3  -5   42.73    2.72 
   1   3  -5   47.63    2.60 
  -1   3   5   44.31    2.54 
  -1   3   5   46.01    2.54 
   0  -3   5   21.96    1.41 
   0  -3  -5   22.33    1.42 
   0  -3   5   24.21    1.42 
   0  -3  -5   24.15    1.44 
   0  -3   5   24.38    1.49 
   0  -3   5   20.94    1.49 
   0   3  -5   22.96    1.41 
   0   3   5   24.22    1.43 
   0   3   5   22.99    1.52 
   0   3  -5   20.41    1.43 
   0   3   5   22.05    1.48 
   0   3   5   22.36    1.54 
   0   3  -5   23.58    1.47 
   0   3  -5   23.61    1.46 
  -1  -3  -5    2.68    0.45 
  -1  -3  -5    2.88    0.40 
   1   3   5    1.90    0.46 
   2  -3   5    4.87    0.63 
  -2  -3  -5    5.30    0.73 
  -2  -3  -5    5.03    0.62 
  -2  -3  -5    5.03    0.63 
   2   3   5    3.66    0.80 
   2   3   5    5.29    0.67 
  -2   3  -5    4.52    0.49 
   2   3   5    5.47    0.65 
   2   3   5    4.20    0.65 
  -3  -3  -5   14.31    0.95 
  -3  -3  -5   16.21    1.36 
  -3  -3  -5   16.58    1.25 
   3  -3   5   17.76    1.16 
  -3  -3  -5   14.41    1.20 
   3   3   5   13.86    0.96 
  -3   3  -5   14.96    1.05 
   3   3   5   16.04    1.55 
   3   3   5   14.88    1.25 
  -3   3  -5   14.12    1.36 
  -4  -3  -5   13.35    1.25 
  -4  -3  -5   15.07    1.06 
  -4  -3  -5   15.43    1.27 
   4  -3   5   15.08    1.22 
  -4   3  -5   14.84    1.07 
   4   3   5   13.58    1.58 
   4   3   5   13.91    1.22 
  -4   3  -5   15.08    1.46 
  -5  -3  -5    1.59    0.61 
  -5  -3  -5    0.39    0.43 
  -5   3  -5    1.44    0.70 
  -5   3  -5    0.66    0.35 
  -6  -3  -5    0.48    0.51 
  -6   3  -5   -0.08    0.64 
  -6   3  -5   -0.01    0.33 
  -6  -4   5    3.01    1.23 
  -6  -4   5    1.89    0.54 
  -6   4   5    2.49    0.46 
   6   4  -5    0.48    0.81 
  -5  -4   5    1.77    0.91 
  -5  -4   5    2.09    0.98 
  -5  -4   5    1.01    0.44 
  -5   4   5    1.70    0.37 
   5   4  -5    1.02    0.82 
   4  -4  -5    3.62    0.67 
  -4  -4   5    3.50    0.85 
  -4  -4   5    4.31    0.57 
  -4  -4   5    4.05    0.62 
  -4   4   5    4.01    0.46 
  -4   4   5    4.89    0.58 
  -4   4   5    3.21    0.39 
   4   4  -5    2.96    1.06 
  -3  -4   5    1.76    0.40 
   3  -4  -5    1.51    0.42 
  -3  -4   5    2.32    0.77 
  -3  -4   5    1.99    0.56 
  -3  -4   5    2.10    0.48 
  -3   4   5    2.33    0.36 
   3   4  -5    2.11    0.18 
  -3   4   5    2.18    0.34 
   3   4  -5    2.35    0.77 
  -2  -4   5    4.11    0.70 
   2  -4  -5    3.05    0.41 
  -2  -4   5    3.56    0.51 
  -2  -4   5    2.71    0.58 
  -2  -4   5    3.14    0.54 
  -2   4   5    3.26    0.45 
   2   4  -5    2.65    0.69 
  -2   4   5    3.54    0.49 
   2   4  -5    3.67    0.31 
  -1  -4   5   41.89    2.43 
  -1  -4   5   41.68    2.64 
   1  -4  -5   41.81    2.40 
  -1  -4   5   43.28    2.55 
   1  -4  -5   42.44    2.33 
  -1  -4   5   42.31    2.48 
  -1  -4   5   38.48    2.48 
   1   4  -5   38.93    2.45 
  -1   4   5   43.87    2.52 
  -1   4   5   40.97    2.45 
   1   4  -5   42.72    2.52 
   1   4  -5   40.80    2.62 
  -1   4   5   41.96    2.42 
   0  -4   5   17.37    1.22 
   0  -4   5   21.47    1.29 
   0  -4   5   18.94    1.28 
   0  -4  -5   17.80    1.29 
   0  -4   5   21.86    1.42 
   0  -4  -5   19.32    1.30 
   0   4   5   19.90    1.39 
   0   4  -5   16.88    1.28 
   0   4  -5   19.97    1.33 
   0   4   5   20.29    1.39 
   0   4  -5   19.09    1.31 
   0   4   5   20.22    1.39 
   0   4  -5   19.58    1.33 
   0   4   5   18.87    1.27 
   0   4   5   18.17    1.44 
   0   4  -5   20.45    1.31 
  -1  -4  -5    1.07    0.40 
   1  -4   5    4.71    0.53 
  -1  -4  -5    2.74    0.43 
  -1  -4  -5    3.63    0.55 
  -1  -4  -5    3.04    0.52 
   1   4   5    2.34    0.55 
  -1   4  -5    3.88    0.48 
  -1   4  -5    3.73    0.45 
   1   4   5    2.36    0.38 
   1   4   5    2.18    0.63 
  -1   4  -5    3.29    0.40 
   1   4   5    3.26    0.52 
  -2  -4  -5    2.48    0.58 
  -2  -4  -5    1.72    0.37 
  -2  -4  -5    1.50    0.45 
  -2  -4  -5    1.54    0.54 
   2  -4   5    1.25    0.24 
   2   4   5    1.35    0.52 
   2   4   5    1.64    0.56 
  -2   4  -5    1.60    0.37 
   2   4   5    2.01    0.64 
  -3  -4  -5    0.67    0.31 
  -3  -4  -5    0.57    0.39 
  -3  -4  -5    0.50    0.41 
   3  -4   5    0.49    0.15 
  -3  -4  -5    0.37    0.46 
  -3  -4  -5    0.67    0.24 
  -3   4  -5    0.44    0.25 
   3   4   5    2.12    0.75 
   3   4   5    0.49    0.31 
   3   4   5    0.95    0.49 
  -4  -4  -5    1.00    0.57 
  -4  -4  -5    0.74    0.49 
  -4  -4  -5    1.19    0.40 
  -4  -4  -5    1.41    0.38 
   4  -4   5    0.79    0.39 
  -4  -4  -5    0.75    0.59 
   4   4   5    0.79    0.71 
  -4   4  -5    1.26    0.39 
  -4   4  -5    1.08    0.64 
  -5  -4  -5    2.21    0.63 
  -5  -4  -5    1.58    0.67 
  -5   4  -5    1.09    0.58 
  -5   4  -5    2.84    0.55 
  -6  -4  -5    6.60    0.96 
  -6   4  -5    3.66    0.66 
  -6   4  -5    3.15    1.00 
  -6  -5   5    0.51    0.48 
  -6  -5   5    0.49    0.97 
  -6   5   5    0.79    0.43 
   6   5  -5    2.51    1.33 
  -5  -5   5    8.19    1.48 
  -5  -5   5    9.27    1.02 
  -5  -5   5   10.49    1.50 
   5   5  -5    8.57    1.74 
  -5   5   5   10.00    0.90 
  -5   5   5    8.29    0.86 
  -4  -5   5    0.05    0.34 
  -4  -5   5    0.06    0.69 
  -4  -5   5    0.90    0.42 
  -4  -5   5    0.51    0.57 
   4   5  -5    0.63    0.86 
  -4   5   5    0.59    0.26 
  -4   5   5    0.32    0.28 
  -3  -5   5    0.25    0.32 
   3  -5  -5   -0.10    0.21 
  -3  -5   5    0.01    0.24 
  -3  -5   5   -0.05    0.37 
  -3  -5   5    0.08    0.32 
  -3   5   5    0.08    0.12 
  -3   5   5    0.00    0.24 
  -3   5   5    0.24    0.26 
   3   5  -5   -0.24    0.39 
  -2  -5   5    0.94    0.52 
  -2  -5   5    0.67    0.35 
   2  -5  -5    0.91    0.16 
   2  -5  -5    0.33    0.20 
  -2  -5   5    1.06    0.38 
  -2  -5   5    0.32    0.30 
   2   5  -5    1.51    0.66 
   2   5  -5    0.98    0.25 
  -2   5   5    0.61    0.32 
  -2   5   5    1.17    0.38 
  -1  -5   5    6.45    0.72 
  -1  -5   5    5.61    0.66 
  -1  -5   5    5.64    0.64 
  -1  -5   5    4.39    0.72 
  -1  -5   5    4.61    0.63 
   1  -5  -5    5.81    0.65 
  -1   5   5    4.81    0.68 
   1   5  -5    7.19    0.68 
   1   5  -5    5.12    0.62 
  -1   5   5    7.25    0.69 
   1   5  -5    5.32    0.67 
  -1   5   5    5.61    0.71 
  -1   5   5    5.33    0.67 
   1   5  -5    4.55    0.71 
   0  -5  -5    0.10    0.20 
   0  -5   5   -0.03    0.22 
   0  -5  -5    0.09    0.27 
   0  -5   5    0.23    0.22 
   0  -5   5   -0.03    0.16 
   0  -5  -5    0.01    0.23 
   0  -5  -5    0.16    0.35 
   0  -5   5    0.39    0.31 
   0   5  -5   -0.22    0.23 
   0   5   5    0.13    0.33 
   0   5  -5    0.21    0.29 
   0   5  -5    0.34    0.25 
   0   5   5    0.11    0.26 
   0   5   5    0.40    0.40 
   0   5  -5    0.30    0.27 
   0   5   5    0.06    0.37 
   0   5  -5    0.25    0.24 
   0   5   5    0.46    0.34 
  -1  -5  -5    0.40    0.31 
  -1  -5  -5    0.19    0.29 
  -1  -5  -5    1.24    0.51 
   1  -5   5    1.04    0.32 
   1  -5   5    0.91    0.40 
  -1  -5  -5    0.85    0.42 
  -1   5  -5    0.78    0.28 
  -1   5  -5    0.11    0.27 
  -1   5  -5    1.19    0.36 
   1   5   5    0.98    0.43 
   1   5   5    0.84    0.31 
  -1   5  -5    0.53    0.31 
   1   5   5    1.02    0.52 
   1   5   5    0.36    0.38 
   1   5   5    0.57    0.48 
  -2  -5  -5    3.35    0.63 
   2  -5   5    2.64    0.40 
  -2  -5  -5    2.67    0.62 
  -2  -5  -5    3.97    0.68 
  -2  -5  -5    2.80    0.48 
  -2   5  -5    4.10    0.44 
  -2   5  -5    3.10    0.39 
   2   5   5    3.51    0.75 
  -2   5  -5    2.75    0.48 
   2   5   5    2.83    0.66 
   3  -5   5    1.50    0.34 
  -3  -5  -5    0.78    0.42 
  -3  -5  -5    2.10    0.46 
  -3  -5  -5    2.40    0.64 
  -3  -5  -5    1.72    0.64 
  -3   5  -5    1.25    0.37 
   3   5   5    1.02    0.44 
   3   5   5    1.37    0.75 
   4  -5   5    5.14    0.62 
  -4  -5  -5    5.70    0.64 
  -4  -5  -5    4.22    0.82 
  -4  -5  -5    5.89    0.69 
  -4  -5  -5    5.03    0.95 
  -4  -5  -5    5.91    1.05 
  -4   5  -5    7.12    0.73 
  -4   5  -5    4.73    0.97 
  -5  -5  -5    2.09    0.85 
  -5  -5  -5    1.41    0.64 
  -5  -5  -5    3.03    0.90 
  -5   5  -5    2.41    0.77 
  -5   5  -5    0.93    0.44 
  -6  -5  -5    1.36    0.66 
  -6   5  -5    2.31    0.62 
  -6   5  -5    1.35    0.82 
  -6  -6   5    3.48    1.37 
  -6  -6   5    2.88    0.76 
   6   6  -5    3.75    1.50 
  -6   6   5    1.65    0.61 
  -5  -6   5    0.04    0.73 
  -5  -6   5    0.26    0.88 
  -5  -6   5    0.78    0.52 
  -5   6   5    0.54    0.47 
   5   6  -5   -0.87    0.83 
  -5   6   5    0.48    0.40 
  -4  -6   5    3.91    0.71 
  -4  -6   5    4.69    0.80 
  -4  -6   5    4.74    0.78 
  -4  -6   5    4.50    1.27 
  -4   6   5    4.05    0.69 
   4   6  -5    2.61    1.02 
  -4   6   5    3.20    0.67 
  -4   6   5    3.88    0.41 
  -3  -6   5    0.66    0.50 
  -3  -6   5    0.24    0.34 
  -3  -6   5    0.51    0.41 
  -3  -6   5   -0.06    0.60 
   3   6  -5    0.44    0.71 
  -3   6   5    0.54    0.41 
  -3   6   5    0.33    0.35 
  -3   6   5    0.48    0.34 
   2  -6  -5   11.58    0.67 
  -2  -6   5   11.17    1.04 
  -2  -6   5    9.89    0.98 
  -2  -6   5    9.66    1.01 
   2  -6  -5    9.62    0.70 
  -2  -6   5    9.03    1.24 
   2   6  -5    8.92    0.78 
  -2   6   5   11.92    1.06 
  -2   6   5    9.51    0.98 
  -2   6   5    9.61    0.97 
   2   6  -5   11.71    1.37 
  -1  -6   5   32.45    2.43 
  -1  -6   5   35.62    2.29 
  -1  -6   5   34.78    2.32 
  -1  -6   5   36.04    2.25 
   1  -6  -5   34.35    2.20 
   1   6  -5   38.35    2.35 
   1   6  -5   38.59    2.25 
  -1   6   5   34.65    2.32 
   1   6  -5   37.17    2.31 
  -1   6   5   37.79    2.39 
   1   6  -5   32.99    2.42 
  -1   6   5   33.19    2.22 
  -1   6   5   37.02    2.40 
   0  -6   5   14.06    1.04 
   0  -6  -5   13.88    1.06 
   0  -6   5   12.23    0.95 
   0  -6  -5   12.11    1.07 
   0  -6  -5   12.52    1.14 
   0  -6   5   12.37    1.19 
   0  -6  -5    7.65    1.01 
   0  -6   5   11.06    0.97 
   0   6  -5   11.13    1.07 
   0   6   5   14.47    1.22 
   0   6  -5   11.22    1.10 
   0   6   5   11.01    1.10 
   0   6   5   12.33    0.99 
   0   6  -5   13.79    1.08 
   0   6   5   13.47    1.31 
   0   6  -5   14.17    1.11 
   0   6  -5    9.89    1.05 
   1  -6   5   20.28    1.30 
  -1  -6  -5   16.61    1.40 
   1  -6   5   17.93    1.38 
  -1  -6  -5   18.05    1.52 
  -1  -6  -5   18.33    1.45 
  -1  -6  -5   16.87    1.33 
  -1  -6  -5   20.11    1.57 
   1   6   5   17.36    1.51 
  -1   6  -5   19.59    1.41 
   1   6   5   17.45    1.26 
  -1   6  -5   16.69    1.31 
  -1   6  -5   19.18    1.28 
   1   6   5   17.21    1.60 
  -1   6  -5   17.68    1.32 
   1   6   5   14.96    1.45 
  -2  -6  -5    2.08    0.61 
  -2  -6  -5    3.10    0.65 
   2  -6   5    4.09    0.52 
  -2  -6  -5    2.74    0.53 
  -2  -6  -5    3.52    0.84 
  -2   6  -5    4.00    0.52 
  -2   6  -5    3.17    0.43 
   2   6   5    2.70    0.39 
   2   6   5    3.79    0.71 
  -2   6  -5    2.84    0.53 
   2   6   5    3.64    0.82 
  -3  -6  -5    0.27    0.44 
  -3  -6  -5   -0.09    0.45 
  -3  -6  -5    0.18    0.30 
  -3  -6  -5    0.61    0.46 
   3  -6   5   -0.10    0.35 
  -3   6  -5   -0.13    0.23 
   3   6   5   -0.06    0.36 
  -3   6  -5    0.00    0.16 
   3   6   5    0.02    0.46 
  -4  -6  -5   17.14    1.69 
   4  -6   5   18.50    1.19 
  -4  -6  -5   19.22    1.66 
  -4  -6  -5   16.53    1.78 
  -4  -6  -5   16.47    1.37 
  -4   6  -5   17.38    1.37 
  -5  -6  -5    4.66    1.14 
  -5  -6  -5    5.68    1.12 
  -5  -6  -5    4.12    0.90 
  -5   6  -5    3.98    1.10 
  -5   6  -5    3.41    0.69 
  -6  -6  -5    0.19    0.56 
  -6   6  -5    0.93    0.48 
  -6   6  -5    0.20    0.59 
  -6  -7   5    0.42    0.97 
  -6  -7   5    2.09    0.74 
  -6   7   5    1.08    0.66 
   6   7  -5    0.41    1.13 
  -5  -7   5    5.02    0.95 
  -5  -7   5    6.15    1.62 
   5   7  -5    4.43    1.55 
  -5   7   5    5.95    0.95 
  -5   7   5    7.03    0.97 
  -4  -7   5    0.58    0.52 
  -4  -7   5   -0.05    0.53 
  -4  -7   5   -0.40    0.52 
  -4   7   5    0.28    0.49 
  -4   7   5    0.16    0.44 
   4   7  -5   -0.68    0.50 
  -3  -7   5    1.63    0.90 
  -3  -7   5    2.88    0.69 
  -3  -7   5    3.17    0.80 
  -3  -7   5    3.14    0.67 
  -3   7   5    3.49    0.76 
  -3   7   5    2.77    0.68 
  -3   7   5    1.64    0.49 
   3   7  -5    2.59    0.91 
  -2  -7   5    9.61    0.97 
   2  -7  -5    8.97    0.73 
  -2  -7   5    7.02    1.08 
  -2  -7   5    7.60    0.97 
  -2  -7   5    8.08    1.01 
  -2   7   5    9.82    1.05 
  -2   7   5    8.90    0.99 
  -2   7   5   12.17    1.08 
   2   7  -5    8.78    0.81 
   2   7  -5   10.45    1.34 
  -1  -7   5    0.78    0.36 
   1  -7  -5    0.50    0.28 
  -1  -7   5    0.45    0.37 
  -1  -7   5    0.58    0.57 
   1  -7  -5    0.36    0.35 
  -1   7   5    0.62    0.50 
  -1   7   5    0.64    0.46 
  -1   7   5    0.62    0.48 
  -1   7   5    0.53    0.41 
   1   7  -5    0.64    0.39 
   1   7  -5    0.50    0.52 
   1   7  -5    0.51    0.42 
   0  -7  -5   30.70    2.15 
   0  -7   5   33.34    2.22 
   0  -7  -5   29.31    2.04 
   0  -7   5   29.70    2.01 
   0  -7   5   28.83    1.90 
   0  -7  -5   28.97    2.02 
   0  -7  -5   29.85    2.13 
   0  -7  -5   32.14    2.07 
   0  -7   5   29.89    1.96 
   0   7  -5   29.92    2.07 
   0   7   5   31.57    2.32 
   0   7  -5   26.97    1.97 
   0   7   5   24.73    2.11 
   0   7   5   32.32    2.22 
   0   7   5   32.51    2.02 
   0   7  -5   31.40    2.12 
   0   7  -5   31.19    2.09 
   1  -7   5    8.32    0.80 
  -1  -7  -5    9.87    1.10 
   1  -7   5   10.87    0.77 
   1  -7   5    8.23    0.95 
  -1  -7  -5    8.24    1.04 
  -1  -7  -5    8.59    1.01 
  -1  -7  -5    9.85    0.97 
   1   7   5    8.23    1.15 
  -1   7  -5    9.62    0.98 
   1   7   5    7.26    0.98 
  -1   7  -5   11.31    0.91 
  -1   7  -5    8.58    0.90 
   1   7   5    8.95    0.82 
   1   7   5   10.36    1.16 
  -1   7  -5    7.97    0.91 
   2  -7   5    0.64    0.39 
  -2  -7  -5   -0.21    0.26 
  -2  -7  -5    0.11    0.31 
  -2  -7  -5   -0.50    0.49 
  -2  -7  -5    0.69    0.54 
   2   7   5    0.05    0.24 
  -2   7  -5   -0.15    0.21 
   2   7   5    0.32    0.64 
  -2   7  -5    0.32    0.33 
   2   7   5    0.19    0.47 
  -2   7  -5    0.20    0.32 
  -3  -7  -5    2.54    0.57 
  -3  -7  -5    2.42    0.79 
  -3  -7  -5    2.49    0.72 
  -3  -7  -5    3.20    0.85 
   3   7   5    2.67    0.70 
  -3   7  -5    1.83    0.41 
  -3   7  -5    2.08    0.44 
   3   7   5    2.07    0.98 
  -3   7  -5    1.65    0.51 
   4  -7   5    6.80    0.58 
  -4  -7  -5    4.71    0.94 
  -4  -7  -5    4.31    1.19 
  -4  -7  -5    4.24    0.99 
  -4   7  -5    5.83    0.84 
  -5  -7  -5    0.44    0.50 
  -5  -7  -5    0.73    0.69 
  -5   7  -5    0.00    0.66 
  -5   7  -5   -0.14    0.42 
  -6  -7  -5    8.97    1.32 
  -6   7  -5    6.50    1.05 
  -6   7  -5    6.68    1.31 
  -6  -8   5   -0.08    0.56 
  -6  -8   5    0.50    1.14 
   6   8  -5    0.04    0.93 
  -5  -8   5    0.70    0.61 
  -5  -8   5    1.28    0.93 
  -5   8   5   -0.28    0.51 
  -5   8   5    1.01    0.68 
   5   8  -5    1.59    1.07 
  -4  -8   5   11.63    1.63 
  -4  -8   5   10.41    1.25 
  -4  -8   5   11.19    1.29 
  -4   8   5    8.40    1.16 
   4   8  -5    9.92    1.83 
  -4   8   5   10.30    1.16 
  -3  -8   5   15.01    1.49 
  -3  -8   5   16.09    1.92 
  -3  -8   5   19.92    1.66 
  -3  -8   5   19.33    1.55 
  -3   8   5   18.00    1.58 
   3   8  -5   14.54    1.93 
  -3   8   5   15.08    1.47 
  -2  -8   5    6.22    0.93 
  -2  -8   5    7.85    1.16 
  -2  -8   5   10.32    1.02 
   2  -8  -5    7.75    0.70 
  -2  -8   5    6.62    0.90 
  -2   8   5    8.42    0.97 
   2   8  -5    6.94    1.22 
   2   8  -5    8.05    0.93 
   2   8  -5    5.05    0.71 
  -2   8   5    5.92    0.93 
  -2   8   5    6.09    0.97 
  -1  -8   5    4.65    0.71 
   1  -8  -5    3.87    0.69 
  -1  -8   5    3.42    0.71 
   1  -8  -5    4.35    0.67 
   1  -8  -5    3.38    0.53 
   1  -8  -5    4.04    0.72 
  -1  -8   5    2.90    0.82 
   1   8  -5    4.30    0.65 
   1   8  -5    2.51    0.59 
   1   8  -5    3.94    0.77 
  -1   8   5    4.00    0.89 
  -1   8   5    3.67    0.71 
  -1   8   5    3.01    0.79 
  -1   8   5    4.44    0.87 
   0  -8  -5    8.35    0.97 
   0  -8   5    8.98    0.93 
   0  -8   5   11.67    1.00 
   0  -8  -5    8.13    0.97 
   0  -8  -5    8.74    1.06 
   0  -8   5    9.79    1.17 
   0  -8  -5    6.96    0.95 
   0  -8  -5   10.14    1.01 
   0   8  -5    9.03    1.03 
   0   8   5    9.44    0.95 
   0   8  -5    8.46    0.97 
   0   8   5    9.00    1.14 
   0   8   5    8.11    1.05 
   0   8  -5    6.78    0.97 
   0   8  -5    8.08    0.95 
   0   8   5    6.44    1.11 
   1  -8   5   10.22    0.91 
   1  -8   5    9.88    0.94 
  -1  -8  -5   12.35    1.27 
   1  -8   5   11.24    1.13 
  -1  -8  -5    9.42    0.97 
  -1  -8  -5   11.04    1.12 
   1  -8   5    9.79    0.79 
  -1  -8  -5   10.78    1.14 
  -1   8  -5    7.87    0.96 
   1   8   5    8.85    1.24 
  -1   8  -5   10.93    0.99 
  -1   8  -5    9.61    1.03 
   1   8   5    7.49    0.88 
   1   8   5    8.63    1.17 
  -2  -8  -5    5.16    0.88 
   2  -8   5    4.59    0.71 
  -2  -8  -5    4.94    0.74 
  -2  -8  -5    3.43    0.82 
  -2  -8  -5    5.27    0.86 
  -2   8  -5    3.42    0.66 
  -2   8  -5    4.83    0.76 
   2   8   5    5.49    0.64 
  -2   8  -5    4.18    0.59 
   2   8   5    4.88    0.93 
   2   8   5    3.48    0.98 
  -3  -8  -5   35.24    3.02 
  -3  -8  -5   39.53    2.96 
  -3  -8  -5   40.38    2.66 
  -3  -8  -5   44.28    2.96 
  -3   8  -5   40.88    2.41 
  -3   8  -5   42.22    2.48 
  -3   8  -5   42.10    2.74 
   3   8   5   38.26    2.67 
  -4  -8  -5    1.79    0.78 
  -4  -8  -5    0.70    0.87 
  -4  -8  -5    2.20    0.77 
  -4   8  -5    0.85    0.38 
  -4   8  -5    1.42    0.59 
  -5  -8  -5    0.80    0.74 
  -5  -8  -5   -0.27    0.54 
  -5   8  -5   -0.42    0.43 
  -6   8  -5    0.41    0.80 
  -6   8  -5    4.93    1.04 
  -5  -9   5    3.67    0.99 
  -5  -9   5    6.62    1.84 
   5   9  -5    1.81    1.20 
  -5   9   5    3.95    1.08 
  -4  -9   5    4.96    1.48 
  -4  -9   5    4.48    1.02 
   4   9  -5    3.96    1.48 
  -4   9   5    3.59    0.99 
  -4   9   5    5.35    1.06 
  -3  -9   5    0.99    0.54 
  -3  -9   5    0.77    0.88 
  -3  -9   5    1.75    0.65 
  -3  -9   5    1.18    0.68 
   3   9  -5    1.41    0.31 
  -3   9   5    1.92    0.77 
   3   9  -5    0.58    0.65 
  -3   9   5    0.57    0.60 
  -2  -9   5    1.55    0.77 
  -2  -9   5    1.94    0.61 
   2  -9  -5    1.84    0.46 
  -2  -9   5    2.05    0.64 
   2   9  -5    1.88    0.92 
  -2   9   5    1.53    0.68 
  -2   9   5    1.33    0.67 
   2   9  -5    2.26    0.55 
  -2   9   5    2.19    0.69 
   2   9  -5    2.63    0.59 
   1  -9  -5    5.62    0.81 
   1  -9  -5    3.23    0.75 
   1  -9  -5    3.52    0.78 
   1  -9  -5    6.31    0.71 
  -1  -9   5    6.01    0.91 
   1  -9  -5    6.22    0.86 
  -1  -9   5    4.75    0.80 
  -1  -9   5    5.34    0.96 
  -1   9   5    3.40    0.91 
   1   9  -5    5.83    0.81 
   1   9  -5    5.79    0.86 
  -1   9   5    4.85    0.96 
  -1   9   5    5.66    1.00 
   1   9  -5    4.52    0.87 
   0  -9  -5    0.67    0.49 
   0  -9   5    0.77    0.46 
   0  -9   5    0.09    0.54 
   0  -9  -5    0.72    0.47 
   0  -9  -5    0.08    0.41 
   0  -9  -5    0.86    0.50 
   0  -9   5    0.48    0.44 
   0  -9  -5    0.84    0.49 
   0   9  -5    0.22    0.46 
   0   9  -5    0.87    0.45 
   0   9  -5    0.74    0.42 
   0   9   5    0.18    0.59 
   0   9  -5    0.63    0.43 
   0   9   5    1.11    0.58 
   0   9   5    0.50    0.62 
   0   9   5    1.65    0.53 
   1  -9   5    1.32    0.46 
  -1  -9  -5    1.48    0.60 
  -1  -9  -5    1.97    0.78 
   1  -9   5    1.58    0.38 
  -1  -9  -5    1.79    0.65 
   1  -9   5    0.92    0.55 
   1  -9   5    2.90    0.58 
  -1  -9  -5    2.77    0.76 
  -1   9  -5    1.67    0.54 
   1   9   5    1.94    0.55 
   1   9   5    1.47    0.71 
   1   9   5    0.67    0.58 
  -1   9  -5    2.03    0.64 
  -1   9  -5    1.67    0.61 
  -2  -9  -5   -0.64    0.50 
   2  -9   5    0.58    0.50 
  -2  -9  -5    0.14    0.42 
  -2  -9  -5    0.08    0.40 
  -2  -9  -5    0.44    0.44 
   2   9   5    0.11    0.32 
   2   9   5    0.07    0.37 
  -2   9  -5   -0.23    0.37 
   2   9   5   -0.01    0.76 
   2   9   5    0.25    0.62 
  -2   9  -5    0.20    0.31 
  -3  -9  -5    7.94    1.05 
  -3  -9  -5    8.04    1.28 
  -3  -9  -5    9.23    1.25 
  -3  -9  -5    8.59    1.21 
  -3   9  -5    9.84    0.86 
   3   9   5    6.50    1.08 
  -3   9  -5    9.43    0.99 
  -3   9  -5    8.11    1.08 
  -4  -9  -5   -0.10    0.69 
  -4  -9  -5    0.62    0.63 
  -4   9  -5    0.04    0.30 
  -4   9  -5   -0.28    0.42 
  -5  -9  -5   -0.01    0.77 
  -5  -9  -5    1.14    0.85 
  -5   9  -5    0.10    0.54 
  -5 -10   5    0.71    1.20 
  -5 -10   5    2.05    0.87 
   5  10  -5    0.94    1.09 
  -5  10   5    3.00    1.01 
  -4 -10   5    2.82    0.89 
  -4 -10   5    1.50    0.93 
  -4  10   5    3.07    0.94 
   4  10  -5    1.56    1.04 
  -4  10   5    3.37    1.05 
  -3 -10   5    3.26    0.92 
  -3 -10   5    4.21    1.05 
  -3 -10   5    3.70    0.86 
  -3 -10   5    4.61    1.30 
  -3  10   5    4.23    1.12 
   3  10  -5    4.12    0.53 
  -3  10   5    4.10    1.08 
   3  10  -5    5.46    1.23 
  -2 -10   5    3.50    0.84 
   2 -10  -5    3.99    0.64 
  -2 -10   5    1.84    0.88 
  -2 -10   5    4.64    0.94 
   2  10  -5    4.97    0.80 
  -2  10   5    4.34    1.03 
   2  10  -5    2.60    0.61 
   2  10  -5    4.10    1.15 
  -2  10   5    6.39    1.11 
   1 -10  -5    0.58    0.55 
   1 -10  -5    1.27    0.53 
   1 -10  -5    0.74    0.39 
   1 -10  -5    0.72    0.53 
  -1 -10   5    0.44    0.49 
  -1 -10   5    0.66    0.61 
  -1 -10   5    2.00    0.69 
   1 -10  -5    0.56    0.50 
  -1  10   5    1.53    0.76 
   1  10  -5    0.54    0.47 
   1  10  -5    0.84    0.46 
  -1  10   5    1.34    0.83 
   1  10  -5    1.18    0.70 
  -1  10   5    1.71    0.73 
   0 -10  -5    4.54    0.98 
   0 -10  -5    4.64    0.84 
   0 -10   5    4.85    0.89 
   0 -10  -5    4.11    0.86 
   0 -10  -5    4.20    0.81 
   0 -10   5    5.80    0.85 
   0 -10  -5    4.51    0.88 
   0 -10   5    5.77    0.81 
   0  10  -5    3.37    0.72 
   0  10  -5    3.71    0.91 
   0  10   5    5.18    1.14 
   0  10  -5    4.69    0.84 
   0  10   5    4.16    0.77 
   0  10  -5    4.30    0.90 
   0  10   5    4.02    1.06 
   1 -10   5    5.97    0.99 
  -1 -10  -5    5.03    0.99 
   1 -10   5    7.26    0.83 
   1 -10   5    4.94    0.79 
  -1 -10  -5    5.13    0.99 
  -1 -10  -5    5.92    0.96 
  -1 -10  -5    7.28    1.04 
  -1  10  -5    6.07    1.00 
   1  10   5    7.89    1.37 
  -1  10  -5    6.48    0.89 
   1  10   5    6.88    1.17 
   1  10   5    6.86    0.87 
  -2 -10  -5   12.56    1.41 
  -2 -10  -5   12.59    1.55 
  -2 -10  -5   12.98    1.30 
   2 -10   5   12.30    1.27 
  -2 -10  -5   12.92    1.59 
  -2  10  -5   11.81    1.31 
   2  10   5   12.02    1.46 
  -2  10  -5   12.85    1.15 
   2  10   5   12.76    1.13 
   2  10   5   14.26    1.19 
  -3 -10  -5    0.43    0.73 
  -3 -10  -5    0.86    0.57 
   3 -10   5    0.45    0.39 
  -3 -10  -5    1.22    0.71 
  -3  10  -5    0.94    0.57 
   3  10   5    0.55    0.70 
  -3  10  -5    0.23    0.34 
  -4 -10  -5   13.31    1.78 
  -4 -10  -5   16.07    1.99 
  -4  10  -5   13.44    1.50 
  -5 -10  -5    3.76    1.24 
  -5  10  -5    3.50    0.98 
  -5 -11   5   -0.99    0.52 
  -5 -11   5   -0.53    0.71 
   5  11  -5    0.08    1.26 
  -5  11   5   -0.35    0.63 
  -4 -11   5   -0.47    0.97 
  -4 -11   5    1.18    0.81 
  -4  11   5    0.01    0.77 
   4  11  -5    0.62    1.17 
  -3 -11   5   13.36    1.98 
  -3 -11   5   14.73    1.68 
   3  11  -5   14.53    1.11 
  -3  11   5   13.94    1.72 
   3  11  -5   12.32    2.00 
  -2 -11   5    1.75    1.03 
  -2 -11   5    4.39    1.04 
  -2 -11   5    4.90    0.92 
   2 -11  -5    3.29    0.68 
   2  11  -5    3.33    0.73 
   2  11  -5    2.52    1.11 
   2  11  -5    4.22    0.80 
  -2  11   5    3.38    1.12 
  -1 -11   5    2.86    0.80 
  -1 -11   5    2.88    1.05 
   1 -11  -5    2.14    0.79 
   1 -11  -5    1.88    0.52 
   1 -11  -5    2.32    0.72 
   1 -11  -5    1.13    0.57 
   1 -11  -5    1.78    0.67 
  -1 -11   5    1.45    0.67 
   1  11  -5    1.28    0.60 
   1  11  -5    2.54    0.78 
   1  11  -5    2.16    0.79 
  -1  11   5    2.63    1.03 
   0 -11  -5   12.36    1.30 
   0 -11  -5   12.44    1.47 
   0 -11   5    9.56    1.18 
   0 -11  -5   10.21    1.32 
   0 -11  -5   14.34    1.50 
   0 -11   5   10.99    1.45 
   0 -11   5   10.94    1.19 
   0  11  -5    9.69    1.31 
   0  11  -5    8.66    1.17 
   0  11   5    9.73    1.17 
   0  11  -5    9.99    1.20 
   0  11   5    9.85    1.41 
   0  11  -5   10.10    1.32 
   1 -11   5   -0.02    0.28 
   1 -11   5   -0.36    0.56 
  -1 -11  -5   -0.14    0.45 
  -1 -11  -5    0.41    0.46 
  -1 -11  -5    0.30    0.46 
  -1 -11  -5    0.14    0.49 
   1 -11   5   -0.01    0.37 
  -1  11  -5   -0.13    0.41 
   1  11   5   -0.41    0.46 
   1  11   5    0.12    0.41 
  -1  11  -5   -0.03    0.48 
  -2 -11  -5    1.01    0.74 
  -2 -11  -5    0.45    0.54 
   2 -11   5   -0.14    0.49 
  -2 -11  -5    0.66    0.53 
  -2 -11  -5   -0.21    0.67 
   2  11   5    0.83    0.48 
  -2  11  -5    0.18    0.56 
   2  11   5    1.15    0.55 
   2  11   5    0.84    0.75 
  -2  11  -5    0.21    0.41 
  -3 -11  -5    2.57    0.91 
  -3 -11  -5    3.80    0.97 
   3 -11   5    5.40    0.78 
   3  11   5    3.15    0.71 
   3  11   5    3.37    0.97 
  -3  11  -5    2.94    0.67 
  -3  11  -5    2.82    0.88 
  -4 -11  -5    3.18    1.05 
  -5 -11  -5    5.05    1.45 
  -5 -12   5   -0.65    0.75 
  -5 -12   5   -1.12    1.03 
  -5  12   5    0.19    0.94 
   5  12  -5    0.01    0.89 
  -4 -12   5    0.80    0.92 
  -4 -12   5    1.12    0.79 
   4  12  -5    0.71    1.01 
  -4  12   5    0.80    0.89 
  -3 -12   5   -0.27    0.61 
  -3 -12   5    0.42    0.67 
  -3  12   5    0.88    0.77 
   3  12  -5   -0.05    0.61 
   3  12  -5    0.40    0.41 
   2 -12  -5    1.52    0.52 
   2 -12  -5    1.11    0.61 
  -2 -12   5    1.07    0.69 
  -2 -12   5    1.77    0.81 
  -2 -12   5    1.01    0.74 
   2  12  -5    1.88    1.04 
   2  12  -5    1.61    0.79 
  -2  12   5    1.87    0.93 
  -1 -12   5    4.90    0.90 
  -1 -12   5    4.65    0.96 
   1 -12  -5    5.30    1.02 
   1 -12  -5    5.50    1.05 
   1 -12  -5    4.16    0.87 
  -1 -12   5    3.55    1.14 
   1 -12  -5    4.48    1.08 
   1 -12  -5    5.72    0.79 
   1  12  -5    5.47    0.97 
   1  12  -5    6.72    1.27 
   1  12  -5    4.99    0.91 
  -1  12   5    5.92    1.09 
   0 -12   5    6.72    1.02 
   0 -12  -5    5.22    1.13 
   0 -12  -5    8.83    1.15 
   0 -12   5    4.41    0.91 
   0 -12  -5    5.11    1.08 
   0 -12  -5    6.56    1.10 
   0 -12   5    4.95    1.02 
   0  12  -5    7.47    1.07 
   0  12  -5    6.49    1.23 
   0  12  -5    6.66    1.10 
   0  12   5    4.25    1.16 
   0  12   5    7.11    1.30 
   0  12  -5    5.78    1.10 
  -1 -12  -5    1.49    0.74 
   1 -12   5    0.32    0.46 
  -1 -12  -5    0.49    0.74 
  -1 -12  -5   -0.36    0.52 
   1 -12   5    1.02    0.59 
   1 -12   5   -0.24    0.59 
  -1  12  -5    0.20    0.57 
   1  12   5    0.07    0.76 
   1  12   5    0.46    0.53 
  -1  12  -5    0.30    0.55 
  -2 -12  -5   21.04    1.94 
  -2 -12  -5   21.86    2.15 
   2 -12   5   18.64    1.85 
   2  12   5   20.04    2.08 
  -2  12  -5   24.99    1.83 
   2  12   5   21.08    1.74 
  -3 -12  -5    9.74    1.61 
   3 -12   5    9.26    1.13 
  -3  12  -5   11.88    1.63 
   3  12   5   10.61    1.12 
   3  12   5    9.86    1.51 
  -4 -12  -5    4.61    1.44 
  -5 -12  -5   10.12    1.84 
  -4 -13   5    0.02    0.78 
  -4 -13   5   -0.41    1.02 
  -4  13   5   -0.43    0.68 
   4  13  -5   -1.03    1.02 
  -3 -13   5    0.49    1.13 
  -3 -13   5    1.58    0.84 
   3  13  -5    0.38    0.83 
  -3  13   5    0.18    0.79 
  -2 -13   5    5.26    1.53 
   2 -13  -5    4.33    1.01 
  -2 -13   5    3.92    1.10 
   2 -13  -5    4.03    0.87 
  -2 -13   5    4.45    1.07 
   2  13  -5    4.20    1.02 
  -2  13   5    3.53    1.21 
   2  13  -5    1.88    0.98 
  -1 -13   5    2.27    0.87 
   1 -13  -5    3.48    1.02 
   1 -13  -5    4.65    1.08 
  -1 -13   5    2.77    1.18 
   1 -13  -5    2.96    0.87 
  -1 -13   5    6.26    1.07 
  -1  13   5    1.87    1.10 
   1  13  -5    3.67    0.97 
   1  13  -5    3.68    1.21 
   0 -13  -5   43.89    3.08 
   0 -13  -5   43.68    3.30 
   0 -13   5   44.49    3.42 
   0 -13   5   44.52    3.03 
   0 -13  -5   40.15    3.23 
   0  13  -5   44.60    3.23 
   0  13  -5   44.67    3.15 
   0  13  -5   43.95    3.26 
   0  13   5   39.92    3.40 
   1 -13   5    3.80    0.81 
  -1 -13  -5    4.01    1.16 
   1 -13   5    2.95    1.09 
  -1 -13  -5    3.25    0.94 
  -1  13  -5    3.41    0.90 
   1  13   5    4.55    1.34 
  -2 -13  -5    2.32    1.07 
   2 -13   5    3.21    0.97 
  -2 -13  -5    2.40    0.89 
  -2  13  -5    2.84    0.80 
   2  13   5    3.46    0.83 
   2  13   5    3.26    1.20 
  -3 -13  -5    0.07    0.67 
   3 -13   5    1.23    0.68 
   3  13   5    0.59    0.83 
   3  13   5    0.78    0.55 
  -4 -13  -5    0.12    0.83 
  -4 -14   5    3.93    1.66 
  -4 -14   5    6.34    1.44 
  -4  14   5    7.78    1.61 
   4  14  -5    3.42    1.49 
  -3 -14   5    5.11    1.31 
  -3 -14   5    2.66    1.20 
  -3  14   5    2.31    1.26 
   3  14  -5    2.49    1.41 
  -2 -14   5   -0.50    0.59 
  -2 -14   5    0.65    0.71 
   2 -14  -5    0.40    0.48 
   2 -14  -5   -0.25    0.56 
  -2 -14   5    1.38    0.96 
   2  14  -5    0.25    0.73 
   2  14  -5    1.31    0.70 
  -2  14   5    1.47    1.08 
  -1 -14   5    1.12    0.87 
   1 -14  -5    2.17    0.94 
   1 -14  -5    1.63    0.79 
  -1 -14   5    2.13    0.85 
   1 -14  -5    1.18    0.87 
  -1  14   5    2.34    0.98 
   1  14  -5    2.73    1.18 
   1  14  -5    1.84    0.80 
   0 -14  -5    2.01    0.86 
   0 -14  -5    1.48    0.78 
   0 -14   5    1.09    0.74 
   0 -14   5    1.65    1.02 
   0  14   5    1.16    1.05 
   0  14  -5    2.81    1.02 
   0  14  -5    2.10    0.90 
   1 -14   5    1.73    0.67 
   1 -14   5    1.63    0.90 
  -1 -14  -5    2.36    0.94 
  -1 -14  -5    0.36    0.59 
   1  14   5    1.28    0.89 
  -1  14  -5    1.26    0.75 
   2 -14   5    0.68    0.73 
  -2 -14  -5   -0.05    0.70 
  -2 -14  -5   -0.05    0.60 
  -2  14  -5    0.51    0.59 
   2  14   5    0.07    0.59 
   2  14   5   -0.19    0.78 
   3 -14   5   16.25    1.62 
  -3 -14  -5   13.74    2.05 
   3  14   5   16.62    1.93 
  -4 -14  -5    3.49    1.39 
  -4 -15   5    2.86    1.46 
   4  15  -5    1.91    1.30 
  -4  15   5    2.64    1.37 
  -3 -15   5    0.27    1.16 
  -3  15   5    0.41    0.92 
   3  15  -5    1.21    1.23 
  -2 -15   5    0.35    0.73 
  -2 -15   5    0.81    1.08 
   2 -15  -5    1.17    0.66 
   2 -15  -5    0.05    0.62 
   2  15  -5    1.38    0.96 
  -2  15   5    2.00    1.24 
   1 -15  -5   -0.05    0.59 
  -1 -15   5    0.30    0.72 
   1 -15  -5    1.27    0.89 
  -1 -15   5    0.12    0.67 
   1  15  -5    0.45    0.69 
  -1  15   5    1.22    1.12 
   0 -15  -5    3.00    1.00 
   0 -15  -5    2.41    0.96 
   0 -15   5    2.24    1.04 
   0 -15   5    2.21    0.84 
   0  15   5    2.90    1.15 
   0  15  -5    1.61    0.92 
  -1 -15  -5    4.25    1.12 
   1 -15   5    3.57    1.17 
  -1 -15  -5    4.73    1.40 
   1 -15   5    2.34    0.77 
   1  15   5    2.68    1.09 
  -1  15  -5    2.85    0.96 
  -2 -15  -5   18.13    1.93 
   2 -15   5   15.95    1.78 
  -2 -15  -5   15.88    2.09 
   2 -15   5   13.66    1.91 
   2  15   5   12.25    1.90 
   2  15   5   14.06    1.58 
  -3 -15  -5    0.51    0.78 
   3 -15   5    0.17    0.69 
  -4 -15  -5    1.12    1.19 
  -3 -16   5    2.03    1.44 
   3  16  -5   -0.61    1.16 
  -3  16   5    0.99    1.19 
  -2 -16   5    1.17    1.22 
   2 -16  -5    1.14    0.69 
  -2  16   5    0.74    1.11 
   2  16  -5   -1.21    0.88 
   1 -16  -5    0.63    0.74 
  -1 -16   5    0.19    0.75 
  -1 -16   5    0.73    1.08 
   1 -16  -5    1.59    0.96 
   1  16  -5    1.83    1.10 
  -1  16   5    1.86    1.21 
   0 -16  -5    1.61    0.85 
   0 -16   5    0.40    0.73 
   0 -16  -5   -0.16    0.81 
   0 -16   5    0.18    0.75 
   0  16   5    1.37    0.97 
   0  16  -5    0.91    0.89 
   1 -16   5    6.38    1.55 
   1 -16   5    4.14    0.97 
  -1 -16  -5    5.19    1.24 
  -1 -16  -5    4.85    1.29 
   1  16   5    5.94    1.66 
  -1  16  -5    4.58    1.16 
  -2 -16  -5    0.50    0.72 
  -2 -16  -5   -1.28    0.61 
   2 -16   5    1.69    0.92 
   2  16   5    0.39    0.96 
   2  16   5    0.27    0.69 
  -3 -16  -5    0.28    1.03 
   2 -17  -5   -0.06    0.61 
  -2 -17   5   -0.42    0.70 
  -2  17   5    0.22    1.11 
   2  17  -5    0.05    1.10 
  -1 -17   5    1.79    0.97 
   1 -17  -5    0.34    0.89 
  -1 -17   5    0.82    1.16 
   1 -17  -5    1.14    0.82 
  -1  17   5    0.65    0.96 
   1  17  -5   -0.05    0.90 
   0 -17  -5    3.23    1.15 
   0 -17   5    2.50    1.23 
   0 -17  -5    2.63    1.23 
   0 -17   5    2.13    0.98 
   0  17  -5    2.33    1.12 
   0  17   5    1.51    1.24 
  -1 -17  -5    2.93    1.14 
   1 -17   5    2.03    0.81 
   1 -17   5    1.48    1.13 
  -1 -17  -5    0.27    0.73 
   1  17   5    1.98    1.39 
   2 -17   5    4.56    1.31 
  -2 -17  -5    1.86    1.22 
   2  17   5    2.07    1.15 
   2  17   5    1.69    0.94 
  -2 -18   5    3.19    1.44 
   2 -18  -5    2.16    0.90 
  -2  18   5    5.77    1.86 
   2  18  -5    3.32    1.58 
  -1 -18   5   -0.40    0.73 
   1 -18  -5    0.71    0.77 
   1 -18  -5    0.56    0.79 
  -1 -18   5    2.81    1.48 
   1  18  -5    0.63    1.13 
  -1  18   5    2.43    1.36 
   0 -18  -5    0.19    0.74 
   0 -18  -5    0.70    0.82 
   0 -18   5    0.58    1.07 
   0 -18   5   -0.80    0.64 
   0  18  -5    0.02    0.94 
   0  18   5    0.69    1.25 
  -1 -18  -5    2.66    1.09 
   1 -18   5    0.00    1.02 
  -1 -18  -5   -0.15    0.98 
   1 -18   5    1.59    0.82 
   1  18   5    0.57    1.28 
   2  18   5    1.50    1.26 
  -6   0   6    0.27    0.19 
   6   0  -6   -0.01    0.74 
  -6   0   6   -0.72    0.66 
  -5   0   6    6.67    1.17 
  -5   0   6    6.79    0.54 
   5   0  -6    6.70    1.33 
   4   0  -6    4.26    1.02 
  -4   0   6    4.37    0.42 
  -3   0   6    8.10    0.58 
   3   0  -6   11.82    1.16 
  -3   0   6    8.06    0.61 
  -3   0   6    7.41    0.86 
   2   0  -6   67.88    4.02 
  -2   0   6   71.49    3.69 
  -2   0   6   70.63    3.61 
  -2   0   6   73.18    3.90 
  -2   0   6   69.55    3.68 
  -2   0   6   66.13    3.70 
   0   0  -6   40.31    2.32 
   0   0   6   40.88    2.25 
   0   0  -6   39.06    2.23 
   0   0   6   39.79    2.31 
  -1   0  -6   31.18    1.88 
   1   0   6   28.30    1.74 
  -1   0  -6   28.21    1.71 
   2   0   6   81.58    4.29 
  -2   0  -6   82.52    4.62 
   2   0   6   82.78    4.42 
  -2   0  -6   78.79    4.38 
   3   0   6   23.73    1.45 
  -3   0  -6   28.37    1.96 
  -3   0  -6   26.10    1.65 
   3   0   6   28.57    1.96 
   4   0   6    0.15    0.47 
  -4   0  -6    0.28    0.29 
  -4   0  -6    0.14    0.48 
  -5   0  -6    1.02    0.42 
  -5   0  -6    0.98    0.65 
  -6   0  -6   -0.59    0.30 
  -6   0  -6   -0.34    0.56 
  -6  -1   6   -0.05    0.22 
  -6  -1   6    0.25    0.87 
  -6   1   6   -0.14    0.62 
   6   1  -6    0.22    0.80 
  -6   1   6    0.06    0.14 
  -5  -1   6    0.36    0.63 
   5  -1  -6    2.22    0.85 
  -5  -1   6    0.27    0.22 
   5   1  -6    0.35    0.78 
  -5   1   6    0.14    0.42 
  -5   1   6    0.18    0.15 
  -4  -1   6    0.95    0.56 
  -4  -1   6    0.48    0.23 
   4  -1  -6    0.89    0.61 
  -4  -1   6    0.46    0.21 
   4   1  -6    1.10    0.70 
  -4   1   6    0.25    0.15 
  -4   1   6    0.60    0.12 
  -3  -1   6    1.31    0.28 
  -3  -1   6    1.34    0.30 
   3  -1  -6    1.16    0.56 
  -3   1   6    1.72    0.45 
   3   1  -6    0.88    0.56 
  -3   1   6    1.34    0.23 
  -3   1   6    1.31    0.23 
  -2  -1   6   16.18    1.08 
  -2  -1   6   17.99    1.08 
   2  -1  -6   16.52    1.28 
  -2  -1   6   18.21    1.27 
   2   1  -6   15.31    1.37 
  -2   1   6   15.64    1.03 
  -2   1   6   17.68    1.06 
  -2   1   6   16.86    1.15 
  -1   1   6    2.53    0.31 
  -1   1   6    1.79    0.30 
   1   1  -6    1.39    0.30 
   0  -1  -6   96.70    5.01 
   0  -1   6   96.16    4.95 
   0  -1  -6   90.63    4.90 
   0  -1  -6   91.46    4.93 
   0  -1   6   92.01    4.91 
   0   1   6   91.34    4.93 
   0   1  -6   94.81    4.92 
   0   1  -6   94.22    5.00 
   0   1   6   95.94    5.00 
   0   1  -6   88.71    4.92 
  -1  -1  -6   42.94    2.36 
   1  -1   6   40.57    2.32 
  -1  -1  -6   42.70    2.49 
   1   1   6   39.38    2.15 
  -1   1  -6   44.99    2.53 
  -1   1  -6   40.69    2.32 
   1   1   6   38.89    2.38 
   1   1   6   40.98    2.34 
  -1   1  -6   41.43    2.26 
   2  -1   6    4.71    0.37 
   2  -1   6    4.50    0.57 
  -2  -1  -6    5.34    0.72 
  -2  -1  -6    4.64    0.28 
  -2  -1  -6    4.38    0.53 
  -2   1  -6    3.82    0.61 
   2   1   6    6.30    0.65 
  -2   1  -6    5.45    0.51 
   2   1   6    4.39    0.58 
   2   1   6    4.73    0.56 
   2   1   6    3.86    0.68 
  -3  -1  -6    3.51    0.53 
  -3  -1  -6    3.81    0.63 
   3  -1   6    3.62    0.68 
   3  -1   6    3.34    0.35 
  -3  -1  -6    3.65    0.41 
   3   1   6    2.49    0.70 
   3   1   6    3.55    0.47 
   3   1   6    3.90    0.41 
  -3   1  -6    1.81    0.62 
  -3   1  -6    3.88    0.48 
  -4  -1  -6    2.37    0.51 
   4  -1   6    3.11    0.74 
  -4  -1  -6    1.18    0.58 
  -4  -1  -6    2.58    0.40 
  -4   1  -6    3.23    0.77 
   4   1   6    1.47    0.71 
  -4   1  -6    2.59    0.45 
  -5  -1  -6    1.39    0.46 
  -5  -1  -6    1.01    0.61 
  -5   1  -6    0.25    0.57 
  -5   1  -6    0.63    0.35 
  -6  -1  -6    7.83    1.25 
  -6  -1  -6    6.85    0.85 
  -6   1  -6    7.83    0.85 
  -6   1  -6    6.03    1.20 
  -6  -2   6    0.38    0.78 
  -6  -2   6    1.12    0.34 
  -6   2   6    0.31    0.67 
  -6   2   6    0.47    0.18 
   6   2  -6    3.19    1.29 
  -5  -2   6    4.28    1.15 
   5  -2  -6    1.16    0.76 
  -5  -2   6    2.55    0.45 
   5   2  -6    1.69    0.94 
  -5   2   6    3.09    0.31 
  -4  -2   6    1.27    0.71 
  -4  -2   6    1.20    0.31 
  -4  -2   6    0.79    0.31 
   4  -2  -6    2.35    0.71 
  -4   2   6    1.16    0.23 
   4   2  -6    1.76    0.78 
   3  -2  -6    4.40    0.71 
  -3  -2   6    5.10    0.79 
  -3  -2   6    5.26    0.54 
  -3  -2   6    5.04    0.51 
   3   2  -6    4.09    0.80 
  -3   2   6    4.97    0.43 
  -3   2   6    5.24    0.60 
  -2  -2   6   29.24    1.69 
   2  -2  -6   25.37    1.77 
  -2  -2   6   28.54    1.71 
  -2  -2   6   28.35    1.92 
   2   2  -6   25.24    2.00 
  -2   2   6   30.56    1.68 
  -2   2   6   27.06    1.64 
  -2   2   6   28.56    1.62 
  -1  -2   6    7.74    0.64 
   1  -2  -6    7.55    0.63 
  -1  -2   6    7.80    0.68 
   1  -2  -6    7.07    0.55 
  -1  -2   6    8.00    0.62 
   1  -2  -6    6.90    0.58 
   1   2  -6    7.75    0.65 
   1   2  -6    7.65    0.75 
  -1   2   6    7.82    0.61 
   1   2  -6    6.83    0.61 
  -1   2   6    6.99    0.60 
   1   2  -6    7.49    0.58 
   0  -2   6    0.83    0.28 
   0  -2  -6    0.51    0.24 
   0  -2   6    0.64    0.21 
   0  -2   6    0.67    0.24 
   0  -2  -6    0.37    0.21 
   0   2  -6    0.87    0.27 
   0   2   6    0.92    0.28 
   0   2   6    0.50    0.27 
   0   2  -6    0.25    0.22 
   0   2  -6    0.89    0.27 
   0   2  -6    1.09    0.27 
   0   2  -6    0.35    0.27 
  -1  -2  -6   10.94    0.85 
  -1  -2  -6    9.62    0.91 
   1  -2   6    9.63    0.75 
  -1   2  -6   10.51    0.79 
   1   2   6   10.23    0.86 
   1   2   6   11.38    0.88 
  -1   2  -6   10.56    0.78 
   1   2   6   10.76    0.99 
  -1   2  -6   10.92    0.93 
  -2  -2  -6   78.23    4.24 
  -2  -2  -6   79.32    4.33 
   2  -2   6   80.36    4.44 
  -2  -2  -6   71.30    4.43 
   2   2   6   83.14    4.35 
   2   2   6   75.72    4.34 
   2   2   6   77.90    4.34 
  -2   2  -6   78.65    4.52 
  -2   2  -6   79.37    4.23 
   2   2   6   79.40    4.58 
   3  -2   6    2.91    0.33 
  -3  -2  -6    2.98    0.47 
   3  -2   6    4.24    0.62 
  -3  -2  -6    3.27    0.67 
   3  -2   6    3.65    0.38 
  -3  -2  -6    3.22    0.52 
   3   2   6    3.48    0.58 
  -3   2  -6    2.94    0.69 
   3   2   6    2.98    0.78 
  -3   2  -6    3.12    0.44 
   3   2   6    3.55    0.48 
  -4  -2  -6    0.14    0.47 
  -4  -2  -6    0.05    0.31 
  -4  -2  -6   -0.06    0.30 
   4  -2   6    0.01    0.45 
   4   2   6   -0.19    0.53 
  -4   2  -6   -0.24    0.26 
  -4   2  -6    0.28    0.28 
  -5  -2  -6   51.28    2.99 
  -5  -2  -6   48.94    3.33 
  -5   2  -6   44.71    3.27 
  -5   2  -6   47.31    2.83 
  -6  -2  -6    3.92    0.74 
  -6   2  -6    2.59    0.61 
  -6   2  -6    5.16    1.13 
  -6  -3   6   -0.09    0.79 
  -6  -3   6    0.70    0.37 
  -6   3   6    0.60    0.73 
   6   3  -6    0.64    0.77 
  -6   3   6    0.54    0.24 
   5  -3  -6    0.54    0.55 
  -5  -3   6    0.64    0.80 
  -5  -3   6    0.81    0.38 
   5   3  -6    0.86    0.97 
  -5   3   6    0.56    0.22 
   4  -3  -6    3.83    0.81 
  -4  -3   6    2.27    0.48 
  -4  -3   6    2.58    0.89 
  -4  -3   6    2.35    0.47 
   4   3  -6    1.72    0.80 
  -4   3   6    3.03    0.35 
  -4   3   6    2.43    0.55 
  -3  -3   6   11.51    0.90 
   3  -3  -6   10.56    1.06 
  -3  -3   6   11.23    0.94 
  -3  -3   6   13.24    1.36 
  -3   3   6   11.43    0.80 
  -3   3   6   11.54    0.88 
   3   3  -6   14.42    1.51 
  -2  -3   6   21.41    1.41 
   2  -3  -6   20.18    1.38 
  -2  -3   6   22.41    1.68 
  -2  -3   6   19.20    1.34 
   2   3  -6   21.44    1.10 
   2   3  -6   20.33    1.09 
   2   3  -6   19.42    1.17 
  -2   3   6   21.06    1.34 
   2   3  -6   22.27    1.77 
  -2   3   6   20.72    1.30 
  -2   3   6   22.94    1.26 
  -1  -3   6    0.84    0.42 
  -1  -3   6    0.36    0.22 
   1  -3  -6    1.11    0.22 
   1  -3  -6    0.44    0.18 
  -1  -3   6    0.34    0.24 
   1  -3  -6    0.12    0.23 
  -1  -3   6    0.55    0.27 
  -1  -3   6    0.35    0.24 
  -1   3   6    0.81    0.28 
   1   3  -6   -0.05    0.07 
   1   3  -6    0.57    0.32 
   1   3  -6    0.39    0.26 
  -1   3   6    0.13    0.21 
   0  -3   6   23.36    1.46 
   0  -3  -6   21.68    1.46 
   0  -3   6   23.35    1.45 
   0  -3   6   22.40    1.52 
   0  -3   6   24.11    1.57 
   0  -3  -6   24.59    1.47 
   0   3   6   24.75    1.56 
   0   3   6   23.64    1.46 
   0   3  -6   23.35    1.49 
   0   3   6   22.86    1.54 
   0   3  -6   23.10    1.48 
   0   3  -6   22.44    1.45 
   0   3  -6   21.89    1.47 
  -1  -3  -6   11.30    0.95 
   1  -3   6   12.34    0.88 
   1  -3   6   12.83    0.91 
  -1  -3  -6   13.32    0.95 
   1   3   6   10.61    1.07 
   1   3   6   12.72    1.06 
  -1   3  -6   12.50    0.91 
  -1   3  -6   11.48    0.93 
   1   3   6   12.03    1.05 
   1   3   6   13.47    1.06 
  -1   3  -6   13.40    0.91 
  -2  -3  -6   46.03    2.67 
   2  -3   6   44.18    2.33 
  -2  -3  -6   44.88    2.70 
   2   3   6   44.51    2.73 
  -2   3  -6   42.49    2.84 
   2   3   6   46.17    2.76 
  -2   3  -6   45.18    2.58 
   2   3   6   45.08    2.98 
   2   3   6   47.41    2.76 
  -3  -3  -6   14.63    1.30 
  -3  -3  -6   17.81    1.33 
   3  -3   6   17.96    1.14 
  -3  -3  -6   18.18    1.02 
   3   3   6   18.46    1.26 
  -3   3  -6   14.81    1.44 
   3   3   6   17.07    1.67 
   3   3   6   19.59    1.43 
  -3   3  -6   17.50    1.21 
  -4  -3  -6    4.01    0.71 
  -4  -3  -6    3.88    0.49 
   4  -3   6    3.26    0.69 
  -4  -3  -6    4.40    0.68 
   4   3   6    5.17    1.07 
  -4   3  -6    3.12    0.50 
   4   3   6    4.16    0.70 
  -4   3  -6    4.21    0.88 
  -5  -3  -6    4.07    0.76 
  -5   3  -6    4.43    1.00 
  -5   3  -6    4.93    0.66 
  -6  -3  -6    9.69    1.07 
  -6   3  -6    6.96    0.87 
  -6   3  -6    6.40    1.21 
  -6  -4   6    2.77    0.65 
  -6  -4   6    2.24    1.22 
  -6   4   6    2.08    0.48 
   6   4  -6    3.87    1.46 
  -5  -4   6    0.27    0.36 
  -5  -4   6    0.88    0.68 
  -5   4   6    0.17    0.25 
   5   4  -6   -0.36    0.83 
   4  -4  -6    0.28    0.47 
  -4  -4   6    0.36    0.34 
  -4  -4   6    0.15    0.33 
  -4  -4   6    0.05    0.45 
   4   4  -6   -0.99    0.36 
  -4   4   6    0.30    0.31 
  -4   4   6    0.00    0.21 
  -3  -4   6    3.13    0.52 
  -3  -4   6    1.57    0.73 
  -3  -4   6    2.34    0.56 
   3  -4  -6    1.87    0.50 
  -3  -4   6    1.95    0.48 
  -3   4   6    2.14    0.34 
  -3   4   6    2.02    0.39 
   3   4  -6    1.33    0.66 
   2  -4  -6    1.54    0.35 
  -2  -4   6    0.92    0.38 
  -2  -4   6    1.79    0.43 
  -2  -4   6    1.29    0.49 
  -2  -4   6    1.88    0.70 
  -2   4   6    1.22    0.34 
   2   4  -6    1.74    0.65 
   2   4  -6    1.33    0.27 
   1  -4  -6   36.10    2.17 
  -1  -4   6   37.46    2.28 
  -1  -4   6   35.08    2.28 
  -1  -4   6   37.52    2.45 
  -1  -4   6   38.43    2.23 
  -1  -4   6   34.38    2.17 
   1   4  -6   37.55    2.40 
  -1   4   6   34.74    2.20 
   1   4  -6   38.99    2.27 
  -1   4   6   38.83    2.20 
  -1   4   6   35.14    2.27 
   1   4  -6   34.04    2.16 
   0  -4  -6    9.97    0.87 
   0  -4   6   10.85    0.96 
   0  -4   6   11.82    0.88 
   0  -4  -6   11.53    0.91 
   0  -4   6   10.25    0.85 
   0  -4   6   11.99    1.02 
   0   4   6   10.62    0.99 
   0   4  -6    9.31    0.89 
   0   4   6   10.61    1.04 
   0   4  -6   11.86    0.93 
   0   4  -6   11.26    0.90 
   0   4   6   11.81    0.89 
   0   4   6   11.32    1.02 
   0   4  -6   10.91    0.93 
  -1  -4  -6    1.69    0.38 
   1  -4   6    2.11    0.37 
   1  -4   6    2.14    0.39 
  -1  -4  -6    1.97    0.40 
  -1  -4  -6    1.42    0.37 
   1   4   6    0.97    0.41 
  -1   4  -6    0.49    0.29 
   1   4   6    1.09    0.47 
   1   4   6    1.72    0.58 
  -1   4  -6    0.86    0.32 
   1   4   6    1.41    0.44 
  -2  -4  -6   -0.02    0.21 
  -2  -4  -6   -0.09    0.24 
  -2  -4  -6   -0.08    0.29 
   2  -4   6    0.05    0.16 
  -2  -4  -6   -0.26    0.28 
   2   4   6   -0.37    0.31 
  -2   4  -6    0.03    0.22 
   2   4   6   -0.28    0.34 
   2   4   6   -0.12    0.47 
   2   4   6   -0.27    0.27 
  -3  -4  -6   39.37    2.53 
  -3  -4  -6   40.68    2.40 
   3  -4   6   39.40    2.28 
  -3  -4  -6   36.88    2.50 
  -3   4  -6   38.43    2.73 
   3   4   6   42.86    2.99 
   3   4   6   39.70    2.61 
   3   4   6   36.25    2.38 
  -3   4  -6   40.39    2.36 
  -4  -4  -6   21.43    1.68 
  -4  -4  -6   20.44    1.49 
  -4  -4  -6   21.05    1.33 
  -4  -4  -6   22.37    1.70 
   4  -4   6   20.30    1.53 
  -4   4  -6   18.95    1.83 
  -4   4  -6   23.17    1.51 
   4   4   6   19.60    2.06 
  -5  -4  -6    0.20    0.44 
  -5  -4  -6    0.79    0.55 
  -5   4  -6    0.73    0.71 
  -5   4  -6   -0.19    0.28 
  -6  -4  -6    0.29    0.48 
  -6   4  -6   -0.49    0.32 
  -6   4  -6   -0.58    0.36 
  -6  -5   6    0.18    0.78 
  -6  -5   6    0.94    0.51 
   6   5  -6    0.72    1.14 
  -6   5   6    0.86    0.43 
  -5  -5   6    2.22    0.66 
  -5  -5   6    3.79    1.29 
   5   5  -6    2.92    1.34 
  -5   5   6    1.40    0.44 
  -4  -5   6    1.20    0.71 
  -4  -5   6    1.33    0.50 
  -4  -5   6    2.04    0.75 
   4  -5  -6    1.42    0.50 
  -4  -5   6    1.39    0.52 
   4   5  -6    1.33    0.81 
  -4   5   6    1.26    0.34 
  -4   5   6    0.91    0.38 
  -4   5   6    1.53    0.35 
  -3  -5   6    0.62    0.41 
  -3  -5   6    0.07    0.31 
   3  -5  -6    0.43    0.31 
  -3  -5   6    0.24    0.47 
  -3  -5   6    0.06    0.31 
   3   5  -6    0.61    0.53 
  -3   5   6    0.17    0.27 
  -3   5   6    0.28    0.32 
  -2  -5   6   20.95    1.46 
  -2  -5   6   19.14    1.47 
   2  -5  -6   19.72    1.24 
  -2  -5   6   18.56    1.70 
  -2  -5   6   19.69    1.56 
   2  -5  -6   20.43    1.16 
   2   5  -6   18.35    1.26 
  -2   5   6   20.80    1.45 
  -2   5   6   22.88    1.47 
   2   5  -6   18.91    1.78 
  -1  -5   6    4.36    0.64 
  -1  -5   6    4.22    0.60 
  -1  -5   6    7.62    0.81 
   1  -5  -6    3.56    0.59 
   1   5  -6    6.06    0.68 
  -1   5   6    5.87    0.64 
   1   5  -6    4.59    0.62 
   1   5  -6    5.00    0.73 
  -1   5   6    6.13    0.73 
   1   5  -6    3.90    0.74 
  -1   5   6    5.20    0.73 
   0  -5  -6   14.08    1.10 
   0  -5   6   14.66    1.06 
   0  -5  -6   12.10    1.07 
   0  -5   6   12.19    1.19 
   0  -5   6   13.63    1.07 
   0  -5   6   13.26    1.03 
   0   5   6   13.86    1.21 
   0   5  -6   16.28    1.16 
   0   5  -6   11.82    1.07 
   0   5   6   14.49    1.08 
   0   5   6   15.49    1.29 
   0   5  -6   13.97    1.14 
   0   5  -6   13.91    1.10 
   0   5   6   15.12    1.27 
   0   5  -6   15.17    1.17 
  -1  -5  -6   48.96    2.93 
  -1  -5  -6   47.71    3.00 
  -1  -5  -6   50.65    3.01 
   1  -5   6   50.13    2.95 
  -1  -5  -6   49.76    3.13 
   1  -5   6   49.35    2.83 
  -1   5  -6   49.94    2.85 
   1   5   6   52.49    3.28 
   1   5   6   51.83    3.10 
   1   5   6   47.22    3.09 
   1   5   6   49.81    2.86 
  -1   5  -6   49.49    2.94 
  -1   5  -6   49.39    2.85 
  -1   5  -6   51.50    2.90 
  -2  -5  -6   23.43    1.63 
   2  -5   6   24.55    1.50 
  -2  -5  -6   25.57    1.95 
  -2  -5  -6   27.24    1.83 
  -2  -5  -6   25.71    1.82 
  -2   5  -6   25.31    1.66 
  -2   5  -6   24.93    1.55 
   2   5   6   24.88    2.06 
   2   5   6   18.96    1.73 
   2   5   6   25.20    1.85 
  -3  -5  -6    9.90    0.92 
  -3  -5  -6    9.02    1.06 
  -3  -5  -6   10.17    1.21 
  -3  -5  -6    9.52    1.05 
  -3   5  -6    9.24    0.90 
   3   5   6   10.49    0.99 
   3   5   6   11.40    1.48 
  -4  -5  -6    9.84    1.10 
  -4  -5  -6    7.80    0.88 
  -4  -5  -6    9.65    1.15 
  -4  -5  -6    6.68    1.15 
   4  -5   6    8.56    0.85 
  -4   5  -6    7.31    1.19 
  -4   5  -6    9.01    0.89 
   4   5   6    8.56    1.46 
  -5  -5  -6    1.24    0.71 
  -5  -5  -6    1.56    0.61 
  -5   5  -6    2.14    0.84 
  -5   5  -6    0.37    0.38 
  -6  -5  -6   -0.40    0.43 
  -6   5  -6    0.78    0.74 
  -6   5  -6    0.25    0.43 
  -6  -6   6    0.49    0.53 
  -6  -6   6    0.91    1.15 
  -6   6   6    1.53    0.58 
   6   6  -6    2.12    1.18 
  -5  -6   6   -0.06    0.46 
  -5  -6   6   -1.91    0.63 
  -5   6   6    0.42    0.46 
  -5   6   6   -0.18    0.38 
   5   6  -6   -0.21    0.95 
  -4  -6   6   11.83    1.22 
  -4  -6   6    7.95    1.38 
  -4  -6   6   14.54    1.39 
  -4   6   6   12.53    0.90 
  -4   6   6   12.19    1.12 
   4   6  -6   11.42    1.79 
  -4   6   6   10.57    1.06 
  -3  -6   6    0.45    0.41 
  -3  -6   6    0.98    0.57 
  -3  -6   6    0.21    0.52 
   3  -6  -6    0.38    0.25 
  -3  -6   6    0.65    0.38 
   3   6  -6    1.09    0.68 
  -3   6   6    0.58    0.37 
  -3   6   6    0.81    0.39 
  -2  -6   6    1.74    0.50 
  -2  -6   6    2.01    0.58 
  -2  -6   6    1.50    0.64 
   2  -6  -6    1.25    0.27 
  -2  -6   6    2.12    0.55 
   2  -6  -6    1.03    0.28 
  -2   6   6    0.95    0.41 
   2   6  -6    2.42    0.76 
   2   6  -6    0.64    0.33 
  -2   6   6    1.66    0.52 
  -2   6   6    0.88    0.44 
  -1  -6   6    2.77    0.55 
   1  -6  -6    3.19    0.58 
  -1  -6   6    2.90    0.66 
  -1  -6   6    2.96    0.53 
  -1  -6   6    4.39    0.70 
   1   6  -6    3.57    0.56 
  -1   6   6    4.05    0.70 
  -1   6   6    3.65    0.70 
  -1   6   6    4.16    0.60 
   1   6  -6    3.69    0.69 
   1   6  -6    2.04    0.51 
  -1   6   6    3.65    0.59 
   0  -6  -6    3.51    0.58 
   0  -6  -6    3.08    0.58 
   0  -6  -6    1.92    0.45 
   0  -6   6    2.38    0.42 
   0  -6   6    2.91    0.59 
   0  -6   6    2.84    0.53 
   0  -6   6    2.96    0.46 
   0   6  -6    4.29    0.67 
   0   6   6    2.22    0.50 
   0   6  -6    2.41    0.49 
   0   6  -6    3.07    0.54 
   0   6  -6    2.93    0.56 
   0   6   6    2.84    0.67 
   0   6   6    3.25    0.75 
   0   6   6    2.98    0.66 
  -1  -6  -6   41.22    2.61 
   1  -6   6   45.72    2.61 
  -1  -6  -6   38.99    2.61 
  -1  -6  -6   43.97    2.76 
  -1  -6  -6   36.27    2.48 
   1  -6   6   42.44    2.43 
  -1   6  -6   38.00    2.54 
   1   6   6   39.24    2.85 
   1   6   6   38.00    2.64 
   1   6   6   37.72    2.40 
  -1   6  -6   38.69    2.45 
   1   6   6   42.64    2.75 
  -1   6  -6   44.31    2.52 
  -1   6  -6   41.66    2.45 
   2  -6   6    2.04    0.44 
  -2  -6  -6    1.32    0.49 
  -2  -6  -6    0.95    0.48 
  -2  -6  -6    2.04    0.55 
  -2  -6  -6    1.70    0.50 
   2   6   6    1.41    0.59 
   2   6   6    2.64    0.80 
  -2   6  -6    1.59    0.48 
   2   6   6    1.61    0.33 
  -2   6  -6    1.55    0.36 
  -2   6  -6    1.94    0.36 
  -3  -6  -6    1.09    0.40 
  -3  -6  -6    1.15    0.67 
  -3  -6  -6    3.51    0.73 
  -3  -6  -6    0.96    0.58 
   3   6   6    0.66    0.51 
  -3   6  -6    1.15    0.43 
   3   6   6    0.24    0.68 
  -4  -6  -6   14.75    1.52 
  -4  -6  -6   14.46    1.61 
  -4  -6  -6   13.34    1.42 
   4  -6   6   13.49    1.08 
   4   6   6   12.71    1.70 
  -4   6  -6   14.63    1.24 
  -5  -6  -6    5.24    1.06 
  -5  -6  -6    4.88    0.98 
  -5   6  -6    4.33    0.75 
  -5   6  -6    4.14    0.93 
  -6  -6  -6    2.78    0.84 
  -6   6  -6    4.23    1.20 
  -6   6  -6    2.76    0.70 
  -6  -7   6    1.09    0.66 
  -6  -7   6    0.89    0.93 
  -6   7   6    1.84    0.73 
   6   7  -6    2.93    1.32 
  -5  -7   6    0.27    0.54 
  -5  -7   6    0.67    0.97 
  -5   7   6    0.60    0.59 
  -5   7   6    0.41    0.54 
   5   7  -6    1.75    1.26 
  -4  -7   6    3.99    0.98 
  -4  -7   6    2.36    0.75 
  -4  -7   6    2.93    1.05 
  -4   7   6    4.00    0.79 
  -4   7   6    2.77    0.76 
   4   7  -6    3.84    1.31 
  -3  -7   6    0.75    0.48 
  -3  -7   6    0.37    0.42 
  -3  -7   6    0.42    0.44 
  -3  -7   6   -0.25    0.44 
  -3   7   6    0.66    0.52 
  -3   7   6    0.68    0.44 
   3   7  -6    1.43    0.89 
  -3   7   6    0.20    0.44 
   2  -7  -6    1.83    0.25 
  -2  -7   6    2.28    0.58 
  -2  -7   6    1.57    0.77 
  -2  -7   6    1.73    0.56 
   2  -7  -6    1.00    0.35 
  -2  -7   6    1.56    0.55 
  -2   7   6    1.95    0.63 
  -2   7   6    1.90    0.60 
   2   7  -6    1.16    0.39 
  -2   7   6    1.20    0.56 
   2   7  -6    2.35    0.83 
   1  -7  -6    1.12    0.46 
  -1  -7   6    0.16    0.54 
  -1  -7   6    1.40    0.49 
  -1  -7   6    1.23    0.44 
  -1  -7   6    0.97    0.44 
  -1   7   6    0.99    0.56 
  -1   7   6   -0.09    0.42 
   1   7  -6    0.56    0.52 
  -1   7   6    0.66    0.49 
  -1   7   6    1.45    0.48 
   1   7  -6    0.83    0.42 
   1   7  -6    0.87    0.38 
   0  -7  -6    2.32    0.60 
   0  -7  -6    2.13    0.48 
   0  -7  -6    2.01    0.61 
   0  -7   6    1.17    0.53 
   0  -7  -6    1.95    0.57 
   0  -7   6    2.36    0.54 
   0  -7   6    2.38    0.54 
   0   7  -6    2.42    0.53 
   0   7  -6    2.59    0.63 
   0   7   6    1.84    0.53 
   0   7  -6    1.63    0.51 
   0   7   6    2.89    0.70 
   0   7   6    1.97    0.67 
   0   7  -6    3.10    0.60 
   0   7   6    2.31    0.73 
   1  -7   6    9.53    1.02 
   1  -7   6   10.16    0.88 
  -1  -7  -6   10.30    1.05 
  -1  -7  -6    9.58    1.00 
  -1  -7  -6   10.57    1.19 
  -1  -7  -6    8.88    1.05 
  -1   7  -6   11.00    0.98 
   1   7   6    9.97    1.18 
  -1   7  -6    9.56    0.96 
  -1   7  -6    7.57    0.86 
   1   7   6    9.37    0.90 
   1   7   6   10.81    1.21 
  -1   7  -6   11.95    1.09 
   1   7   6   10.40    1.25 
  -2  -7  -6    0.87    0.55 
   2  -7   6   -0.04    0.33 
  -2  -7  -6    0.79    0.39 
  -2  -7  -6    0.54    0.39 
  -2  -7  -6    0.25    0.43 
   2   7   6    0.63    0.27 
  -2   7  -6    0.71    0.41 
   2   7   6    0.44    0.51 
  -2   7  -6    0.55    0.34 
   2   7   6    0.96    0.79 
  -2   7  -6    0.15    0.25 
  -3  -7  -6    1.00    0.70 
  -3  -7  -6    1.00    0.62 
  -3  -7  -6    0.36    0.41 
  -3  -7  -6   -0.23    0.43 
  -3   7  -6    1.20    0.38 
   3   7   6    1.97    1.00 
   3   7   6    0.52    0.54 
  -3   7  -6    0.97    0.28 
  -3   7  -6    0.68    0.43 
  -4  -7  -6    1.02    0.67 
  -4  -7  -6    1.81    0.77 
  -4  -7  -6    1.35    0.80 
  -4   7  -6    1.07    0.49 
  -5  -7  -6   -0.02    0.65 
  -5  -7  -6   -0.06    0.53 
  -5   7  -6    0.46    0.71 
  -5   7  -6   -0.49    0.36 
  -6  -7  -6    0.59    0.81 
  -6   7  -6    1.43    0.89 
  -6   7  -6   -0.29    0.46 
  -6  -8   6    1.85    0.80 
  -6  -8   6    0.73    1.19 
  -6   8   6    1.67    0.85 
   6   8  -6    3.11    1.43 
  -5  -8   6   -0.20    0.57 
  -5  -8   6    1.02    1.14 
  -5   8   6    0.19    0.56 
  -5   8   6    0.25    0.63 
   5   8  -6    1.35    1.29 
  -4  -8   6    9.25    1.63 
  -4  -8   6    8.35    1.15 
  -4   8   6    8.84    1.18 
  -4   8   6   10.78    1.21 
   4   8  -6    6.09    1.40 
  -3  -8   6   33.63    2.56 
  -3  -8   6   37.36    3.00 
  -3  -8   6   41.29    2.57 
  -3  -8   6   37.63    2.69 
  -3   8   6   38.97    2.58 
  -3   8   6   38.49    2.47 
  -3   8   6   29.45    2.48 
   3   8  -6   35.38    3.02 
  -2  -8   6    2.02    0.60 
   2  -8  -6    2.36    0.48 
  -2  -8   6    1.73    0.60 
  -2  -8   6    1.60    0.83 
  -2  -8   6    3.25    0.77 
   2  -8  -6    2.33    0.30 
   2  -8  -6    2.66    0.25 
  -2   8   6    3.11    0.69 
  -2   8   6    2.73    0.77 
  -2   8   6    1.70    0.67 
   2   8  -6    2.47    0.93 
   2   8  -6    2.95    0.61 
   1  -8  -6    0.87    0.46 
  -1  -8   6    1.07    0.50 
   1  -8  -6    2.08    0.48 
  -1  -8   6    1.23    0.50 
  -1  -8   6    1.06    0.58 
   1   8  -6    0.70    0.51 
  -1   8   6    1.04    0.56 
   1   8  -6    1.44    0.51 
   1   8  -6    2.05    0.62 
  -1   8   6    1.23    0.56 
  -1   8   6    2.27    0.72 
   0  -8  -6    6.53    0.85 
   0  -8  -6    6.14    0.78 
   0  -8  -6    5.64    0.83 
   0  -8   6    4.81    0.93 
   0  -8   6    5.71    0.75 
   0  -8   6    4.62    0.74 
   0  -8  -6    5.29    0.88 
   0  -8  -6    6.41    0.84 
   0   8  -6    5.90    0.83 
   0   8  -6    4.51    0.83 
   0   8   6    6.27    1.07 
   0   8   6    5.57    0.96 
   0   8  -6    6.52    0.82 
   0   8   6    5.59    0.87 
   0   8  -6    5.06    0.87 
   0   8   6    5.45    0.77 
   1  -8   6    2.75    0.45 
   1  -8   6    3.06    0.70 
   1  -8   6    1.87    0.50 
  -1  -8  -6    2.14    0.78 
  -1  -8  -6    3.60    0.77 
  -1  -8  -6    3.13    0.72 
  -1  -8  -6    2.59    0.67 
   1   8   6    2.11    0.80 
  -1   8  -6    3.07    0.60 
   1   8   6    2.74    0.58 
   1   8   6    2.61    0.88 
  -1   8  -6    4.36    0.76 
  -1   8  -6    3.33    0.66 
   1   8   6    2.19    0.73 
   2  -8   6    5.08    0.74 
  -2  -8  -6    6.45    0.95 
  -2  -8  -6    5.90    0.98 
  -2  -8  -6    5.41    0.94 
  -2  -8  -6    3.92    0.72 
   2   8   6    2.41    0.82 
   2   8   6    6.59    1.29 
  -2   8  -6    4.75    0.70 
  -2   8  -6    3.83    0.75 
   2   8   6    5.01    0.60 
  -2   8  -6    5.03    0.63 
  -3  -8  -6    1.35    0.65 
  -3  -8  -6    1.87    0.58 
  -3  -8  -6    1.32    0.74 
  -3  -8  -6    2.95    0.98 
  -3   8  -6    0.67    0.52 
  -3   8  -6    1.14    0.38 
   3   8   6    1.58    0.67 
  -3   8  -6    1.53    0.41 
   3   8   6    1.06    0.73 
  -4  -8  -6   -0.34    0.53 
  -4  -8  -6   -0.38    0.52 
  -4   8  -6   -0.06    0.29 
  -4   8  -6   -0.02    0.51 
  -5  -8  -6    3.46    1.15 
  -5  -8  -6    5.43    1.16 
  -5   8  -6    2.66    0.81 
  -5   8  -6    2.69    1.04 
  -5  -9   6    3.70    1.01 
  -5  -9   6    1.92    1.28 
  -5   9   6    3.12    0.96 
   5   9  -6    3.10    1.31 
  -5   9   6    3.86    1.02 
  -4  -9   6    0.24    0.57 
  -4  -9   6   -1.20    0.72 
   4   9  -6    0.00    0.95 
  -4   9   6    0.14    0.58 
  -4   9   6    0.35    0.61 
  -3  -9   6    2.14    0.73 
  -3  -9   6    1.21    0.72 
  -3  -9   6    2.03    0.88 
  -3  -9   6    2.34    0.69 
   3   9  -6    0.77    0.91 
   3   9  -6    0.96    0.28 
  -3   9   6    1.27    0.57 
  -3   9   6    1.34    0.74 
  -3   9   6    1.56    0.73 
  -2  -9   6   11.01    1.58 
  -2  -9   6    9.61    1.25 
   2  -9  -6   12.01    1.01 
   2  -9  -6   10.34    0.66 
   2  -9  -6   12.03    0.64 
  -2  -9   6   10.72    1.17 
  -2  -9   6   10.02    1.24 
   2   9  -6   10.43    1.07 
  -2   9   6   10.27    1.23 
  -2   9   6   14.51    1.43 
   2   9  -6   12.79    1.25 
  -2   9   6    8.57    1.23 
   2   9  -6   10.39    1.41 
   1  -9  -6   18.32    1.50 
  -1  -9   6   18.23    1.53 
  -1  -9   6   18.86    1.55 
  -1  -9   6   18.39    1.85 
   1  -9  -6   18.37    1.59 
   1  -9  -6   16.08    1.32 
   1   9  -6   17.21    1.49 
  -1   9   6   20.29    1.83 
  -1   9   6   15.17    1.63 
   1   9  -6   19.81    1.59 
   1   9  -6   16.37    1.72 
  -1   9   6   18.26    1.75 
   0  -9  -6    6.07    0.96 
   0  -9   6    4.34    0.66 
   0  -9  -6    5.00    0.81 
   0  -9   6    4.95    0.98 
   0  -9  -6    4.75    0.73 
   0  -9   6    4.29    0.76 
   0  -9  -6    5.17    0.84 
   0  -9  -6    4.89    0.84 
   0   9  -6    4.60    0.75 
   0   9   6    5.85    0.94 
   0   9  -6    4.84    0.88 
   0   9  -6    4.18    0.80 
   0   9   6    4.50    1.05 
   0   9   6    3.63    0.79 
   0   9  -6    5.90    0.92 
   0   9   6    5.69    0.83 
  -1  -9  -6   50.47    3.12 
   1  -9   6   46.64    2.94 
  -1  -9  -6   50.93    3.27 
   1  -9   6   45.78    2.87 
  -1  -9  -6   46.18    3.29 
  -1  -9  -6   44.13    3.14 
   1  -9   6   51.83    3.21 
  -1   9  -6   44.89    3.00 
   1   9   6   47.26    3.52 
  -1   9  -6   51.51    3.23 
   1   9   6   48.65    2.96 
  -1   9  -6   51.32    3.43 
   1   9   6   42.93    3.24 
  -2  -9  -6    5.05    0.98 
  -2  -9  -6    5.31    1.00 
  -2  -9  -6    6.59    1.21 
  -2  -9  -6    5.19    0.84 
   2  -9   6    6.57    0.86 
   2   9   6    3.38    0.63 
   2   9   6    5.11    1.04 
   2   9   6    4.78    0.66 
  -2   9  -6    6.76    0.98 
   2   9   6    3.18    1.08 
  -2   9  -6    3.97    0.64 
  -3  -9  -6   -0.47    0.55 
  -3  -9  -6   -0.13    0.52 
  -3  -9  -6    0.41    0.45 
  -3  -9  -6   -0.10    0.48 
  -3   9  -6   -0.12    0.28 
   3   9   6   -0.17    0.54 
  -3   9  -6   -0.24    0.40 
   3   9   6   -0.48    0.57 
  -4  -9  -6    8.12    1.36 
  -4  -9  -6    8.94    1.34 
  -4   9  -6   11.64    1.34 
  -4   9  -6   10.55    0.96 
  -5  -9  -6    8.14    1.41 
  -5   9  -6    5.69    1.12 
  -5 -10   6    1.70    0.83 
  -5 -10   6    1.11    1.26 
  -5  10   6    0.94    0.81 
   5  10  -6   -0.97    0.69 
  -4 -10   6    9.48    1.67 
  -4 -10   6   10.15    1.37 
  -4  10   6    8.70    1.38 
   4  10  -6    7.96    1.62 
  -4  10   6   11.58    1.46 
  -3 -10   6    0.04    0.61 
  -3 -10   6    0.82    0.68 
  -3 -10   6    0.96    0.65 
   3  10  -6    0.62    0.34 
  -3  10   6    0.66    0.72 
  -3  10   6    0.59    0.66 
   3  10  -6    1.72    1.07 
  -2 -10   6    1.18    0.62 
   2 -10  -6    1.02    0.11 
  -2 -10   6    0.69    0.82 
  -2 -10   6    1.50    0.71 
   2 -10  -6    1.36    0.49 
   2  10  -6    1.21    0.53 
  -2  10   6    1.09    0.69 
   2  10  -6    1.03    0.71 
  -2  10   6    2.00    0.89 
   2  10  -6    1.79    0.64 
  -2  10   6    0.64    0.68 
   1 -10  -6    2.52    0.69 
   1 -10  -6    2.80    0.76 
  -1 -10   6    2.87    0.67 
   1 -10  -6    1.99    0.53 
  -1 -10   6    4.11    1.13 
  -1 -10   6    3.39    0.80 
   1 -10  -6    3.29    0.80 
  -1  10   6    4.13    1.07 
  -1  10   6    2.26    0.80 
   1  10  -6    3.56    0.74 
  -1  10   6    2.29    0.88 
   1  10  -6    3.67    0.70 
   1  10  -6    2.57    0.81 
   0 -10  -6   -0.06    0.43 
   0 -10  -6    0.31    0.52 
   0 -10   6   -0.04    0.43 
   0 -10   6   -0.21    0.28 
   0 -10   6    0.58    0.66 
   0 -10  -6   -0.28    0.36 
   0 -10  -6    0.17    0.42 
   0 -10  -6    0.51    0.57 
   0  10  -6    0.32    0.39 
   0  10  -6   -0.49    0.40 
   0  10   6   -0.41    0.57 
   0  10  -6   -0.13    0.43 
   0  10   6   -0.06    0.57 
   0  10   6   -0.01    0.41 
   0  10   6   -0.49    0.25 
   0  10  -6    0.32    0.53 
  -1 -10  -6   10.80    1.36 
  -1 -10  -6   11.35    1.33 
  -1 -10  -6   12.88    1.56 
   1 -10   6   12.60    1.18 
  -1 -10  -6   11.22    1.29 
   1 -10   6   13.36    1.16 
   1 -10   6   10.34    1.30 
   1  10   6   15.06    1.57 
  -1  10  -6   12.48    1.27 
   1  10   6   11.31    1.67 
   1  10   6   13.24    1.21 
  -1  10  -6   12.91    1.36 
   2 -10   6    5.90    0.90 
  -2 -10  -6    5.77    1.11 
  -2 -10  -6    7.13    1.19 
  -2 -10  -6    8.93    1.22 
  -2 -10  -6    5.21    0.94 
   2  10   6    5.55    0.80 
   2  10   6    4.34    1.12 
  -2  10  -6    5.65    0.79 
   2  10   6    6.85    0.79 
   2  10   6    5.55    1.24 
  -2  10  -6    5.63    1.02 
  -3 -10  -6   29.16    2.49 
   3 -10   6   33.53    2.09 
  -3 -10  -6   28.36    2.32 
  -3 -10  -6   30.40    2.65 
  -3  10  -6   33.45    2.50 
  -3  10  -6   31.45    2.08 
   3  10   6   32.97    2.49 
  -4 -10  -6   35.32    2.90 
  -4  10  -6   32.10    2.57 
  -5 -10  -6    0.72    0.94 
  -5 -11   6    0.14    0.84 
  -5 -11   6   -0.12    0.67 
  -5  11   6    0.02    0.80 
   5  11  -6   -0.76    1.19 
  -4 -11   6    4.02    1.51 
  -4 -11   6    3.46    1.04 
  -4  11   6    2.76    1.06 
  -4  11   6    5.10    1.29 
   4  11  -6    3.46    1.62 
  -3 -11   6    2.90    1.31 
  -3 -11   6    2.23    0.85 
   3  11  -6    3.98    0.62 
  -3  11   6    3.10    1.10 
   3  11  -6    3.35    1.17 
  -3  11   6    3.21    1.07 
   2 -11  -6    1.14    0.55 
  -2 -11   6    0.87    0.88 
  -2 -11   6    1.24    0.62 
  -2 -11   6    1.54    0.72 
   2  11  -6    1.19    0.52 
  -2  11   6    1.05    0.87 
  -2  11   6    2.24    0.95 
   2  11  -6    1.13    0.77 
   2  11  -6    0.72    0.53 
  -1 -11   6    0.61    0.56 
   1 -11  -6    0.24    0.45 
   1 -11  -6    1.77    0.70 
  -1 -11   6   -0.16    0.46 
  -1 -11   6    0.52    0.63 
   1 -11  -6    1.06    0.59 
   1 -11  -6    0.76    0.57 
   1  11  -6    0.07    0.45 
  -1  11   6    0.93    0.75 
  -1  11   6    1.10    0.75 
   1  11  -6   -0.08    0.50 
  -1  11   6    1.11    0.80 
   1  11  -6    0.18    0.69 
   0 -11   6   -0.01    0.44 
   0 -11  -6    0.56    0.58 
   0 -11  -6    1.31    0.72 
   0 -11   6    2.08    0.93 
   0 -11  -6    1.15    0.77 
   0 -11   6    1.54    0.64 
   0  11   6    1.61    0.65 
   0  11  -6    2.05    0.67 
   0  11  -6    0.02    0.55 
   0  11   6    1.44    0.91 
   0  11  -6    0.56    0.62 
   0  11  -6   -0.06    0.52 
   0  11   6    0.40    0.77 
  -1 -11  -6    0.06    0.46 
  -1 -11  -6    0.68    0.55 
   1 -11   6   -0.22    0.37 
   1 -11   6    0.01    0.38 
  -1 -11  -6   -0.47    0.41 
  -1 -11  -6    0.08    0.57 
   1 -11   6    0.01    0.42 
  -1  11  -6    0.83    0.55 
   1  11   6    1.48    0.88 
   1  11   6   -0.33    0.39 
  -1  11  -6    0.23    0.56 
   1  11   6    0.22    0.60 
  -2 -11  -6   12.58    1.47 
   2 -11   6   13.48    1.47 
  -2 -11  -6   14.35    1.71 
  -2 -11  -6   16.71    2.60 
   2  11   6   12.66    1.66 
  -2  11  -6   14.74    1.37 
   2  11   6   14.40    1.29 
   2  11   6   13.34    1.26 
  -2  11  -6   15.14    1.61 
  -3 -11  -6    2.46    0.85 
   3 -11   6    3.92    0.75 
  -3 -11  -6    4.22    1.22 
   3  11   6    5.21    0.75 
  -3  11  -6    5.04    0.78 
   3  11   6    5.07    1.09 
  -3  11  -6    6.86    1.84 
  -4 -11  -6    7.95    1.34 
  -5 -11  -6    6.33    1.60 
  -5 -12   6    0.55    0.83 
  -5 -12   6    0.23    1.24 
  -5  12   6    0.60    0.87 
   5  12  -6   -0.09    1.07 
  -4 -12   6    1.93    1.14 
  -4 -12   6    3.12    1.00 
  -4  12   6    2.52    1.14 
   4  12  -6    1.66    1.11 
  -3 -12   6    0.19    0.74 
  -3 -12   6    0.71    0.71 
   3  12  -6    0.48    0.49 
   3  12  -6    1.08    0.89 
  -3  12   6   -0.15    0.83 
  -2 -12   6    6.52    1.14 
  -2 -12   6    4.44    1.03 
   2 -12  -6    7.97    0.97 
  -2 -12   6    3.41    1.12 
   2  12  -6    5.62    1.24 
   2  12  -6    4.49    1.05 
  -2  12   6    7.15    1.37 
  -1 -12   6    7.66    1.39 
   1 -12  -6    5.04    1.02 
   1 -12  -6    5.70    0.85 
   1 -12  -6    5.23    0.96 
  -1 -12   6    4.90    1.00 
  -1 -12   6    6.67    1.01 
   1 -12  -6    5.35    1.01 
  -1  12   6    3.83    1.24 
   1  12  -6    6.30    1.03 
   1  12  -6    6.25    1.28 
   1  12  -6    5.51    1.05 
   0 -12   6   12.76    1.45 
   0 -12  -6   14.33    1.53 
   0 -12   6   12.61    1.68 
   0 -12  -6   13.45    1.54 
   0 -12   6   15.86    1.43 
   0 -12  -6   15.66    1.65 
   0  12   6   16.78    1.86 
   0  12  -6   11.53    1.55 
   0  12  -6   13.01    1.51 
   0  12  -6   17.66    1.71 
   1 -12   6    6.28    0.93 
  -1 -12  -6    7.10    1.07 
  -1 -12  -6    9.05    1.25 
   1 -12   6    6.59    1.21 
  -1 -12  -6    9.46    1.43 
  -1  12  -6    7.43    1.10 
   1  12   6    6.33    0.98 
   1  12   6    6.45    1.49 
   2 -12   6    5.18    0.99 
  -2 -12  -6    6.81    1.13 
  -2 -12  -6    4.48    1.26 
   2  12   6    6.32    0.90 
   2  12   6   10.33    1.54 
  -2  12  -6    4.54    0.94 
   3 -12   6    3.50    0.78 
  -3 -12  -6    2.62    0.96 
   3  12   6    2.04    0.61 
   3  12   6    1.87    0.87 
  -3  12  -6    1.80    0.63 
  -4 -12  -6    8.65    1.63 
  -5 -12  -6    0.26    1.01 
  -4 -13   6    0.46    0.80 
  -4 -13   6   -0.04    0.99 
   4  13  -6   -0.11    1.22 
  -4  13   6    0.36    0.81 
  -3 -13   6    3.58    1.46 
   3 -13  -6    3.04    0.48 
  -3 -13   6    4.41    1.20 
   3  13  -6    5.70    1.67 
  -3  13   6    4.21    1.37 
  -2 -13   6    2.52    1.19 
  -2 -13   6    4.19    1.10 
   2 -13  -6    1.25    0.55 
  -2 -13   6    1.36    0.76 
   2  13  -6    0.76    0.54 
   2  13  -6    2.72    1.10 
  -2  13   6    2.35    1.08 
   1 -13  -6    2.07    0.80 
  -1 -13   6    0.13    0.49 
  -1 -13   6    0.58    0.91 
   1 -13  -6    1.01    0.73 
   1 -13  -6    0.08    0.61 
  -1 -13   6    2.12    0.75 
   1  13  -6    0.61    0.66 
  -1  13   6    0.64    0.69 
   1  13  -6    1.00    0.63 
   0 -13   6   15.21    1.91 
   0 -13   6   15.89    1.57 
   0 -13  -6   19.02    1.82 
   0 -13  -6   18.18    1.85 
   0 -13  -6   17.64    1.87 
   0  13   6   19.17    2.16 
   0  13  -6   18.14    1.87 
   0  13  -6   15.97    1.76 
   0  13  -6   22.28    2.06 
   1 -13   6    4.71    0.83 
   1 -13   6    4.16    1.18 
  -1 -13  -6    2.63    0.95 
  -1 -13  -6    3.41    1.04 
   1  13   6    2.15    1.11 
  -1  13  -6    4.48    1.04 
  -2 -13  -6   22.04    2.02 
   2 -13   6   17.53    1.84 
  -2 -13  -6   17.83    1.99 
   2  13   6   19.56    2.14 
  -2  13  -6   21.33    1.82 
   2  13   6   18.55    1.67 
   3 -13   6   21.37    1.78 
  -3 -13  -6   20.75    2.32 
   3  13   6   17.62    2.08 
  -4 -13  -6    4.76    1.53 
  -4 -14   6    2.55    1.10 
  -4 -14   6    0.43    1.16 
  -4  14   6    1.41    1.10 
   4  14  -6   -0.74    0.74 
  -3 -14   6    0.48    0.77 
   3 -14  -6    0.07    0.34 
  -3 -14   6   -0.01    0.70 
  -3  14   6    0.82    0.91 
   3  14  -6   -0.10    1.01 
  -2 -14   6    5.61    1.36 
  -2 -14   6    3.96    1.10 
   2 -14  -6    5.06    0.92 
  -2  14   6    4.46    1.31 
   2  14  -6    4.78    1.36 
   1 -14  -6    9.22    1.38 
  -1 -14   6    8.87    1.68 
   1 -14  -6    9.31    1.27 
  -1 -14   6    7.70    1.28 
   1 -14  -6    8.30    1.38 
  -1  14   6   10.63    1.72 
   1  14  -6    8.73    1.25 
   1  14  -6   10.65    1.73 
   0 -14   6   11.51    1.36 
   0 -14  -6   10.96    1.45 
   0 -14  -6   11.77    1.62 
   0 -14   6   11.99    1.76 
   0  14  -6   11.78    1.61 
   0  14   6   10.40    1.60 
   0  14  -6    8.88    1.44 
   1 -14   6    0.46    0.82 
  -1 -14  -6    2.24    1.01 
   1 -14   6    1.88    0.74 
  -1 -14  -6    0.83    0.75 
  -1  14  -6    1.57    0.77 
  -1  14  -6    1.65    0.82 
   1  14   6    1.74    1.21 
   2 -14   6    5.56    1.15 
  -2 -14  -6    6.54    1.31 
  -2 -14  -6    3.89    1.29 
   2  14   6    6.31    1.44 
   2  14   6    6.64    1.05 
  -2  14  -6    5.37    0.99 
   3 -14   6   -0.09    0.61 
  -3 -14  -6   -0.79    0.47 
   3  14   6   -0.13    0.88 
  -4 -14  -6    0.47    0.95 
  -4  15   6    7.62    1.76 
   3 -15  -6    1.13    0.44 
  -3 -15   6    1.13    1.37 
  -3  15   6    2.17    1.27 
   3  15  -6    3.02    1.52 
  -2 -15   6    0.48    1.07 
   2 -15  -6    0.80    0.66 
   2  15  -6   -0.08    0.76 
  -2  15   6    0.53    1.00 
  -1 -15   6   10.51    1.71 
   1 -15  -6   13.71    1.74 
  -1 -15   6   10.18    1.52 
   1 -15  -6   10.83    1.45 
   1  15  -6   13.35    1.98 
  -1  15   6   17.57    2.04 
   0 -15  -6    0.82    0.88 
   0 -15   6    0.89    0.72 
   0 -15  -6    0.97    0.80 
   0 -15   6    0.68    0.97 
   0  15   6   -0.92    0.77 
   0  15  -6    1.82    0.95 
   1 -15   6    0.40    0.84 
   1 -15   6    0.64    0.56 
  -1 -15  -6    0.99    0.82 
  -1 -15  -6    0.68    0.72 
  -1  15  -6    0.25    0.62 
   1  15   6   -1.39    0.87 
  -2 -15  -6    2.62    1.06 
   2 -15   6    2.01    1.00 
  -2 -15  -6    5.11    1.28 
   2  15   6    5.20    1.01 
   2  15   6    0.77    1.14 
  -3 -15  -6    1.35    1.07 
   3  15   6    0.83    1.01 
   3 -16  -6    2.68    0.63 
  -3 -16   6    2.02    1.45 
  -3  16   6    4.08    1.52 
   3  16  -6    2.47    1.30 
   2 -16  -6    0.37    0.58 
  -2 -16   6   -0.13    1.07 
  -2  16   6    1.13    1.10 
   2  16  -6    0.59    0.86 
   1 -16  -6    1.61    0.95 
  -1 -16   6    2.17    1.23 
   1 -16  -6    1.50    0.84 
  -1 -16   6    0.68    0.80 
   1  16  -6    0.21    0.98 
  -1  16   6    0.36    1.14 
   0 -16   6    0.26    0.70 
   0 -16  -6    0.58    0.89 
   0 -16   6   -0.70    0.60 
   0 -16  -6    0.81    0.75 
   0  16   6    0.93    1.17 
   0  16  -6    0.53    0.96 
  -1 -16  -6   -0.62    0.55 
   1 -16   6   -0.07    0.84 
   1 -16   6   -0.75    0.53 
  -1 -16  -6    1.37    0.86 
   1  16   6    1.27    1.04 
  -1  16  -6   -0.30    0.69 
   2 -16   6    9.65    1.51 
  -2 -16  -6   11.41    1.72 
  -2 -16  -6    8.65    1.55 
   2  16   6   10.16    1.83 
   2  16   6   10.95    1.41 
  -3 -16  -6    0.08    0.69 
   3  16   6    0.88    1.09 
  -2 -17   6    0.63    0.94 
   2 -17  -6    0.32    0.64 
  -2  17   6    1.71    1.38 
   2  17  -6   -0.07    0.85 
  -1 -17   6   -0.35    0.74 
   1 -17  -6    0.41    0.75 
   1 -17  -6    0.37    0.72 
  -1 -17   6   -0.19    1.13 
  -1  17   6    0.78    1.22 
   1  17  -6    0.39    0.94 
   0 -17  -6    1.39    0.99 
   0 -17   6   -0.19    0.66 
   0 -17   6   -0.20    0.96 
   0 -17  -6    1.60    0.90 
   0  17   6    1.82    1.10 
   0  17  -6    1.10    1.01 
   1 -17   6    0.74    1.08 
  -1 -17  -6   -0.36    0.79 
   1 -17   6   -0.35    0.54 
  -1 -17  -6   -1.07    0.75 
   1  17   6   -0.38    0.80 
   2 -17   6   -0.64    0.73 
  -2 -17  -6    0.18    1.03 
   2  17   6    0.62    1.09 
   1 -18  -6    4.02    1.13 
  -1 -18   6    2.42    1.21 
   1 -18  -6    2.44    1.10 
  -1 -18   6    1.23    1.00 
   1  18  -6    5.31    1.73 
  -1  18   6    2.76    1.42 
   0 -18   6   -0.29    1.05 
   0 -18  -6   -0.47    0.72 
   0 -18  -6    0.48    0.70 
   0 -18   6    0.51    0.85 
   0  18  -6    0.06    0.89 
   0  18   6   -0.19    1.14 
  -1 -18  -6    0.46    0.78 
  -1 -18  -6    1.70    1.09 
   1 -18   6    0.24    0.75 
   1 -18   6    0.16    0.99 
   1  18   6    1.57    1.30 
  -6   0   7   -0.08    0.18 
   6   0  -7    0.03    0.79 
  -6   0   7   -0.12    0.71 
   5   0  -7    0.05    0.74 
  -5   0   7   -0.05    0.18 
  -5   0   7   -0.58    0.56 
   4   0  -7    0.42    0.59 
  -4   0   7    0.27    0.20 
  -4   0   7    0.42    0.22 
  -3   0   7   -0.16    0.15 
   3   0  -7   -0.55    0.37 
  -3   0   7   -0.13    0.15 
  -2   0   7   -0.05    0.13 
   2   0  -7    0.31    0.29 
  -2   0   7   -0.05    0.14 
  -2   0   7   -0.02    0.18 
  -1   0   7   -0.18    0.18 
  -1   0   7   -0.04    0.16 
   1   0  -7   -0.04    0.17 
  -1   0   7    0.07    0.20 
   1   0  -7   -0.01    0.16 
   1   0  -7   -0.13    0.15 
   1   0  -7   -0.19    0.21 
   0   0  -7    0.16    0.19 
   0   0  -7    0.28    0.24 
   0   0   7    0.15    0.23 
   0   0   7    0.43    0.18 
   0   0  -7    0.40    0.17 
  -1   0  -7    0.03    0.20 
   1   0   7   -0.07    0.15 
  -1   0  -7    0.03    0.13 
  -2   0  -7   -0.02    0.19 
   2   0   7    0.50    0.24 
  -2   0  -7   -0.24    0.33 
   2   0   7    0.05    0.24 
  -2   0  -7    0.02    0.12 
  -3   0  -7   -0.32    0.23 
   3   0   7   -0.30    0.23 
   3   0   7    0.23    0.39 
  -3   0  -7   -0.34    0.17 
   3   0   7   -0.03    0.12 
  -4   0  -7    0.68    0.54 
  -4   0  -7   -0.06    0.29 
   4   0   7   -0.01    0.49 
   5   0   7    0.75    0.68 
  -5   0  -7    0.26    0.56 
  -5   0  -7   -0.16    0.32 
  -6   0  -7   -0.09    0.34 
  -6   0  -7    0.35    0.70 
   6  -1  -7    0.55    0.74 
  -6  -1   7    0.36    0.86 
  -6  -1   7    0.78    0.28 
  -6   1   7   -0.30    0.72 
  -6   1   7    0.76    0.22 
   6   1  -7    1.52    1.01 
  -5  -1   7   10.24    0.80 
   5  -1  -7    8.65    1.43 
  -5  -1   7   11.83    1.56 
  -5   1   7    9.16    0.70 
   5   1  -7   13.37    1.75 
  -4  -1   7    2.00    0.36 
   4  -1  -7    1.33    0.70 
  -4  -1   7    1.48    0.34 
  -4  -1   7    1.24    0.61 
  -4   1   7    1.18    0.27 
   4   1  -7    0.65    0.71 
  -4   1   7    1.33    0.29 
   3  -1  -7    1.93    0.63 
  -3  -1   7    1.58    0.35 
  -3  -1   7    2.62    0.38 
  -3   1   7    3.40    0.60 
  -3   1   7    2.32    0.33 
   3   1  -7    2.24    0.75 
  -3   1   7    2.37    0.25 
  -2  -1   7    0.37    0.21 
   2   1  -7    0.92    0.45 
   1  -1  -7    0.67    0.27 
  -1  -1   7    0.22    0.20 
  -1  -1   7    0.32    0.20 
   1  -1  -7    0.44    0.19 
   1  -1  -7    0.00    0.18 
   1   1  -7    0.19    0.17 
  -1   1   7    0.37    0.23 
  -1   1   7    0.20    0.19 
   1   1  -7    0.50    0.21 
   1   1  -7    0.29    0.17 
   1   1  -7    0.32    0.22 
   1   1  -7    0.08    0.20 
   0  -1  -7    0.92    0.31 
   0  -1  -7    1.53    0.38 
   0  -1  -7    1.35    0.30 
   0  -1   7    1.19    0.33 
   0  -1   7    0.48    0.23 
   0  -1   7    1.07    0.30 
   0   1  -7    1.11    0.30 
   0   1   7    1.26    0.33 
   0   1   7    0.87    0.25 
   0   1  -7    0.83    0.29 
   0   1  -7    1.19    0.25 
  -1  -1  -7    5.16    0.55 
   1  -1   7    5.85    0.57 
  -1  -1  -7    5.62    0.65 
   1   1   7    5.58    0.57 
  -1   1  -7    6.36    0.58 
  -1   1  -7    5.43    0.70 
   1   1   7    5.23    0.60 
  -1   1  -7    5.96    0.50 
   1   1   7    5.59    0.42 
   2  -1   7   68.66    3.79 
  -2  -1  -7   64.47    3.80 
   2  -1   7   68.32    3.62 
  -2  -1  -7   75.38    4.08 
  -2   1  -7   65.39    3.76 
   2   1   7   69.46    4.05 
   2   1   7   68.49    3.88 
   2   1   7   69.25    3.79 
  -2   1  -7   68.62    4.05 
   2   1   7   70.64    3.85 
  -3  -1  -7    5.14    0.62 
   3  -1   7    5.28    0.76 
   3  -1   7    4.61    0.55 
  -3  -1  -7    4.53    0.79 
   3   1   7    5.30    0.56 
  -3   1  -7    4.87    0.83 
   3   1   7    4.15    0.59 
  -3   1  -7    4.80    0.56 
   3   1   7    5.89    0.91 
  -4  -1  -7   29.54    2.05 
  -4  -1  -7   30.46    2.38 
   4  -1   7   32.48    2.36 
  -4   1  -7   31.13    2.40 
   4   1   7   34.26    2.55 
  -4   1  -7   34.24    2.03 
  -5  -1  -7   10.14    1.00 
   5  -1   7    8.72    1.22 
  -5  -1  -7    9.74    1.28 
  -5   1  -7    9.17    0.91 
  -5   1  -7    8.86    1.32 
   5   1   7    9.72    1.37 
  -6  -1  -7    7.36    0.88 
  -6  -1  -7    4.39    1.13 
  -6   1  -7    4.76    1.12 
  -6   1  -7    5.98    0.80 
  -6  -2   7    1.39    0.41 
  -6  -2   7    2.99    1.24 
  -6   2   7    3.16    1.10 
   6   2  -7    2.60    1.21 
  -6   2   7    2.60    0.36 
  -5  -2   7    0.61    0.78 
   5  -2  -7    0.32    0.60 
  -5  -2   7    0.16    0.27 
   5   2  -7    0.00    0.82 
  -5   2   7    0.11    0.17 
  -4  -2   7    6.44    1.16 
  -4  -2   7    6.19    0.67 
  -4  -2   7    6.91    0.66 
   4  -2  -7    6.94    1.10 
   4   2  -7    6.00    1.25 
  -4   2   7    6.80    0.56 
  -3  -2   7   17.75    1.57 
  -3  -2   7   18.48    1.23 
   3  -2  -7   17.57    1.46 
  -3  -2   7   17.98    1.19 
  -3   2   7   17.24    1.24 
  -3   2   7   17.38    1.11 
   3   2  -7   15.16    1.57 
  -2  -2   7   50.83    2.86 
   2  -2  -7   52.88    2.98 
  -2  -2   7   51.29    2.83 
  -2   2   7   50.90    2.79 
  -2   2   7   49.97    2.81 
  -2   2   7   49.47    2.80 
   2   2  -7   49.68    2.58 
   2   2  -7   49.25    3.19 
   2   2  -7   50.28    2.58 
  -1  -2   7   17.93    1.17 
   1  -2  -7   16.16    1.14 
  -1  -2   7   15.88    1.20 
   1  -2  -7   16.99    1.13 
  -1  -2   7   19.41    1.30 
  -1   2   7   17.44    1.15 
   1   2  -7   16.85    1.13 
   1   2  -7   16.61    1.18 
  -1   2   7   17.42    1.17 
  -1   2   7   18.18    1.15 
   1   2  -7   15.67    1.29 
   0  -2   7   26.86    1.63 
   0  -2  -7   26.28    1.59 
   0  -2  -7   24.55    1.60 
   0  -2   7   25.63    1.59 
   0   2  -7   24.70    1.62 
   0   2  -7   26.76    1.67 
   0   2   7   26.27    1.66 
   0   2  -7   26.96    1.59 
   0   2  -7   25.40    1.62 
  -1  -2  -7   80.21    4.52 
   1  -2   7   79.01    4.31 
  -1  -2  -7   82.96    4.39 
  -1   2  -7   80.99    4.34 
   1   2   7   83.02    4.46 
  -1   2  -7   78.62    4.29 
   1   2   7   77.68    4.40 
  -1   2  -7   78.98    4.51 
  -2  -2  -7    4.14    0.70 
  -2  -2  -7    4.97    0.61 
   2  -2   7    5.74    0.58 
   2   2   7    5.49    0.84 
   2   2   7    6.70    0.72 
   2   2   7    3.86    0.62 
  -2   2  -7    4.30    0.66 
   2   2   7    5.27    0.68 
  -3  -2  -7    3.30    0.44 
   3  -2   7    3.20    0.58 
  -3  -2  -7    2.18    0.51 
   3  -2   7    2.10    0.47 
  -3  -2  -7    2.09    0.62 
   3  -2   7    2.34    0.42 
   3   2   7    4.06    0.85 
   3   2   7    3.30    0.55 
  -3   2  -7    2.06    0.65 
  -3   2  -7    2.34    0.42 
   3   2   7    2.25    0.53 
  -4  -2  -7    1.27    0.56 
  -4  -2  -7    1.57    0.42 
   4  -2   7    1.08    0.58 
  -4  -2  -7    0.87    0.46 
   4   2   7    0.96    0.67 
  -4   2  -7    1.83    0.76 
   4   2   7    1.60    0.45 
  -4   2  -7    1.66    0.41 
  -5  -2  -7    3.66    1.01 
  -5  -2  -7    4.22    0.73 
  -5   2  -7    4.12    0.65 
   5   2   7    3.59    1.09 
  -5   2  -7    3.21    0.96 
  -6  -2  -7   -0.04    0.44 
  -6   2  -7    1.99    0.92 
  -6   2  -7   -0.10    0.35 
  -6  -3   7    0.08    0.34 
  -6  -3   7    0.49    0.81 
   6   3  -7    0.81    1.11 
  -6   3   7    0.06    0.23 
  -5  -3   7    2.13    1.00 
  -5  -3   7    0.96    0.39 
   5  -3  -7    0.89    0.70 
   5   3  -7    0.34    0.92 
  -5   3   7    0.64    0.26 
  -4  -3   7    8.35    0.83 
   4  -3  -7    7.58    1.09 
  -4  -3   7   11.05    0.86 
  -4  -3   7    9.36    1.37 
  -4   3   7    8.85    0.71 
   4   3  -7    6.89    1.37 
  -4   3   7    8.77    0.85 
  -3  -3   7    4.80    0.90 
  -3  -3   7    3.98    0.53 
  -3  -3   7    2.99    0.51 
   3  -3  -7    4.07    0.71 
  -3   3   7    3.36    0.47 
   3   3  -7    2.43    0.86 
  -3   3   7    3.22    0.43 
  -2  -3   7   16.08    1.25 
  -2  -3   7   19.56    1.28 
  -2  -3   7   18.20    1.54 
   2  -3  -7   16.30    1.24 
   2   3  -7   18.30    1.09 
   2   3  -7   19.30    1.65 
  -2   3   7   21.19    1.25 
   2   3  -7   17.15    1.07 
   2   3  -7   18.84    1.05 
   1  -3  -7   70.62    3.75 
  -1  -3   7   65.28    3.80 
  -1  -3   7   69.10    3.85 
  -1  -3   7   71.33    4.07 
  -1  -3   7   68.65    3.96 
   1  -3  -7   70.91    3.85 
  -1  -3   7   72.14    3.92 
   1   3  -7   71.01    4.06 
   1   3  -7   69.11    3.81 
  -1   3   7   70.29    3.83 
   1   3  -7   78.87    4.14 
  -1   3   7   64.08    3.83 
   0  -3  -7    3.28    0.47 
   0  -3   7    3.76    0.54 
   0  -3   7    4.16    0.49 
   0  -3   7    4.33    0.60 
   0  -3  -7    2.78    0.47 
   0  -3   7    3.76    0.44 
   0   3  -7    3.38    0.51 
   0   3   7    3.88    0.49 
   0   3  -7    4.54    0.54 
   0   3  -7    4.36    0.51 
   0   3   7    4.01    0.52 
   0   3  -7    3.81    0.48 
  -1  -3  -7    4.63    0.58 
  -1  -3  -7    2.34    0.46 
  -1   3  -7    4.25    0.53 
  -1   3  -7    5.74    0.57 
  -2  -3  -7    2.99    0.52 
   2  -3   7    1.72    0.28 
   2  -3   7    1.95    0.45 
  -2  -3  -7    2.60    0.49 
   2   3   7    2.57    0.55 
  -2   3  -7    2.20    0.40 
   2   3   7    1.76    0.52 
   2   3   7    1.79    0.53 
  -2   3  -7    1.96    0.54 
   2   3   7    2.13    0.70 
  -3  -3  -7   27.28    1.73 
  -3  -3  -7   24.89    1.77 
   3   3   7   25.00    2.16 
  -3   3  -7   24.95    1.95 
  -3   3  -7   26.31    1.67 
   3   3   7   23.73    1.79 
   3   3   7   24.66    1.71 
  -4  -3  -7    9.38    1.01 
   4  -3   7    9.50    1.09 
  -4  -3  -7    9.30    0.93 
  -4  -3  -7    9.83    0.67 
   4   3   7    7.01    1.28 
   4   3   7   10.44    1.01 
  -4   3  -7    8.83    1.24 
  -4   3  -7    9.21    0.89 
  -5  -3  -7    2.29    0.67 
  -5   3  -7    2.67    0.92 
  -5   3  -7    2.52    0.56 
  -6  -3  -7    0.80    0.51 
  -6   3  -7    1.00    0.47 
  -6   3  -7    0.98    0.80 
  -6  -4   7    2.62    1.27 
  -6  -4   7    0.60    0.43 
   6   4  -7    0.27    1.09 
  -6   4   7    0.75    0.36 
   5  -4  -7   16.80    1.60 
  -5  -4   7   16.77    1.32 
  -5  -4   7   12.68    1.74 
  -5   4   7   14.91    1.13 
   5   4  -7   18.02    2.10 
  -4  -4   7    3.01    0.57 
  -4  -4   7    3.92    0.91 
   4  -4  -7    2.63    0.70 
  -4  -4   7    1.63    0.49 
   4   4  -7    2.95    1.07 
  -4   4   7    2.75    0.49 
  -4   4   7    2.16    0.45 
  -3  -4   7    0.10    0.40 
  -3  -4   7   -0.10    0.26 
  -3  -4   7    0.08    0.31 
  -3  -4   7   -0.34    0.28 
   3  -4  -7   -0.05    0.32 
   3   4  -7   -0.19    0.33 
  -3   4   7   -0.21    0.15 
  -3   4   7   -0.05    0.20 
   2  -4  -7    1.65    0.25 
  -2  -4   7    0.94    0.39 
   2  -4  -7    0.96    0.18 
  -2  -4   7    2.33    0.49 
  -2  -4   7    0.96    0.50 
   2  -4  -7    1.37    0.35 
  -2  -4   7    1.48    0.53 
   2   4  -7    1.73    0.34 
   2   4  -7    0.80    0.47 
  -2   4   7    1.67    0.39 
   1  -4  -7    7.78    0.61 
  -1  -4   7    9.60    0.97 
  -1  -4   7    8.47    0.79 
  -1  -4   7    8.34    0.82 
   1  -4  -7    7.84    0.75 
  -1  -4   7    7.95    0.75 
   1   4  -7    7.28    0.93 
  -1   4   7    8.59    0.77 
  -1   4   7    7.17    0.77 
   1   4  -7    8.19    0.78 
   0  -4  -7    1.14    0.37 
   0  -4   7    1.27    0.37 
   0  -4  -7    1.69    0.40 
   0  -4   7    0.91    0.43 
   0  -4   7    1.41    0.32 
   0  -4   7    1.09    0.48 
   0   4  -7    1.25    0.36 
   0   4  -7    1.47    0.42 
   0   4   7    0.87    0.38 
   0   4   7    1.53    0.46 
   0   4   7    1.60    0.37 
   0   4  -7    1.22    0.37 
   0   4  -7    0.93    0.37 
   1  -4   7   32.01    2.17 
  -1  -4  -7   37.44    2.27 
   1  -4   7   36.34    2.15 
  -1  -4  -7   34.08    2.20 
  -1   4  -7   37.03    2.25 
   1   4   7   34.61    2.34 
   1   4   7   37.24    2.54 
  -1   4  -7   36.55    2.16 
   1   4   7   36.86    2.37 
  -1   4  -7   40.64    2.27 
   1   4   7   35.71    2.38 
  -1   4  -7   37.25    2.19 
   2  -4   7    2.69    0.37 
  -2  -4  -7    2.24    0.51 
  -2  -4  -7    2.06    0.47 
  -2  -4  -7    1.97    0.52 
   2   4   7    2.97    0.63 
   2   4   7    2.78    0.66 
  -2   4  -7    2.22    0.44 
   2   4   7    1.77    0.59 
   2   4   7    1.64    0.60 
  -3  -4  -7    0.84    0.40 
  -3  -4  -7    1.55    0.50 
  -3  -4  -7    0.71    0.35 
  -3   4  -7    1.66    0.42 
  -3   4  -7    1.18    0.61 
   3   4   7    1.38    0.60 
   3   4   7    0.58    0.42 
   3   4   7    1.06    0.75 
  -4  -4  -7    0.14    0.36 
   4  -4   7    0.96    0.48 
  -4  -4  -7    0.02    0.41 
  -4  -4  -7    0.34    0.42 
   4   4   7    0.55    0.63 
  -4   4  -7    0.12    0.55 
  -4   4  -7   -0.02    0.31 
  -5  -4  -7    6.86    0.96 
  -5   4  -7    9.90    1.37 
  -5   4  -7    7.35    0.85 
  -6  -4  -7   -0.12    0.45 
  -6   4  -7   -0.48    0.62 
  -6   4  -7    0.71    0.46 
  -6  -5   7    1.53    0.57 
  -6  -5   7   -0.57    0.64 
   6   5  -7    0.33    0.86 
  -6   5   7    0.70    0.43 
  -5  -5   7   -0.29    0.35 
  -5  -5   7    0.12    0.84 
   5   5  -7    0.43    0.73 
  -5   5   7   -0.23    0.28 
  -4  -5   7    1.66    0.77 
   4  -5  -7    1.06    0.51 
  -4  -5   7    2.71    0.79 
  -4  -5   7    0.84    0.70 
  -4  -5   7    1.26    0.51 
  -4   5   7    0.94    0.39 
  -4   5   7    1.50    0.43 
   4   5  -7    2.84    1.13 
  -3  -5   7   -0.19    0.29 
  -3  -5   7    0.44    0.41 
  -3  -5   7    0.35    0.66 
  -3  -5   7    0.09    0.32 
   3  -5  -7    0.34    0.32 
  -3   5   7    0.57    0.39 
  -3   5   7   -0.09    0.26 
   3   5  -7   -0.04    0.61 
  -2  -5   7   80.07    4.08 
   2  -5  -7   72.62    3.78 
  -2  -5   7   67.12    4.06 
  -2  -5   7   72.99    4.45 
   2  -5  -7   70.95    3.85 
  -2  -5   7   69.86    4.21 
  -2   5   7   64.21    4.04 
   2   5  -7   67.67    4.41 
   2   5  -7   75.46    3.90 
  -2   5   7   68.24    4.03 
  -1  -5   7    0.30    0.46 
  -1  -5   7   -0.35    0.24 
  -1  -5   7   -0.06    0.22 
   1  -5  -7   -0.33    0.25 
  -1  -5   7   -0.15    0.26 
  -1   5   7   -0.06    0.32 
   1   5  -7    0.14    0.28 
  -1   5   7   -0.02    0.26 
   1   5  -7    0.01    0.30 
  -1   5   7   -0.12    0.28 
   0  -5  -7   33.00    2.07 
   0  -5   7   33.99    2.07 
   0  -5   7   29.51    2.18 
   0  -5  -7   37.51    2.14 
   0  -5   7   31.89    2.01 
   0   5   7   32.69    2.23 
   0   5   7   30.75    2.16 
   0   5   7   30.30    2.01 
   0   5   7   31.57    2.29 
   0   5  -7   32.31    2.07 
   0   5  -7   33.77    2.14 
   0   5  -7   33.29    2.13 
   0   5  -7   34.24    2.14 
   1  -5   7    0.05    0.34 
   1  -5   7    0.28    0.25 
  -1  -5  -7    0.14    0.28 
  -1  -5  -7   -0.11    0.28 
  -1  -5  -7    0.19    0.29 
   1   5   7    0.23    0.50 
  -1   5  -7    0.23    0.29 
  -1   5  -7    0.06    0.20 
  -1   5  -7   -0.03    0.29 
  -1   5  -7    0.02    0.24 
   1   5   7   -0.10    0.37 
   1   5   7    0.07    0.41 
  -2  -5  -7   29.21    1.95 
  -2  -5  -7   29.53    1.97 
   2  -5   7   28.01    1.67 
  -2  -5  -7   24.95    1.78 
   2   5   7   26.74    2.00 
   2   5   7   19.91    2.05 
   2   5   7   29.23    2.02 
  -2   5  -7   26.35    1.71 
  -2   5  -7   30.06    1.86 
  -3  -5  -7   -0.32    0.25 
  -3  -5  -7   -0.64    0.26 
  -3  -5  -7   -0.43    0.36 
   3   5   7    0.49    0.53 
  -3   5  -7   -0.04    0.26 
   3   5   7   -0.01    0.42 
  -4  -5  -7    1.19    0.55 
  -4  -5  -7    1.86    0.61 
   4  -5   7    1.00    0.48 
  -4   5  -7    2.33    0.54 
  -4   5  -7    1.42    0.77 
   4   5   7    1.43    0.98 
  -5  -5  -7    0.15    0.47 
  -5   5  -7    0.53    0.64 
  -5   5  -7   -0.21    0.34 
  -6  -5  -7    3.18    0.82 
  -6   5  -7    3.12    1.07 
  -6   5  -7    2.27    0.65 
  -6  -6   7    1.46    1.29 
  -6  -6   7    1.29    0.62 
  -6   6   7    0.86    0.55 
   6   6  -7    2.13    1.18 
  -5  -6   7    1.01    1.05 
  -5  -6   7    1.19    0.57 
   5   6  -7   -0.19    0.64 
  -5   6   7   -0.18    0.43 
  -5   6   7    0.16    0.43 
  -4  -6   7    1.01    0.71 
  -4  -6   7    0.78    0.53 
   4  -6  -7    1.18    0.41 
   4   6  -7    1.97    0.97 
  -4   6   7    1.81    0.48 
  -4   6   7    1.16    0.51 
  -3  -6   7    4.19    0.72 
   3  -6  -7    4.22    0.54 
  -3  -6   7    5.88    1.03 
  -3  -6   7    4.45    0.86 
  -3  -6   7    4.05    0.70 
  -3   6   7    3.07    0.65 
   3   6  -7    3.30    0.98 
  -3   6   7    3.73    0.65 
  -2  -6   7    1.83    0.51 
   2  -6  -7    2.59    0.35 
  -2  -6   7    2.08    0.57 
  -2  -6   7    2.42    0.55 
  -2  -6   7    1.93    0.82 
   2  -6  -7    1.69    0.37 
   2   6  -7    1.46    0.40 
  -2   6   7    1.50    0.51 
   2   6  -7    0.87    0.55 
  -2   6   7    1.24    0.46 
  -1  -6   7   13.19    1.12 
  -1  -6   7   12.10    1.14 
  -1  -6   7   11.44    1.04 
   1  -6  -7   11.95    1.05 
  -1  -6   7   12.97    1.36 
  -1   6   7   14.79    1.12 
   1   6  -7    9.62    1.15 
  -1   6   7   13.56    1.18 
  -1   6   7   11.10    1.18 
  -1   6   7   11.11    1.16 
   1   6  -7   12.51    1.09 
   1   6  -7   11.83    1.13 
   0  -6   7   13.95    1.29 
   0  -6   7   11.55    1.08 
   0  -6  -7   15.80    1.24 
   0  -6  -7   14.75    1.20 
   0  -6   7   16.41    1.21 
   0   6   7   15.05    1.35 
   0   6  -7   15.59    1.24 
   0   6  -7   14.37    1.27 
   0   6  -7   16.31    1.23 
   0   6   7   14.21    1.15 
   0   6   7   11.93    1.36 
   0   6   7   12.92    1.30 
   0   6  -7   15.35    1.22 
   1  -6   7    6.09    0.80 
  -1  -6  -7    6.32    0.82 
   1  -6   7    7.31    0.69 
  -1  -6  -7    7.23    0.90 
  -1  -6  -7    6.68    0.80 
  -1   6  -7    7.86    0.78 
  -1   6  -7    5.91    0.76 
  -1   6  -7    6.07    0.77 
  -1   6  -7    8.60    0.78 
   1   6   7    7.57    1.05 
   1   6   7    6.32    0.85 
  -1   6  -7    7.01    0.84 
   1   6   7    7.46    0.98 
   1   6   7    7.22    0.75 
  -2  -6  -7   16.73    1.29 
  -2  -6  -7   14.96    1.36 
  -2  -6  -7   18.38    1.60 
  -2  -6  -7   16.49    1.40 
   2  -6   7   14.38    1.14 
  -2   6  -7   15.98    1.16 
   2   6   7   14.97    0.97 
   2   6   7   20.26    1.58 
   2   6   7   12.69    1.54 
   2   6   7   14.79    1.47 
  -2   6  -7   14.16    1.26 
  -3  -6  -7    4.37    0.67 
  -3  -6  -7    4.33    0.95 
  -3  -6  -7    3.75    0.76 
  -3  -6  -7    3.69    0.78 
  -3   6  -7    4.47    0.68 
   3   6   7    3.45    0.79 
   3   6   7    4.07    1.19 
  -4  -6  -7    0.33    0.56 
  -4  -6  -7    0.47    0.55 
   4   6   7    0.37    0.80 
  -4   6  -7    0.26    0.41 
  -4   6  -7    0.75    0.70 
  -5  -6  -7    0.23    0.52 
  -5  -6  -7    2.32    0.84 
  -5   6  -7    0.25    0.48 
  -5   6  -7    0.95    0.50 
  -6  -6  -7   -0.68    0.65 
  -6   6  -7    0.52    0.52 
  -6   6  -7   -0.05    0.77 
  -6  -7   7    1.56    1.04 
  -6  -7   7    0.83    0.61 
   6   7  -7    0.96    1.05 
  -6   7   7    0.88    0.62 
  -5  -7   7    0.79    1.01 
  -5  -7   7    1.18    0.60 
  -5   7   7    1.08    0.56 
   5   7  -7    2.53    1.19 
  -5   7   7    1.16    0.66 
  -4  -7   7    5.03    0.87 
  -4  -7   7    5.80    1.23 
   4   7  -7    6.10    1.31 
  -4   7   7    4.42    0.84 
  -4   7   7    4.73    0.87 
  -3  -7   7    0.25    0.43 
  -3  -7   7    0.32    0.47 
  -3  -7   7    1.39    0.64 
  -3  -7   7    0.45    0.58 
   3  -7  -7    0.27    0.19 
  -3   7   7    0.39    0.45 
  -3   7   7    0.43    0.52 
   3   7  -7    0.37    0.58 
  -3   7   7    0.33    0.39 
   2  -7  -7   15.53    1.13 
  -2  -7   7   14.64    1.35 
  -2  -7   7   16.57    1.49 
  -2  -7   7   15.59    1.33 
   2  -7  -7   17.76    1.01 
  -2  -7   7   13.06    1.54 
   2   7  -7   17.12    1.24 
  -2   7   7   13.45    1.34 
  -2   7   7   15.04    1.41 
  -2   7   7   14.14    1.35 
   2   7  -7   14.20    1.58 
  -1  -7   7   18.47    1.72 
  -1  -7   7   21.34    1.58 
  -1  -7   7   19.46    1.49 
   1  -7  -7   17.53    1.44 
  -1  -7   7   18.53    1.57 
  -1   7   7   20.23    1.65 
   1   7  -7   21.30    1.53 
  -1   7   7   18.24    1.63 
  -1   7   7   18.28    1.66 
   1   7  -7   20.10    1.56 
   1   7  -7   18.19    1.71 
   0  -7   7    0.08    0.34 
   0  -7  -7    0.18    0.38 
   0  -7   7    0.61    0.31 
   0  -7  -7    0.46    0.33 
   0  -7   7    0.15    0.32 
   0   7  -7    0.78    0.45 
   0   7  -7    0.00    0.37 
   0   7   7   -0.07    0.45 
   0   7   7    0.73    0.55 
   0   7   7    0.39    0.35 
   0   7  -7    0.17    0.39 
   0   7   7   -0.04    0.38 
   0   7  -7    0.30    0.39 
  -1  -7  -7    0.57    0.49 
   1  -7   7    1.06    0.35 
   1  -7   7    2.14    0.60 
  -1  -7  -7    1.38    0.54 
  -1  -7  -7    1.26    0.54 
  -1  -7  -7    0.38    0.40 
   1   7   7    1.69    0.67 
   1   7   7    0.84    0.66 
   1   7   7    0.69    0.56 
  -1   7  -7    0.83    0.46 
  -1   7  -7    0.21    0.32 
   1   7   7    0.76    0.35 
  -1   7  -7    0.91    0.43 
  -1   7  -7    0.73    0.47 
  -1   7  -7    0.45    0.39 
   2  -7   7    1.81    0.49 
  -2  -7  -7    1.89    0.55 
  -2  -7  -7    1.67    0.60 
  -2  -7  -7    1.64    0.60 
  -2  -7  -7    1.54    0.61 
   2   7   7    3.07    0.93 
   2   7   7    2.43    0.40 
  -2   7  -7    2.24    0.46 
  -2   7  -7    1.73    0.45 
  -2   7  -7    1.26    0.51 
   2   7   7    1.62    0.73 
  -3  -7  -7   -0.01    0.41 
  -3  -7  -7    0.50    0.42 
  -3  -7  -7    0.56    0.61 
  -3  -7  -7    0.13    0.50 
   3   7   7   -0.70    0.46 
  -3   7  -7    0.29    0.40 
  -3   7  -7   -0.37    0.25 
   3   7   7   -0.52    0.53 
  -4  -7  -7    4.02    1.12 
  -4  -7  -7    4.61    0.95 
  -4  -7  -7    6.32    1.04 
   4   7   7    6.32    1.49 
  -4   7  -7    4.32    0.80 
  -5  -7  -7    0.72    0.70 
  -5  -7  -7    0.68    0.70 
  -5   7  -7    0.74    0.76 
  -5   7  -7    0.67    0.52 
  -6   7  -7   -0.25    0.71 
  -6   7  -7    0.11    0.52 
  -5  -8   7    3.25    0.89 
  -5  -8   7    1.11    1.13 
  -5   8   7    1.39    0.74 
   5   8  -7    4.38    1.72 
  -5   8   7    0.89    0.69 
  -4  -8   7    4.48    1.38 
  -4  -8   7    4.41    0.90 
  -4   8   7    3.88    0.91 
  -4   8   7    4.74    0.93 
   4   8  -7    3.46    1.30 
  -3  -8   7   -0.21    0.58 
  -3  -8   7    0.48    0.50 
  -3  -8   7    0.28    0.52 
  -3  -8   7   -0.06    0.39 
  -3   8   7    0.02    0.47 
   3   8  -7    0.00    0.11 
  -3   8   7   -0.05    0.48 
  -3   8   7   -0.45    0.39 
   3   8  -7    0.62    0.77 
  -2  -8   7    4.01    0.77 
   2  -8  -7    2.79    0.54 
  -2  -8   7    2.25    0.69 
  -2  -8   7    2.39    0.63 
  -2  -8   7    3.02    1.01 
   2  -8  -7    2.75    0.32 
  -2   8   7    2.06    0.68 
   2   8  -7    1.53    0.71 
  -2   8   7    2.76    0.80 
  -2   8   7    3.98    0.80 
   2   8  -7    2.48    0.56 
  -1  -8   7    6.14    0.81 
  -1  -8   7    4.14    1.08 
   1  -8  -7    4.33    0.74 
  -1  -8   7    5.81    0.82 
   1   8  -7    7.60    0.88 
  -1   8   7    6.20    1.03 
  -1   8   7    5.32    0.92 
  -1   8   7    6.86    1.02 
   1   8  -7    6.25    0.86 
   1   8  -7    6.17    1.05 
   0  -8  -7    0.49    0.43 
   0  -8  -7    0.65    0.42 
   0  -8   7    0.26    0.36 
   0  -8  -7    0.22    0.33 
   0  -8   7    0.10    0.37 
   0  -8  -7   -0.11    0.41 
   0  -8  -7    0.48    0.46 
   0  -8   7    0.71    0.58 
   0   8  -7    0.38    0.39 
   0   8  -7    0.28    0.37 
   0   8   7    0.43    0.57 
   0   8  -7    0.16    0.31 
   0   8   7    0.37    0.47 
   0   8   7    0.66    0.45 
   0   8   7    0.07    0.35 
   0   8  -7    0.49    0.47 
  -1  -8  -7    1.87    0.64 
  -1  -8  -7    2.67    0.69 
   1  -8   7    2.40    0.52 
   1  -8   7    1.07    0.62 
  -1  -8  -7    2.00    0.62 
  -1  -8  -7    1.74    0.65 
  -1   8  -7    2.26    0.58 
   1   8   7    0.54    0.69 
   1   8   7    2.00    0.80 
  -1   8  -7    1.82    0.54 
   1   8   7    2.90    0.83 
   1   8   7    3.11    0.59 
  -1   8  -7    3.04    0.70 
  -1   8  -7    1.89    0.59 
  -2  -8  -7    4.76    0.88 
  -2  -8  -7    3.83    0.71 
   2  -8   7    3.89    0.71 
  -2  -8  -7    3.68    0.86 
  -2  -8  -7    4.41    0.87 
   2   8   7    3.08    0.51 
  -2   8  -7    4.48    0.66 
  -2   8  -7    4.84    0.83 
  -2   8  -7    3.42    0.62 
   2   8   7    2.57    1.00 
   2   8   7    2.07    0.76 
  -3  -8  -7    2.53    0.78 
  -3  -8  -7    2.50    0.92 
  -3  -8  -7    1.89    0.76 
  -3  -8  -7    2.09    0.66 
  -3   8  -7    1.06    0.59 
  -3   8  -7    2.16    0.47 
   3   8   7    1.55    0.67 
   3   8   7    1.31    1.06 
  -4  -8  -7    6.03    1.13 
  -4  -8  -7    8.38    1.26 
  -4   8  -7    8.26    1.07 
  -4   8  -7    7.85    0.86 
  -5  -8  -7    7.15    1.23 
  -5   8  -7    6.15    1.03 
  -5   8  -7    5.58    1.14 
  -5  -9   7   -0.31    0.53 
  -5  -9   7   -0.16    1.11 
  -5   9   7    0.40    0.69 
   5   9  -7    0.00    1.18 
  -5   9   7    0.24    0.66 
  -4  -9   7    6.35    1.72 
  -4  -9   7    6.43    1.10 
  -4   9   7    7.35    1.22 
  -4   9   7    8.46    1.24 
   4   9  -7    8.37    1.57 
  -3  -9   7    3.23    0.81 
  -3  -9   7    1.81    0.93 
  -3  -9   7    2.98    1.00 
  -3  -9   7    1.96    0.75 
   3   9  -7    2.40    0.41 
  -3   9   7    0.84    0.65 
  -3   9   7    2.64    0.80 
   3   9  -7    3.49    1.21 
  -3   9   7    2.68    0.86 
  -2  -9   7    9.44    1.16 
   2  -9  -7    9.86    0.60 
  -2  -9   7    8.67    1.05 
  -2  -9   7    9.60    1.50 
  -2  -9   7    9.29    1.10 
   2  -9  -7    7.57    0.68 
   2  -9  -7    7.24    0.84 
   2   9  -7    7.89    1.27 
  -2   9   7    8.14    1.20 
  -2   9   7    9.58    1.24 
  -2   9   7    5.95    1.12 
   2   9  -7    6.95    0.90 
  -1  -9   7   -0.01    0.34 
   1  -9  -7    0.91    0.51 
  -1  -9   7    0.68    0.52 
  -1  -9   7    1.14    0.67 
   1  -9  -7    1.02    0.44 
  -1   9   7    0.68    0.65 
  -1   9   7    1.47    0.72 
   1   9  -7    1.81    0.59 
   1   9  -7    1.20    0.61 
  -1   9   7    1.75    0.63 
   1   9  -7    1.22    0.53 
   0  -9  -7    8.00    1.00 
   0  -9   7    9.97    1.05 
   0  -9  -7    7.95    1.03 
   0  -9   7    8.63    0.89 
   0  -9  -7    8.03    1.03 
   0  -9   7    6.27    1.02 
   0  -9  -7    8.22    1.02 
   0  -9  -7    8.17    1.06 
   0   9  -7    9.22    1.07 
   0   9   7    7.70    0.97 
   0   9   7    6.13    1.08 
   0   9  -7    7.41    1.09 
   0   9  -7    8.10    1.05 
   0   9   7    8.56    1.12 
   0   9   7    6.78    1.17 
   0   9  -7    8.68    0.98 
  -1  -9  -7    7.51    1.14 
   1  -9   7    9.93    1.17 
  -1  -9  -7    8.13    1.07 
  -1  -9  -7    6.40    1.04 
  -1  -9  -7    9.19    1.16 
   1  -9   7   11.93    1.04 
   1   9   7    9.71    1.32 
   1   9   7    8.95    0.96 
  -1   9  -7    9.71    1.17 
   1   9   7    7.81    1.40 
  -1   9  -7    8.87    1.03 
  -1   9  -7    8.53    1.05 
   1   9   7    6.65    1.19 
  -2  -9  -7    1.37    0.78 
  -2  -9  -7    0.40    0.41 
   2  -9   7    0.41    0.42 
  -2  -9  -7    0.98    0.58 
  -2  -9  -7    0.95    0.69 
   2   9   7    0.10    0.59 
  -2   9  -7    0.03    0.31 
   2   9   7   -0.21    0.50 
  -2   9  -7    0.92    0.54 
   2   9   7    0.80    0.38 
  -3  -9  -7    0.57    0.63 
   3  -9   7    0.69    0.36 
  -3  -9  -7   -0.37    0.53 
  -3  -9  -7    0.30    0.42 
  -3   9  -7    0.33    0.39 
   3   9   7   -0.53    0.81 
  -3   9  -7    0.15    0.48 
   3   9   7    0.44    0.64 
  -4  -9  -7    4.79    1.18 
  -4   9  -7    3.66    0.93 
  -4   9  -7    2.90    0.62 
  -5  -9  -7    0.61    0.80 
  -5   9  -7    0.68    0.67 
  -5 -10   7    1.41    1.27 
  -5 -10   7    1.38    0.77 
   5  10  -7    0.31    0.99 
  -5  10   7    0.52    0.81 
  -5  10   7    0.30    0.77 
  -4 -10   7    7.52    1.20 
  -4 -10   7    6.31    1.45 
  -4  10   7    6.70    1.18 
  -4  10   7    5.06    1.15 
   4  10  -7    8.06    1.80 
  -3 -10   7    3.48    1.18 
  -3 -10   7    2.89    0.88 
  -3  10   7    3.95    1.04 
   3  10  -7    3.42    0.54 
   3  10  -7    3.10    1.16 
  -3  10   7    2.94    0.99 
  -3  10   7    4.07    0.96 
  -2 -10   7    4.18    0.82 
   2 -10  -7    3.68    0.43 
   2 -10  -7    4.32    0.35 
  -2 -10   7    5.57    0.95 
   2 -10  -7    3.33    0.72 
  -2 -10   7    1.96    1.08 
   2  10  -7    3.35    1.18 
  -2  10   7    2.90    0.89 
   2  10  -7    4.59    0.96 
  -2  10   7    3.85    0.85 
  -2  10   7    2.98    0.88 
   2  10  -7    2.90    0.72 
  -1 -10   7    0.81    0.56 
  -1 -10   7    0.70    0.50 
   1 -10  -7    1.16    0.54 
   1 -10  -7    2.20    0.72 
   1 -10  -7    1.19    0.51 
  -1 -10   7    0.29    0.60 
   1  10  -7   -0.05    0.48 
   1  10  -7    1.40    0.81 
  -1  10   7    0.53    0.56 
  -1  10   7    0.89    0.70 
  -1  10   7    0.21    0.63 
   1  10  -7    0.97    0.58 
   0 -10  -7    0.80    0.55 
   0 -10   7    0.40    0.45 
   0 -10  -7    1.16    0.56 
   0 -10  -7    0.84    0.59 
   0 -10   7    1.22    0.48 
   0 -10   7    0.22    0.45 
   0 -10  -7    0.50    0.56 
   0  10   7    1.33    0.51 
   0  10  -7    0.67    0.48 
   0  10   7    2.13    0.85 
   0  10  -7    0.84    0.60 
   0  10   7    1.38    0.68 
   0  10  -7    1.35    0.60 
   0  10   7    1.11    0.65 
   0  10  -7    0.82    0.52 
  -1 -10  -7   -0.35    0.39 
  -1 -10  -7    0.18    0.44 
  -1 -10  -7    0.20    0.56 
  -1 -10  -7    0.04    0.42 
   1 -10   7   -0.19    0.32 
   1 -10   7   -0.26    0.47 
   1  10   7    0.24    0.54 
  -1  10  -7    0.18    0.52 
  -1  10  -7    0.12    0.39 
  -1  10  -7   -0.16    0.41 
   1  10   7    0.85    0.72 
   1  10   7   -0.46    0.34 
  -2 -10  -7    6.83    1.14 
  -2 -10  -7    6.33    1.13 
  -2 -10  -7    4.00    0.98 
   2 -10   7    5.74    0.88 
  -2 -10  -7    4.50    0.91 
   2  10   7    8.19    1.30 
   2  10   7    5.91    0.77 
  -2  10  -7    4.29    0.96 
   2  10   7    4.62    0.76 
   2  10   7    3.45    1.14 
  -2  10  -7    4.77    0.78 
   3 -10   7    3.69    0.68 
  -3 -10  -7    3.56    0.94 
  -3 -10  -7    4.83    1.09 
   3  10   7    4.58    1.37 
   3  10   7    4.62    1.03 
  -3  10  -7    3.23    0.63 
  -3  10  -7    4.25    0.95 
  -4 -10  -7   -0.06    0.69 
  -4  10  -7    0.31    0.46 
  -5 -10  -7    2.41    1.06 
  -5 -11   7    1.78    1.40 
  -5 -11   7    1.77    0.86 
   5  11  -7    0.91    1.55 
  -5  11   7    1.54    1.10 
  -4 -11   7   -0.54    1.04 
  -4 -11   7    0.43    0.70 
   4  11  -7   -0.35    0.69 
  -4  11   7    0.63    0.90 
  -4  11   7    1.03    0.87 
  -3 -11   7   10.15    1.84 
  -3 -11   7   10.74    1.42 
   3  11  -7   12.26    1.02 
   3  11  -7   12.39    1.82 
  -3  11   7   12.81    1.60 
  -3  11   7    9.44    1.52 
  -2 -11   7    5.06    1.19 
   2 -11  -7    3.39    0.70 
  -2 -11   7    6.64    1.02 
  -2 -11   7    2.29    0.76 
   2 -11  -7    3.79    0.31 
   2  11  -7    3.63    0.84 
  -2  11   7    4.89    1.16 
   2  11  -7    3.47    0.80 
  -2  11   7    3.71    1.11 
  -2  11   7    4.05    1.16 
   2  11  -7    2.69    1.13 
   1 -11  -7    0.95    0.48 
   1 -11  -7    0.36    0.50 
  -1 -11   7    0.09    0.53 
  -1 -11   7   -0.31    0.47 
   1 -11  -7   -0.46    0.47 
  -1 -11   7    0.14    0.40 
   1  11  -7    0.29    0.53 
  -1  11   7    0.81    0.75 
   1  11  -7    0.28    0.70 
  -1  11   7   -0.02    0.54 
   1  11  -7    0.69    0.53 
  -1  11   7   -0.73    0.50 
   0 -11   7   -0.15    0.66 
   0 -11  -7    0.81    0.59 
   0 -11  -7    1.35    0.73 
   0 -11   7    0.68    0.55 
   0 -11  -7    0.03    0.43 
   0 -11   7    1.23    0.51 
   0  11   7    0.67    0.76 
   0  11  -7    1.25    0.60 
   0  11   7    0.01    0.54 
   0  11   7    0.18    0.58 
   0  11  -7    1.04    0.65 
   0  11  -7    1.16    0.71 
   0  11  -7    1.26    0.59 
  -1 -11  -7    0.16    0.51 
   1 -11   7    1.22    0.57 
   1 -11   7    0.64    0.48 
  -1 -11  -7    1.60    0.80 
  -1 -11  -7    1.22    0.61 
   1 -11   7    1.28    0.75 
  -1 -11  -7    0.95    0.65 
  -1  11  -7    3.10    0.91 
   1  11   7    0.77    0.75 
  -1  11  -7    1.02    0.59 
   1  11   7    0.96    0.55 
   1  11   7   -0.16    0.83 
  -1  11  -7    1.21    0.76 
  -2 -11  -7    0.45    0.60 
   2 -11   7    0.47    0.54 
  -2 -11  -7   -0.41    0.60 
   2  11   7    0.07    0.52 
   2  11   7   -0.99    0.66 
   2  11   7    0.62    0.39 
  -2  11  -7    0.32    0.43 
   2  11   7   -0.11    0.68 
  -3 -11  -7    2.26    0.96 
   3 -11   7    1.95    0.62 
  -3 -11  -7    1.77    0.88 
  -3  11  -7    1.10    0.52 
   3  11   7    1.92    0.89 
  -4 -11  -7   -0.49    0.67 
  -5 -11  -7    4.94    1.40 
  -5 -12   7    0.81    0.91 
  -5  12   7    2.11    1.19 
   5  12  -7    1.34    1.22 
  -4 -12   7    2.19    0.95 
  -4 -12   7    2.11    1.12 
   4  12  -7    1.84    1.39 
  -4  12   7    0.27    1.01 
  -3 -12   7    1.81    0.87 
  -3 -12   7    1.76    1.06 
  -3  12   7    1.66    0.97 
  -3  12   7    1.18    0.96 
   3  12  -7    0.45    1.02 
  -2 -12   7    7.92    1.17 
   2 -12  -7    5.81    0.90 
  -2 -12   7    6.82    1.07 
  -2  12   7    7.45    1.26 
  -2  12   7    5.80    1.38 
   2  12  -7    5.65    1.12 
   2  12  -7    4.87    1.43 
   1 -12  -7    8.81    1.61 
  -1 -12   7    8.89    1.25 
   1 -12  -7    8.75    1.17 
  -1 -12   7    8.12    1.24 
  -1 -12   7    9.86    1.62 
   1 -12  -7    8.63    1.26 
   1  12  -7    8.23    1.36 
  -1  12   7   10.54    1.47 
   1  12  -7   10.94    1.37 
  -1  12   7   12.27    1.70 
   1  12  -7   10.52    1.30 
   0 -12  -7    0.04    0.43 
   0 -12  -7    0.55    0.57 
   0 -12   7   -0.01    0.52 
   0 -12  -7   -0.28    0.45 
   0 -12   7    0.38    0.52 
   0 -12   7   -0.27    0.75 
   0  12   7    0.58    0.89 
   0  12  -7    0.32    0.59 
   0  12  -7    0.40    0.49 
   0  12  -7   -1.14    0.45 
   0  12   7   -1.33    0.65 
  -1 -12  -7   41.19    2.91 
  -1 -12  -7   35.43    2.90 
   1 -12   7   36.24    2.54 
   1 -12   7   36.40    2.90 
   1  12   7   40.77    3.50 
   1  12   7   38.46    3.13 
  -1  12  -7   40.32    2.98 
   1  12   7   39.09    2.65 
  -1  12  -7   36.33    2.78 
  -2 -12  -7   18.75    2.13 
   2 -12   7   25.03    2.06 
  -2 -12  -7   24.44    2.15 
  -2  12  -7   20.26    1.89 
   2  12   7   25.95    1.84 
   2  12   7   24.05    2.33 
  -3 -12  -7   -0.35    0.44 
   3 -12   7    1.10    0.56 
  -3  12  -7    0.75    0.54 
   3  12   7    0.85    0.86 
  -4 -12  -7   -0.23    0.78 
  -4 -13   7   -0.33    0.72 
  -4 -13   7    0.80    1.26 
   4  13  -7   -0.39    1.22 
  -4  13   7   -1.00    0.76 
   3 -13  -7    1.27    0.37 
  -3 -13   7    2.62    1.35 
  -3 -13   7    1.99    0.90 
   3  13  -7    0.74    1.17 
  -3  13   7    2.37    1.13 
  -2 -13   7    2.35    1.28 
   2 -13  -7    3.68    0.84 
  -2 -13   7    2.88    0.91 
  -2 -13   7    2.61    0.94 
   2  13  -7    3.55    1.35 
   2  13  -7    2.38    0.83 
  -2  13   7    1.05    0.98 
   1 -13  -7    1.69    0.78 
  -1 -13   7    0.07    0.60 
  -1 -13   7    0.63    0.71 
   1 -13  -7    0.50    0.60 
  -1 -13   7    1.28    0.69 
   1  13  -7    1.88    0.72 
   1  13  -7    1.87    0.98 
  -1  13   7    0.39    0.79 
   0 -13  -7    0.89    0.79 
   0 -13   7   -0.05    0.54 
   0 -13   7    0.40    0.57 
   0 -13  -7    0.79    0.69 
   0  13  -7    0.86    0.61 
   0  13   7    0.96    0.98 
   0  13  -7    0.56    0.73 
   1 -13   7    8.35    1.37 
  -1 -13  -7    7.09    1.21 
  -1 -13  -7    5.73    1.18 
   1 -13   7    7.83    1.01 
   1  13   7    4.46    1.41 
  -1  13  -7    7.12    1.20 
  -1  13  -7    7.66    1.22 
   2 -13   7    1.70    0.87 
  -2 -13  -7    5.25    1.13 
  -2 -13  -7    3.85    1.23 
   2  13   7    4.41    1.25 
   2  13   7    3.15    0.76 
  -2  13  -7    2.52    0.83 
   3 -13   7   12.36    1.50 
  -3 -13  -7    9.12    1.62 
   3  13   7   11.03    1.60 
  -4 -13  -7    6.39    1.48 
  -4 -14   7    1.45    1.12 
  -4 -14   7    0.50    0.77 
   4  14  -7    1.07    1.18 
  -4  14   7   -0.08    0.99 
   3 -14  -7   -0.36    0.36 
  -3 -14   7   -0.33    0.70 
  -3 -14   7    0.76    0.64 
  -3  14   7   -0.35    0.84 
   3  14  -7    0.27    1.08 
  -2 -14   7    0.96    0.89 
  -2 -14   7    1.93    0.89 
   2 -14  -7    0.86    0.65 
  -2  14   7    0.38    0.97 
   2  14  -7    1.08    1.18 
  -1 -14   7    1.13    1.07 
   1 -14  -7    1.54    0.75 
  -1 -14   7    1.90    0.76 
  -1  14   7    0.59    0.96 
   1  14  -7    1.91    0.90 
   0 -14   7    0.50    0.59 
   0 -14  -7   -0.43    0.65 
   0 -14   7    0.41    0.81 
   0 -14  -7    0.31    0.58 
   0  14  -7   -0.26    0.70 
   0  14   7    1.29    1.08 
   1 -14   7    1.78    0.96 
  -1 -14  -7    0.65    0.71 
   1 -14   7    0.91    0.60 
  -1 -14  -7    0.12    0.62 
   1  14   7    1.56    0.92 
  -1  14  -7    0.56    0.71 
   2 -14   7    2.10    0.97 
  -2 -14  -7    2.09    0.98 
  -2 -14  -7    1.95    0.89 
   2  14   7    2.49    1.15 
   2  14   7    3.92    0.92 
  -2  14  -7    1.87    0.77 
  -3 -14  -7    1.08    0.99 
   3  14   7   -0.71    0.84 
  -4 -14  -7    3.99    1.27 
  -3 -15   7   -0.99    1.00 
   3 -15  -7    0.37    0.40 
  -3  15   7    0.59    1.09 
   3  15  -7    0.46    0.78 
   2 -15  -7    0.22    0.61 
  -2 -15   7   -0.18    1.04 
   2  15  -7    1.75    1.24 
  -2  15   7    0.21    0.94 
  -1 -15   7    1.01    0.78 
   1 -15  -7    0.23    0.62 
  -1 -15   7    1.44    0.93 
   1  15  -7    2.55    1.21 
  -1  15   7    0.15    0.94 
   0 -15   7    6.37    1.49 
   0 -15  -7    5.44    1.14 
   0 -15   7    6.06    1.11 
   0 -15  -7    6.94    1.27 
   0  15  -7    6.41    1.43 
   0  15   7    6.52    1.72 
  -1 -15  -7    8.94    1.45 
   1 -15   7    9.99    1.23 
   1 -15   7    9.14    1.58 
  -1 -15  -7    7.00    1.39 
   1  15   7    9.01    1.79 
  -1  15  -7    7.81    1.39 
   2 -15   7    5.93    1.37 
  -2 -15  -7    5.87    1.43 
  -2 -15  -7    7.55    1.59 
   2  15   7    4.69    1.43 
   2  15   7    4.35    0.95 
  -3 -15  -7   -0.03    0.64 
   3  15   7    0.18    1.00 
  -3 -16   7   -0.03    1.18 
   3 -16  -7    0.31    0.45 
   3  16  -7   -0.97    0.64 
  -3  16   7    1.00    1.22 
   2 -16  -7    0.85    0.64 
  -2 -16   7    1.30    1.32 
  -2  16   7    0.46    1.09 
   2  16  -7    0.30    1.01 
   1 -16  -7    9.87    1.44 
  -1 -16   7   10.50    1.53 
  -1 -16   7   10.00    1.93 
   1  16  -7    8.60    1.85 
  -1  16   7    9.82    1.93 
   0 -16   7    1.60    0.92 
   0 -16   7    1.57    0.76 
   0 -16  -7    1.43    0.77 
   0 -16  -7    1.97    0.94 
   0  16   7    0.31    1.17 
   0  16  -7    0.19    0.87 
  -1 -16  -7    2.03    1.14 
   1 -16   7    2.27    1.08 
   1 -16   7    1.08    0.72 
  -1 -16  -7    1.29    0.89 
  -1  16  -7    1.77    0.94 
   1  16   7    3.21    1.47 
   2 -16   7    0.09    0.79 
  -2 -16  -7    0.77    0.90 
  -2 -16  -7    0.44    1.02 
   2  16   7    0.65    1.15 
  -3 -16  -7    3.09    1.40 
   3  16   7    5.24    1.61 
   2 -17  -7    1.43    0.77 
  -2 -17   7    2.28    1.28 
   2  17  -7    0.98    1.22 
  -2  17   7    2.92    1.33 
  -1 -17   7    1.38    1.20 
  -1 -17   7    0.80    0.85 
   1 -17  -7    2.70    0.99 
   1  17  -7    0.19    0.96 
  -1  17   7   -0.28    1.17 
   0 -17   7    0.79    1.15 
   0 -17  -7    0.62    0.70 
   0 -17   7    0.60    0.76 
   0 -17  -7    0.55    0.93 
   0  17  -7   -0.78    0.78 
   0  17   7    0.22    0.84 
   1 -17   7    0.62    1.04 
   1 -17   7    1.51    0.74 
  -1 -17  -7    0.09    0.64 
  -1 -17  -7    0.14    0.82 
   1  17   7   -0.93    0.98 
  -1  17  -7    0.05    0.86 
  -2 -17  -7    6.35    1.39 
   2 -17   7    4.26    1.29 
   2  17   7    5.98    1.72 
  -1 -18   7   -0.08    0.79 
  -1 -18   7    0.74    0.98 
   1 -18  -7    1.43    0.92 
   1  18  -7    2.15    1.28 
  -1  18   7   -0.02    0.89 
   0 -18  -7    1.51    1.11 
   0 -18  -7    3.38    1.22 
   0 -18   7    4.02    1.49 
   0 -18   7    2.28    0.97 
   0  18   7    0.95    1.24 
   0  18  -7    2.78    1.28 
   1 -18   7    0.52    0.75 
  -1 -18  -7   -0.82    0.57 
  -1 -18  -7   -0.47    0.74 
   1 -18   7   -0.68    0.92 
   1  18   7    0.78    0.99 
  -6   0   8    2.83    1.18 
  -6   0   8    2.01    0.38 
   6   0  -8    2.24    1.01 
  -5   0   8    1.79    0.89 
  -5   0   8    0.74    0.28 
   5   0  -8    0.95    0.84 
   4   0  -8   37.94    2.91 
  -4   0   8   36.89    2.22 
  -4   0   8   40.60    2.21 
  -3   0   8    0.01    0.19 
   3   0  -8    0.76    0.55 
   2   0  -8    2.03    0.56 
  -2   0   8    2.01    0.30 
   2   0  -8    2.01    0.21 
  -2   0   8    2.45    0.39 
   2   0  -8    2.09    0.22 
  -2   0   8    1.69    0.43 
  -1   0   8   74.02    4.18 
  -1   0   8   74.97    4.17 
   1   0  -8   78.41    4.16 
   1   0  -8   81.00    4.29 
  -1   0   8   78.34    4.20 
   0   0  -8  173.81    8.86 
   0   0  -8  164.66    8.85 
   0   0   8  170.62    8.87 
   0   0  -8  171.97    8.97 
   1   0   8   13.74    1.10 
  -1   0  -8   16.02    1.10 
  -1   0  -8   15.15    1.25 
   1   0   8   15.46    0.99 
   2   0   8    0.27    0.31 
  -2   0  -8    0.66    0.36 
  -2   0  -8    0.44    0.26 
   2   0   8    1.21    0.35 
   3   0   8    1.13    0.25 
   3   0   8    1.07    0.40 
  -3   0  -8    0.78    0.43 
  -3   0  -8    0.74    0.33 
   3   0   8    0.69    0.51 
  -4   0  -8   31.85    1.99 
  -4   0  -8   27.47    2.28 
   4   0   8   29.35    2.35 
  -5   0  -8   -0.05    0.35 
   5   0   8    0.76    0.70 
  -5   0  -8   -0.52    0.32 
  -6   0  -8    4.45    0.74 
  -6   0  -8    3.59    1.08 
  -6  -1   8    2.82    1.15 
   6  -1  -8    0.30    0.89 
  -6  -1   8    2.03    0.42 
   6   1  -8    3.09    1.22 
  -6   1   8    1.87    0.35 
  -6   1   8    1.75    0.99 
  -5  -1   8    1.53    0.92 
   5  -1  -8    1.91    0.89 
  -5  -1   8    1.40    0.35 
  -5   1   8    1.11    0.29 
   5   1  -8    0.96    0.94 
   4  -1  -8   18.24    1.71 
  -4  -1   8   16.31    1.12 
  -4  -1   8   14.86    1.11 
   4   1  -8   17.30    1.84 
  -4   1   8   15.70    1.07 
  -3  -1   8   19.31    1.28 
  -3  -1   8   19.37    1.25 
   3  -1  -8   19.47    1.66 
  -3   1   8   18.31    1.22 
   3   1  -8   18.44    1.73 
  -3   1   8   19.14    1.10 
   2  -1  -8   89.93    4.78 
   2  -1  -8   83.80    4.29 
   2  -1  -8   83.17    4.30 
  -2  -1   8   83.53    4.54 
   2   1  -8   81.24    4.86 
  -2   1   8   83.19    4.47 
   2   1  -8   81.80    4.34 
  -2   1   8   85.28    4.52 
   2   1  -8   86.15    4.34 
  -2   1   8   84.56    4.56 
  -1  -1   8  174.56    9.43 
   1  -1  -8  181.65    9.48 
  -1  -1   8  182.17    9.47 
   1  -1  -8  182.27    9.43 
   1   1  -8  183.13    9.59 
   1   1  -8  183.48    9.41 
  -1   1   8  176.17    9.42 
   1   1  -8  184.56    9.43 
  -1   1   8  188.67    9.46 
   0  -1  -8    1.07    0.27 
   0  -1   8    0.85    0.30 
   0  -1  -8    0.58    0.34 
   0  -1   8    0.55    0.30 
   0  -1  -8    0.65    0.30 
   0   1   8    1.01    0.31 
   0   1  -8    0.85    0.28 
   0   1  -8    1.64    0.41 
   0   1  -8    1.19    0.34 
  -1  -1  -8   60.82    3.79 
   1  -1   8   65.60    3.63 
  -1  -1  -8   67.02    3.64 
  -1   1  -8   66.41    3.63 
   1   1   8   66.79    3.45 
  -1   1  -8   67.67    3.83 
   1   1   8   62.34    3.68 
   3  -1   8    0.84    0.36 
   3  -1   8    1.37    0.50 
  -3  -1  -8    1.07    0.38 
  -3  -1  -8    1.00    0.54 
  -3   1  -8    0.70    0.30 
   3   1   8    0.97    0.44 
  -3   1  -8    1.15    0.50 
   3   1   8    0.47    0.54 
   3   1   8    0.90    0.36 
   4  -1   8    1.47    0.63 
  -4  -1  -8    0.35    0.36 
  -4  -1  -8    1.07    0.61 
  -4   1  -8    0.76    0.35 
   4   1   8    1.10    0.78 
  -4   1  -8    0.45    0.58 
  -5  -1  -8    1.16    0.49 
   5  -1   8    3.63    1.55 
  -5  -1  -8    2.40    0.89 
  -5   1  -8    1.37    0.48 
  -5   1  -8    2.66    0.83 
   5   1   8    1.97    0.89 
  -6  -1  -8    2.41    0.97 
  -6  -1  -8    1.30    0.53 
  -6   1  -8    2.54    0.94 
  -6   1  -8    2.44    0.60 
  -6  -2   8   -0.81    0.75 
  -6  -2   8    0.16    0.31 
  -6   2   8    0.10    0.23 
  -6   2   8    0.84    0.87 
   6   2  -8   -0.01    0.93 
  -5  -2   8    2.09    1.02 
   5  -2  -8    1.73    0.83 
  -5  -2   8    2.84    0.52 
   5   2  -8    5.31    1.33 
  -5   2   8    2.25    0.38 
  -4  -2   8    0.59    0.32 
   4  -2  -8    1.40    0.65 
  -4  -2   8    0.81    0.37 
  -4  -2   8    0.74    0.68 
   4   2  -8   -0.54    0.65 
  -4   2   8    0.81    0.28 
  -3  -2   8   18.57    1.24 
   3  -2  -8   17.04    1.46 
  -3  -2   8   17.39    1.19 
  -3   2   8   17.31    1.24 
   3   2  -8   15.17    1.63 
  -3   2   8   15.79    1.12 
  -2  -2   8   42.91    2.55 
   2  -2  -8   43.18    2.29 
  -2  -2   8   44.65    2.52 
   2  -2  -8   43.58    2.66 
   2  -2  -8   43.22    2.31 
   2   2  -8   43.41    2.87 
  -2   2   8   41.96    2.49 
   2   2  -8   43.67    2.35 
  -2   2   8   46.92    2.50 
   2   2  -8   43.10    2.37 
  -2   2   8   44.92    2.50 
  -1  -2   8    6.84    0.70 
  -1   2   8    5.19    0.59 
   1   2  -8    5.88    0.69 
   1   2  -8    5.12    0.55 
  -1   2   8    5.74    0.61 
   0  -2  -8    7.34    0.64 
   0  -2  -8    7.17    0.67 
   0  -2   8    7.12    0.70 
   0  -2   8    7.70    0.66 
   0   2   8    6.51    0.68 
   0   2  -8    7.20    0.68 
   0   2  -8    6.78    0.70 
   0   2  -8    8.04    0.71 
   1  -2   8   73.15    4.02 
  -1  -2  -8   68.81    4.22 
  -1  -2  -8   74.47    4.08 
  -1  -2  -8   79.60    4.10 
  -1   2  -8   70.51    4.04 
  -1   2  -8   77.49    4.28 
  -1   2  -8   74.28    4.00 
   1   2   8   72.22    4.16 
   1   2   8   73.18    4.12 
  -2  -2  -8   19.39    1.35 
   2  -2   8   17.42    1.26 
  -2  -2  -8   19.59    1.55 
   2  -2   8   18.07    1.11 
  -2   2  -8   19.61    1.25 
   2   2   8   19.24    1.44 
   2   2   8   18.05    1.58 
  -2   2  -8   18.29    1.29 
   2   2   8   16.37    1.37 
  -2   2  -8   16.66    1.47 
   2   2   8   19.20    1.37 
  -3  -2  -8    5.14    0.87 
  -3  -2  -8    5.36    0.69 
   3   2   8    6.69    0.76 
   3   2   8    6.58    0.77 
   3   2   8    6.83    1.07 
  -3   2  -8    5.03    0.62 
  -3   2  -8    4.66    0.89 
  -4  -2  -8   12.14    1.14 
   4  -2   8   10.69    1.27 
  -4  -2  -8   13.44    1.37 
  -4  -2  -8   11.86    0.72 
   4   2   8   13.25    1.58 
  -4   2  -8   12.08    1.06 
  -4   2  -8   15.54    1.55 
  -5  -2  -8   -0.33    0.35 
  -5  -2  -8    0.33    0.64 
  -5   2  -8   -0.32    0.57 
  -5   2  -8    0.15    0.34 
   5   2   8    0.55    0.72 
  -6  -2  -8    0.04    0.43 
  -6   2  -8    1.17    0.84 
  -6   2  -8    0.22    0.42 
  -6  -3   8    1.18    1.02 
  -6  -3   8   -0.04    0.33 
   6   3  -8    2.32    1.33 
  -6   3   8   -0.05    0.24 
  -5  -3   8    0.34    0.37 
  -5  -3   8    0.34    0.81 
   5  -3  -8    0.80    0.69 
  -5   3   8    1.06    0.31 
   5   3  -8    1.15    0.99 
  -4  -3   8    2.36    0.53 
  -4  -3   8    2.52    0.89 
  -4  -3   8    3.12    0.56 
   4  -3  -8    3.60    0.78 
   4   3  -8    2.97    1.11 
  -4   3   8    2.55    0.45 
   3  -3  -8    1.27    0.51 
  -3  -3   8    1.55    0.63 
  -3  -3   8    2.08    0.46 
  -3  -3   8    1.11    0.40 
   3   3  -8    0.81    0.57 
  -3   3   8    1.78    0.37 
  -3   3   8    2.45    0.40 
  -2  -3   8   25.49    1.68 
  -2  -3   8   29.23    2.07 
   2  -3  -8   27.52    1.75 
  -2  -3   8   26.57    1.73 
   2  -3  -8   24.69    1.45 
   2  -3  -8   26.18    1.49 
   2   3  -8   27.95    1.58 
  -2   3   8   25.74    1.67 
   2   3  -8   27.94    2.06 
   2   3  -8   26.87    1.53 
   2   3  -8   26.93    1.52 
  -1  -3   8   15.92    1.21 
  -1  -3   8   13.41    1.05 
   1  -3  -8   13.78    1.06 
   1  -3  -8   14.50    0.98 
  -1   3   8   12.53    1.01 
   1   3  -8   12.98    1.04 
   1   3  -8   13.58    1.01 
  -1   3   8   13.14    1.06 
   1   3  -8   15.02    1.22 
   0  -3  -8    2.53    0.46 
   0  -3   8    3.73    0.51 
   0  -3   8    3.11    0.48 
   0  -3  -8    4.43    0.52 
   0   3   8    3.95    0.54 
   0   3  -8    3.42    0.57 
   0   3  -8    3.10    0.50 
   0   3  -8    4.51    0.52 
   0   3  -8    5.12    0.56 
   1  -3   8   30.19    1.96 
  -1  -3  -8   31.68    2.01 
  -1  -3  -8   35.06    2.07 
   1  -3   8   30.91    1.99 
  -1   3  -8   34.46    2.22 
  -1   3  -8   32.12    2.02 
   1   3   8   33.84    2.17 
   1   3   8   31.36    2.11 
  -1   3  -8   33.72    2.01 
  -1   3  -8   34.39    2.01 
   1   3   8   32.02    2.29 
   2  -3   8    0.19    0.20 
  -2  -3  -8    0.26    0.27 
  -2  -3  -8    0.20    0.31 
   2  -3   8    0.26    0.26 
  -2   3  -8    0.14    0.24 
   2   3   8    0.41    0.44 
   2   3   8    0.91    0.45 
   2   3   8    0.49    0.38 
  -2   3  -8    0.62    0.35 
   2   3   8    0.37    0.39 
  -3  -3  -8   11.13    1.10 
  -3  -3  -8   12.24    1.05 
  -3   3  -8   13.73    1.33 
   3   3   8   13.97    1.20 
   3   3   8   11.76    1.18 
   3   3   8   12.94    1.43 
  -3   3  -8   15.88    1.12 
   4  -3   8    3.33    0.75 
  -4  -3  -8    2.25    0.52 
  -4  -3  -8    2.48    0.63 
  -4   3  -8    1.53    0.75 
   4   3   8    1.44    0.82 
  -4   3  -8    2.48    0.56 
  -5  -3  -8    0.04    0.45 
   5   3   8    0.90    0.89 
  -5   3  -8    0.17    0.37 
  -5   3  -8    0.26    0.48 
  -6  -3  -8    1.33    0.60 
  -6   3  -8    0.66    0.47 
  -6   3  -8    1.49    0.91 
  -6  -4   8   -0.73    0.86 
  -6  -4   8    0.33    0.42 
   6   4  -8    2.38    1.34 
  -6   4   8    0.11    0.30 
   5  -4  -8    0.57    0.74 
  -5  -4   8    1.15    0.49 
  -5  -4   8    1.05    0.93 
  -5   4   8    0.75    0.35 
   5   4  -8    1.78    1.04 
  -4  -4   8    1.40    0.78 
   4  -4  -8    1.70    0.63 
  -4  -4   8    1.85    0.77 
  -4  -4   8    0.81    0.43 
   4   4  -8    1.16    0.75 
  -4   4   8    2.17    0.45 
  -4   4   8    1.63    0.53 
  -3  -4   8    8.49    1.10 
   3  -4  -8    8.52    0.93 
  -3  -4   8   10.07    1.33 
  -3  -4   8    8.00    0.84 
  -3  -4   8    9.91    0.93 
  -3   4   8    8.59    0.81 
   3   4  -8    7.12    1.26 
  -2  -4   8   15.44    1.20 
  -2  -4   8   14.86    1.37 
   2  -4  -8   15.23    1.03 
  -2  -4   8   16.48    1.25 
   2  -4  -8   16.99    1.19 
  -2  -4   8   17.75    1.56 
   2   4  -8   16.74    1.06 
  -2   4   8   15.26    1.20 
   2   4  -8   19.39    1.62 
   2   4  -8   15.90    1.11 
  -1  -4   8    8.03    0.94 
  -1  -4   8    7.37    0.82 
  -1  -4   8    7.73    0.78 
   1  -4  -8    7.82    0.77 
  -1  -4   8    8.17    0.76 
   1  -4  -8    7.39    0.64 
  -1   4   8    8.85    0.85 
   1   4  -8    8.03    0.91 
   1   4  -8    9.45    0.84 
  -1   4   8    7.83    0.76 
   0  -4   8    1.41    0.44 
   0  -4   8    0.53    0.33 
   0  -4  -8    1.10    0.40 
   0  -4   8    0.74    0.32 
   0  -4  -8    0.39    0.30 
   0   4  -8    1.14    0.41 
   0   4  -8    1.61    0.45 
   0   4  -8    0.54    0.31 
   0   4   8    0.43    0.36 
   0   4  -8    0.75    0.34 
   0   4   8    0.34    0.44 
   0   4   8    0.95    0.37 
   1  -4   8   33.37    1.96 
   1  -4   8   29.46    1.99 
  -1  -4  -8   33.05    2.03 
  -1  -4  -8   32.93    2.07 
   1   4   8   31.84    2.29 
  -1   4  -8   30.90    2.00 
  -1   4  -8   32.88    2.03 
   1   4   8   29.83    2.14 
   1   4   8   28.73    2.11 
  -1   4  -8   30.63    1.97 
  -1   4  -8   32.64    1.99 
  -2  -4  -8    0.51    0.30 
   2  -4   8    2.47    0.43 
   2  -4   8    1.03    0.30 
  -2  -4  -8    1.16    0.38 
  -2  -4  -8    1.95    0.49 
  -2   4  -8    0.81    0.42 
   2   4   8    1.01    0.51 
   2   4   8    1.54    0.55 
   2   4   8    2.10    0.76 
  -2   4  -8    1.10    0.38 
  -3  -4  -8    3.66    0.59 
  -3  -4  -8    3.66    0.66 
  -3  -4  -8    3.37    0.62 
  -3   4  -8    3.00    0.53 
   3   4   8    3.95    0.75 
   3   4   8    2.07    0.87 
  -3   4  -8    3.21    0.71 
   4  -4   8    3.60    0.75 
  -4  -4  -8    5.50    0.76 
  -4  -4  -8    3.30    0.71 
   4   4   8    3.24    1.07 
  -4   4  -8    2.72    0.90 
  -4   4  -8    2.95    0.62 
  -5  -4  -8    0.40    0.50 
  -5   4  -8    1.34    0.64 
   5   4   8    0.77    0.87 
  -5   4  -8    0.93    0.45 
  -6  -4  -8   -0.13    0.57 
  -6   4  -8   -0.20    0.45 
  -6   4  -8   -0.05    0.49 
  -6  -5   8    1.31    0.56 
  -6  -5   8    0.58    1.03 
  -6   5   8    1.48    0.53 
   6   5  -8    1.14    1.01 
  -5  -5   8    1.22    0.86 
  -5  -5   8    0.50    0.45 
   5   5  -8   -0.22    0.88 
  -5   5   8    0.48    0.39 
   4  -5  -8   11.69    1.21 
  -4  -5   8   12.37    1.20 
  -4  -5   8   13.54    1.67 
  -4   5   8   14.64    1.16 
  -4   5   8   12.78    1.11 
   4   5  -8   14.30    1.79 
   3  -5  -8    5.65    0.77 
  -3  -5   8    6.13    0.84 
  -3  -5   8    7.05    0.95 
  -3  -5   8    7.08    0.82 
  -3  -5   8    7.41    1.24 
   3   5  -8    7.27    0.47 
   3   5  -8    8.22    1.22 
  -3   5   8    6.46    0.77 
  -2  -5   8    5.34    0.81 
  -2  -5   8    5.27    0.90 
  -2  -5   8    3.54    0.60 
   2  -5  -8    4.81    0.54 
  -2  -5   8    4.98    0.68 
   2  -5  -8    4.57    0.52 
   2   5  -8    5.51    0.62 
   2   5  -8    4.70    1.10 
  -2   5   8    5.39    0.69 
  -1  -5   8    0.27    0.24 
  -1  -5   8    0.66    0.35 
  -1  -5   8    0.30    0.39 
   1  -5  -8    0.44    0.33 
  -1  -5   8    0.54    0.43 
  -1   5   8    0.50    0.43 
  -1   5   8    0.93    0.37 
  -1   5   8    0.83    0.42 
   1   5  -8    0.86    0.44 
   1   5  -8    0.69    0.38 
   0  -5   8    7.06    0.73 
   0  -5  -8    6.70    0.69 
   0  -5  -8    6.77    0.72 
   0  -5   8    5.65    0.84 
   0   5  -8    6.24    0.74 
   0   5   8    6.44    0.78 
   0   5   8    6.23    0.71 
   0   5  -8    7.19    0.79 
   0   5   8    7.19    0.88 
   0   5  -8    5.01    0.66 
   0   5   8    6.65    0.88 
   0   5  -8    7.42    0.83 
   1  -5   8   -0.09    0.23 
  -1  -5  -8   -0.11    0.27 
   1  -5   8    0.00    0.31 
  -1  -5  -8    0.06    0.29 
  -1   5  -8   -0.02    0.17 
   1   5   8    0.36    0.48 
  -1   5  -8    0.21    0.32 
  -1   5  -8    0.10    0.31 
  -1   5  -8    0.39    0.32 
   1   5   8    0.51    0.43 
   1   5   8   -0.07    0.36 
   2  -5   8   15.62    1.10 
  -2  -5  -8   13.21    1.20 
  -2  -5  -8   16.90    1.32 
  -2  -5  -8   17.18    1.26 
   2   5   8   13.31    1.36 
  -2   5  -8   15.28    1.22 
   2   5   8   14.50    1.37 
  -2   5  -8   13.54    1.11 
   2   5   8   13.51    1.57 
  -3  -5  -8    1.33    0.48 
  -3  -5  -8    2.05    0.62 
  -3  -5  -8    1.58    0.55 
   3   5   8    1.38    0.60 
   3   5   8    0.86    0.72 
  -3   5  -8    1.66    0.62 
  -3   5  -8    1.61    0.48 
  -4  -5  -8    0.69    0.52 
   4  -5   8    0.20    0.43 
  -4  -5  -8    0.80    0.50 
   4   5   8    0.77    0.86 
  -4   5  -8    0.21    0.37 
  -4   5  -8   -0.99    0.52 
  -5  -5  -8   -0.33    0.43 
  -5   5  -8    0.84    0.76 
  -5   5  -8    0.01    0.36 
  -6  -5  -8    0.62    0.79 
  -6   5  -8   -0.18    0.79 
  -6   5  -8    0.37    0.53 
  -6  -6   8    0.25    0.52 
  -6  -6   8    0.86    1.19 
   6   6  -8   -0.26    0.76 
  -6   6   8   -0.13    0.52 
  -5  -6   8    4.16    1.43 
  -5  -6   8    5.07    0.88 
   5   6  -8    5.56    1.51 
  -5   6   8    5.12    0.85 
   4  -6  -8   -0.29    0.35 
  -4  -6   8   -0.21    0.52 
  -4  -6   8   -0.45    0.38 
  -4   6   8   -0.53    0.33 
  -4   6   8   -0.42    0.34 
   4   6  -8   -0.31    0.82 
  -3  -6   8   -0.17    0.31 
  -3  -6   8    0.03    0.34 
  -3  -6   8   -0.28    0.33 
   3  -6  -8   -0.05    0.30 
  -3  -6   8    0.74    0.63 
  -3   6   8   -0.10    0.38 
   3   6  -8    0.16    0.53 
  -3   6   8   -0.28    0.35 
  -2  -6   8    0.88    0.65 
   2  -6  -8    0.70    0.27 
   2  -6  -8    0.47    0.30 
  -2  -6   8    0.53    0.38 
  -2  -6   8    0.68    0.43 
  -2  -6   8    0.52    0.42 
   2   6  -8    0.36    0.33 
   2   6  -8    0.44    0.61 
  -2   6   8    0.23    0.37 
  -2   6   8    1.37    0.57 
  -1  -6   8    0.16    0.36 
  -1  -6   8   -0.02    0.26 
  -1  -6   8   -0.11    0.33 
  -1  -6   8    0.29    0.32 
   1  -6  -8   -0.05    0.30 
  -1   6   8   -0.11    0.25 
   1   6  -8   -0.24    0.23 
   1   6  -8   -0.38    0.40 
  -1   6   8    0.62    0.39 
   1   6  -8    0.23    0.34 
   0  -6   8    2.90    0.54 
   0  -6  -8    2.53    0.57 
   0  -6   8    0.69    0.54 
   0  -6  -8    1.61    0.48 
   0   6   8    1.59    0.58 
   0   6   8    0.42    0.47 
   0   6  -8    1.16    0.49 
   0   6   8    2.47    0.57 
   0   6   8    2.36    0.53 
   0   6  -8    1.84    0.56 
   0   6  -8    1.42    0.52 
   0   6  -8    1.66    0.50 
   1  -6   8    1.69    0.53 
  -1  -6  -8    1.21    0.46 
  -1  -6  -8    1.13    0.46 
   1  -6   8    1.15    0.40 
  -1  -6  -8    1.16    0.46 
  -1   6  -8    1.68    0.53 
   1   6   8    1.00    0.57 
  -1   6  -8    1.27    0.39 
  -1   6  -8    1.44    0.50 
  -1   6  -8    0.23    0.30 
   1   6   8    1.66    0.45 
   1   6   8    2.03    0.66 
   1   6   8    0.72    0.62 
  -2  -6  -8    0.68    0.47 
  -2  -6  -8    0.51    0.37 
   2  -6   8    0.84    0.38 
  -2  -6  -8    0.38    0.42 
  -2   6  -8    0.38    0.31 
   2   6   8    0.64    0.55 
   2   6   8    1.48    0.77 
   2   6   8    0.63    0.20 
   2   6   8    0.69    0.58 
  -2   6  -8    0.33    0.30 
  -3  -6  -8   -0.01    0.35 
  -3  -6  -8   -0.12    0.40 
  -3  -6  -8    0.01    0.40 
   3   6   8   -0.13    0.44 
   3   6   8   -0.33    0.41 
  -3   6  -8    0.03    0.25 
  -3   6  -8   -0.08    0.31 
  -4  -6  -8    0.53    0.53 
  -4  -6  -8   -0.79    0.30 
  -4   6  -8    0.24    0.40 
  -4   6  -8   -0.14    0.42 
   4   6   8   -0.48    0.76 
  -5  -6  -8   -0.58    0.49 
  -5   6  -8    0.16    0.45 
  -5   6  -8    0.49    0.68 
  -6   6  -8    2.80    0.83 
  -6   6  -8    3.02    1.03 
  -5  -7   8    3.84    0.82 
  -5  -7   8    1.57    1.20 
   5   7  -8    1.71    1.09 
  -5   7   8    3.71    0.88 
  -5   7   8    4.46    0.99 
  -4  -7   8    1.65    0.91 
  -4  -7   8    3.38    0.77 
  -4   7   8    3.81    0.82 
   4   7  -8    1.15    0.84 
  -4   7   8    4.51    0.85 
  -3  -7   8    0.87    0.62 
   3  -7  -8    0.71    0.30 
  -3  -7   8    0.72    0.64 
  -3  -7   8    0.79    0.49 
  -3  -7   8    0.10    0.46 
  -3   7   8    0.27    0.44 
   3   7  -8    0.85    0.82 
  -3   7   8    0.28    0.48 
  -3   7   8    1.10    0.57 
   2  -7  -8   12.91    1.01 
  -2  -7   8   10.05    1.15 
  -2  -7   8   12.25    1.31 
  -2  -7   8   13.46    1.20 
   2  -7  -8   12.25    0.86 
  -2  -7   8    9.74    1.36 
   2   7  -8   13.47    1.10 
  -2   7   8    9.46    1.19 
   2   7  -8   14.82    1.65 
  -2   7   8   12.47    1.27 
  -2   7   8   12.07    1.22 
  -1  -7   8    1.88    0.56 
  -1  -7   8    3.20    0.60 
  -1  -7   8    1.19    0.59 
  -1  -7   8    1.95    0.71 
   1  -7  -8    3.36    0.67 
   1   7  -8    0.97    0.59 
  -1   7   8    0.91    0.59 
   1   7  -8    2.98    0.66 
  -1   7   8    2.79    0.62 
  -1   7   8    2.41    0.70 
   1   7  -8    2.16    0.60 
   0  -7   8    1.06    0.41 
   0  -7   8    0.43    0.51 
   0  -7   8    0.50    0.30 
   0  -7  -8    0.41    0.32 
   0  -7  -8    0.41    0.44 
   0   7   8    0.57    0.60 
   0   7  -8    1.07    0.48 
   0   7   8    1.07    0.38 
   0   7  -8    0.74    0.41 
   0   7   8    0.37    0.54 
   0   7   8    0.71    0.42 
   0   7  -8    0.76    0.48 
   0   7  -8    0.00    0.39 
  -1  -7  -8    5.44    0.79 
   1  -7   8    6.15    0.72 
  -1  -7  -8    6.38    0.81 
   1  -7   8    4.78    0.81 
  -1  -7  -8    6.41    0.83 
   1   7   8    6.34    1.02 
  -1   7  -8    5.67    0.75 
  -1   7  -8    6.55    0.88 
  -1   7  -8    6.18    0.79 
  -1   7  -8    5.93    0.86 
   1   7   8    5.00    0.98 
   1   7   8    8.14    1.00 
   1   7   8    6.04    0.75 
  -2  -7  -8    4.54    0.73 
   2  -7   8    4.45    0.68 
  -2  -7  -8    5.33    0.89 
  -2  -7  -8    3.11    0.78 
  -2  -7  -8    3.70    0.69 
   2   7   8    3.79    0.44 
   2   7   8    5.11    0.96 
   2   7   8    5.38    1.19 
  -2   7  -8    4.71    0.70 
  -2   7  -8    3.56    0.60 
   2   7   8    3.15    0.84 
  -3  -7  -8    1.19    0.66 
  -3  -7  -8    1.64    0.65 
  -3  -7  -8    2.34    0.67 
  -3   7  -8    2.04    0.49 
   3   7   8    0.96    0.96 
   3   7   8    0.96    0.64 
  -3   7  -8    0.80    0.49 
  -4  -7  -8    1.60    0.72 
  -4  -7  -8    1.59    0.70 
   4   7   8    0.65    0.84 
  -4   7  -8    0.66    0.74 
  -4   7  -8    0.78    0.38 
  -4   7  -8    2.02    0.63 
  -5   7  -8    0.82    0.55 
  -5   7  -8    1.24    0.86 
  -5  -8   8   14.97    2.16 
  -5  -8   8   20.36    1.82 
  -5   8   8   19.17    1.81 
  -5   8   8   20.03    1.80 
   5   8  -8   17.66    2.57 
  -4  -8   8    6.92    1.54 
  -4  -8   8    3.81    0.90 
  -4   8   8    3.96    0.94 
   4   8  -8    2.94    1.33 
  -4   8   8    2.68    0.87 
  -3  -8   8    5.00    1.13 
  -3  -8   8    5.76    0.86 
  -3  -8   8    5.57    0.92 
   3  -8  -8    4.51    0.39 
  -3  -8   8    4.55    0.89 
  -3   8   8    1.97    0.79 
   3   8  -8    3.44    1.10 
  -3   8   8    4.22    0.87 
   3   8  -8    4.58    0.40 
  -3   8   8    4.27    0.96 
  -2  -8   8    1.25    0.70 
   2  -8  -8    1.47    0.48 
  -2  -8   8    1.72    0.63 
   2  -8  -8    1.52    0.30 
  -2  -8   8    2.43    0.68 
  -2  -8   8    1.48    0.69 
  -2   8   8    1.95    0.74 
  -2   8   8    0.96    0.58 
  -2   8   8    2.00    0.70 
   2   8  -8    2.15    0.77 
   2   8  -8    2.04    0.55 
  -1  -8   8    0.34    0.64 
   1  -8  -8    1.47    0.55 
  -1  -8   8    1.28    0.50 
  -1  -8   8    1.73    0.57 
   1   8  -8    1.44    0.52 
  -1   8   8    1.89    0.68 
   1   8  -8    1.96    0.57 
   1   8  -8    0.55    0.48 
  -1   8   8    1.21    0.62 
  -1   8   8    1.57    0.57 
   0  -8  -8   42.17    2.81 
   0  -8   8   41.85    2.77 
   0  -8   8   45.52    2.74 
   0  -8  -8   43.65    2.85 
   0  -8   8   45.80    3.07 
   0   8  -8   45.02    2.87 
   0   8  -8   44.13    2.90 
   0   8   8   40.62    3.00 
   0   8  -8   41.40    2.92 
   0   8   8   45.40    3.22 
   0   8  -8   46.54    3.01 
   0   8   8   44.58    2.78 
   0   8   8   45.04    3.12 
  -1  -8  -8    5.21    0.83 
  -1  -8  -8    5.67    0.89 
  -1  -8  -8    6.43    0.94 
   1  -8   8    7.06    0.78 
  -1  -8  -8    3.45    0.72 
   1  -8   8    5.22    0.92 
  -1   8  -8    5.81    0.81 
   1   8   8    6.42    1.07 
  -1   8  -8    5.79    0.82 
   1   8   8    4.32    0.85 
  -1   8  -8    7.06    0.90 
  -1   8  -8    6.42    0.92 
   1   8   8    4.65    0.99 
   1   8   8    4.71    0.72 
  -2  -8  -8    3.64    0.72 
  -2  -8  -8    3.50    0.89 
  -2  -8  -8    5.15    0.81 
  -2  -8  -8    4.19    0.76 
   2  -8   8    3.05    0.66 
   2   8   8    4.49    1.05 
   2   8   8    2.15    0.88 
  -2   8  -8    4.21    0.66 
  -2   8  -8    4.53    0.85 
   2   8   8    3.37    0.50 
  -3  -8  -8    0.01    0.50 
  -3  -8  -8   -0.20    0.62 
  -3  -8  -8   -0.28    0.45 
  -3  -8  -8    0.19    0.43 
   3  -8   8    0.25    0.25 
   3   8   8    0.50    0.75 
  -3   8  -8   -0.02    0.30 
  -3   8  -8   -0.65    0.36 
   3   8   8    0.16    0.64 
  -4  -8  -8    0.32    0.70 
  -4  -8  -8   -0.29    0.51 
   4   8   8   -0.34    0.59 
  -4   8  -8   -0.01    0.31 
  -4   8  -8   -0.48    0.39 
  -5  -8  -8    1.04    0.76 
  -5   8  -8    0.75    0.69 
  -5  -9   8    1.53    0.75 
  -5  -9   8   -0.46    0.97 
   5   9  -8    0.64    1.31 
  -5   9   8    0.71    0.72 
  -5   9   8    2.06    0.88 
  -4  -9   8    1.68    0.73 
  -4  -9   8    0.21    0.95 
   4   9  -8    0.58    0.81 
  -4   9   8    1.06    0.68 
  -4   9   8    1.22    0.74 
  -3  -9   8    9.05    1.20 
  -3  -9   8   12.22    1.47 
  -3  -9   8    8.23    1.45 
  -3   9   8   10.00    1.29 
   3   9  -8   10.18    0.78 
   3   9  -8    8.31    1.44 
  -3   9   8    9.83    1.31 
  -3   9   8    8.64    1.20 
  -2  -9   8    0.09    0.65 
  -2  -9   8    1.82    1.03 
   2  -9  -8    1.12    0.37 
   2  -9  -8    1.16    0.47 
  -2  -9   8    1.81    0.69 
  -2  -9   8    1.64    0.61 
   2  -9  -8    1.67    0.29 
   2   9  -8    1.28    0.69 
  -2   9   8    1.05    0.59 
  -2   9   8    0.55    0.63 
  -2   9   8    1.32    0.79 
   2   9  -8    1.75    0.54 
   1  -9  -8    2.55    0.69 
  -1  -9   8    1.54    0.62 
  -1  -9   8    2.34    0.67 
  -1  -9   8    2.16    0.90 
   1  -9  -8    2.55    0.61 
   1   9  -8    0.66    0.70 
  -1   9   8    1.65    0.75 
  -1   9   8    1.79    0.80 
   1   9  -8    2.54    0.68 
  -1   9   8    1.45    0.75 
   1   9  -8    2.22    0.67 
   0  -9   8    3.08    0.93 
   0  -9   8    2.35    0.59 
   0  -9   8    2.18    0.64 
   0  -9  -8    2.50    0.70 
   0  -9  -8    2.32    0.71 
   0   9   8    2.06    0.80 
   0   9  -8    2.48    0.72 
   0   9  -8    2.49    0.69 
   0   9   8    3.38    0.72 
   0   9   8    3.50    1.01 
   0   9  -8    3.54    0.89 
   0   9  -8    3.45    0.86 
   0   9   8    1.09    0.78 
  -1  -9  -8    1.14    0.60 
  -1  -9  -8    2.95    0.81 
  -1  -9  -8    2.39    0.81 
   1  -9   8    2.22    0.74 
  -1  -9  -8    2.34    0.69 
   1  -9   8    2.82    0.52 
  -1   9  -8    1.63    0.64 
  -1   9  -8    2.57    0.58 
  -1   9  -8    1.76    0.62 
   1   9   8    2.34    0.58 
   1   9   8    2.88    0.82 
   1   9   8    3.38    0.99 
   1   9   8    2.42    0.89 
  -2  -9  -8    7.76    1.16 
  -2  -9  -8    6.87    1.10 
  -2  -9  -8    8.01    1.28 
   2  -9   8    8.43    0.97 
  -2  -9  -8    6.09    0.97 
   2   9   8    7.35    1.20 
  -2   9  -8    4.98    0.97 
   2   9   8    6.73    1.30 
  -2   9  -8    7.02    0.88 
   2   9   8    7.71    0.78 
   3  -9   8    4.14    0.59 
  -3  -9  -8    4.63    0.99 
  -3  -9  -8    4.49    1.01 
  -3  -9  -8    4.70    1.01 
  -3   9  -8    3.83    0.65 
   3   9   8    2.93    1.30 
  -3   9  -8    2.87    0.89 
   3   9   8    3.86    1.03 
  -4  -9  -8    1.68    0.84 
  -4   9  -8    2.02    0.55 
  -4   9  -8    1.32    0.89 
  -5  -9  -8    2.40    1.01 
  -5   9  -8    2.68    0.96 
  -5 -10   8    1.11    1.05 
  -5 -10   8    3.21    0.96 
  -5  10   8    2.32    0.95 
  -5  10   8    1.12    0.89 
   5  10  -8    5.11    1.59 
  -4 -10   8   -0.66    0.59 
  -4 -10   8   -0.26    0.57 
  -4  10   8    0.56    0.79 
  -4  10   8    0.28    0.70 
   4  10  -8    2.07    1.31 
  -3 -10   8    6.20    1.09 
  -3 -10   8    5.60    1.29 
  -3  10   8    7.62    1.25 
  -3  10   8    6.18    1.17 
   3  10  -8    7.00    0.73 
  -3  10   8    7.61    1.17 
   3  10  -8    7.01    1.42 
   2 -10  -8    3.90    0.76 
  -2 -10   8    4.82    0.93 
  -2 -10   8    5.67    1.18 
   2 -10  -8    4.64    0.44 
  -2 -10   8    5.03    0.97 
   2 -10  -8    5.20    0.62 
  -2  10   8    7.26    1.21 
  -2  10   8    5.88    1.12 
  -2  10   8    5.77    1.16 
   2  10  -8    5.30    1.15 
   2  10  -8    5.39    0.82 
  -1 -10   8    0.15    0.48 
   1 -10  -8   -0.47    0.37 
  -1 -10   8   -0.38    0.66 
   1 -10  -8    0.02    0.46 
  -1 -10   8    0.11    0.39 
   1  10  -8    0.19    0.47 
  -1  10   8    0.26    0.72 
  -1  10   8    0.53    0.53 
   1  10  -8    0.73    0.54 
  -1  10   8   -0.46    0.53 
   1  10  -8    0.30    0.54 
   0 -10  -8    0.02    0.45 
   0 -10   8   -1.17    0.48 
   0 -10  -8    0.01    0.38 
   0 -10  -8    0.00    0.42 
   0 -10   8   -0.15    0.42 
   0 -10   8    0.09    0.33 
   0  10   8   -0.81    0.55 
   0  10  -8    0.44    0.52 
   0  10  -8   -0.14    0.49 
   0  10   8    0.22    0.37 
   0  10  -8   -0.21    0.47 
   0  10  -8    0.22    0.54 
   0  10   8   -0.64    0.35 
   0  10   8    0.53    0.72 
  -1 -10  -8    1.04    0.63 
  -1 -10  -8    0.61    0.70 
  -1 -10  -8    0.59    0.50 
  -1 -10  -8    0.49    0.49 
   1 -10   8    0.54    0.44 
   1 -10   8    0.42    0.63 
  -1  10  -8    1.02    0.67 
   1  10   8    0.97    0.94 
   1  10   8    0.67    0.77 
  -1  10  -8    1.61    0.65 
  -1  10  -8    0.82    0.60 
   1  10   8    0.72    0.42 
   1  10   8   -0.03    0.49 
  -2 -10  -8   32.95    2.76 
  -2 -10  -8   41.24    3.79 
   2 -10   8   38.72    2.64 
  -2 -10  -8   33.41    2.63 
  -2  10  -8   37.85    2.55 
   2  10   8   41.29    2.41 
   2  10   8   30.20    2.79 
  -2  10  -8   44.40    2.91 
   2  10   8   34.60    3.26 
   3 -10   8    0.48    0.41 
  -3 -10  -8   -0.87    0.58 
  -3 -10  -8    0.36    0.58 
  -3  10  -8    0.65    0.42 
   3  10   8    1.16    1.05 
   3  10   8   -0.77    0.59 
  -4 -10  -8    0.49    0.77 
  -4  10  -8   -0.06    0.39 
  -5 -10  -8    6.05    1.27 
  -5  10  -8    4.80    1.18 
  -5 -11   8    1.14    1.28 
  -5 -11   8   -0.32    0.65 
  -5  11   8    0.23    0.92 
  -5  11   8    0.67    0.99 
   5  11  -8    0.05    1.33 
  -4 -11   8    2.07    1.36 
  -4 -11   8    1.20    0.77 
   4  11  -8    1.79    1.15 
  -4  11   8    0.45    0.81 
  -4  11   8    1.27    0.88 
  -3 -11   8    9.89    1.83 
  -3 -11   8    8.79    1.30 
  -3  11   8   10.04    1.47 
  -3  11   8   10.37    1.40 
   3  11  -8    9.56    1.87 
  -3  11   8    8.64    1.50 
   3  11  -8    9.49    0.92 
  -2 -11   8    0.48    0.73 
   2 -11  -8    0.87    0.22 
   2 -11  -8    1.01    0.56 
  -2 -11   8    0.53    0.50 
  -2 -11   8    1.93    0.75 
   2  11  -8    0.45    0.56 
  -2  11   8    1.62    0.86 
   2  11  -8    0.71    0.61 
  -2  11   8    2.06    0.84 
   2  11  -8    1.96    0.88 
  -2  11   8    0.33    0.74 
  -1 -11   8    0.08    0.56 
   1 -11  -8    1.16    0.63 
   1 -11  -8    1.29    0.60 
  -1 -11   8    0.84    0.64 
  -1 -11   8    1.16    0.96 
  -1  11   8   -0.13    0.70 
   1  11  -8    0.71    0.55 
  -1  11   8    1.27    0.86 
  -1  11   8    1.66    0.80 
   1  11  -8    0.83    0.61 
   1  11  -8    2.40    0.93 
   0 -11  -8    4.48    0.92 
   0 -11   8    5.05    0.85 
   0 -11  -8    4.52    1.02 
   0 -11   8    5.24    1.17 
   0 -11   8    4.07    0.85 
   0 -11  -8    2.40    0.79 
   0  11  -8    3.18    0.85 
   0  11   8    1.82    0.83 
   0  11   8    3.65    1.22 
   0  11  -8    2.62    0.85 
   0  11   8    4.28    1.23 
   0  11  -8    6.26    1.13 
  -1 -11  -8    0.45    0.59 
  -1 -11  -8    1.45    0.68 
   1 -11   8    1.44    0.77 
  -1 -11  -8    0.77    0.71 
   1  11   8    1.54    1.08 
  -1  11  -8    1.08    0.64 
  -1  11  -8    1.67    0.70 
   1  11   8    0.52    0.48 
   1  11   8    1.84    0.95 
   2 -11   8    4.93    0.99 
  -2 -11  -8    4.06    1.09 
  -2 -11  -8    4.37    0.98 
   2  11   8    4.62    1.06 
   2  11   8    4.86    1.42 
  -2  11  -8    5.65    0.98 
   2  11   8    3.35    0.71 
   3 -11   8   -0.20    0.42 
  -3 -11  -8   -0.41    0.65 
   3  11   8   -0.95    0.65 
  -3  11  -8    0.76    0.49 
  -4 -11  -8    5.70    1.26 
  -5 -11  -8    3.49    1.21 
  -4 -12   8    2.52    1.27 
  -4 -12   8    2.50    0.96 
   4  12  -8    2.00    1.33 
  -4  12   8    2.63    1.16 
  -4  12   8    2.25    1.13 
  -3 -12   8    1.13    0.93 
   3 -12  -8    2.76    0.41 
  -3 -12   8    1.43    0.80 
  -3  12   8    1.32    0.99 
  -3  12   8    2.90    1.09 
   3  12  -8    1.60    1.19 
  -2 -12   8    7.48    1.17 
  -2 -12   8    4.22    1.32 
   2 -12  -8    3.03    0.81 
  -2 -12   8    4.41    0.93 
  -2  12   8    5.26    1.32 
   2  12  -8    5.49    1.25 
  -2  12   8    5.25    1.21 
   2  12  -8    5.53    0.99 
  -2  12   8    5.52    1.31 
   1 -12  -8    9.80    1.26 
  -1 -12   8   10.33    1.32 
  -1 -12   8    9.49    1.33 
  -1 -12   8    8.97    1.62 
  -1  12   8   10.02    1.60 
  -1  12   8   13.09    1.78 
  -1  12   8   10.28    1.61 
   1  12  -8    8.88    1.41 
   1  12  -8   10.20    1.38 
   0 -12   8    2.22    0.75 
   0 -12  -8    0.89    0.69 
   0 -12  -8    2.40    0.92 
   0 -12  -8    1.66    0.74 
   0 -12   8    1.35    0.94 
   0  12   8    0.91    0.92 
   0  12  -8    3.00    0.90 
   0  12   8    2.86    1.19 
   0  12  -8    1.85    0.90 
   0  12  -8    1.48    0.69 
   1 -12   8   21.30    2.00 
  -1 -12  -8   17.25    1.81 
  -1 -12  -8   17.98    1.95 
   1  12   8   19.85    2.30 
  -1  12  -8   20.09    1.88 
   1  12   8   16.74    1.90 
  -1  12  -8   19.09    1.78 
  -2 -12  -8   11.46    1.64 
   2 -12   8   13.55    1.56 
  -2 -12  -8   13.50    1.61 
   2  12   8   13.98    2.20 
  -2  12  -8   15.56    1.53 
   2  12   8   14.32    1.34 
   2  12   8   18.06    2.00 
  -3 -12  -8    0.63    0.85 
  -3  12  -8    1.33    0.62 
   3  12   8    0.50    0.93 
  -4 -12  -8    3.62    1.11 
  -4 -13   8    1.83    0.93 
  -4 -13   8   -0.69    1.11 
  -4  13   8   -0.65    0.84 
   4  13  -8    0.11    1.24 
  -3 -13   8    4.51    1.20 
  -3 -13   8    4.18    1.62 
   3 -13  -8    5.36    0.58 
   3  13  -8    5.27    1.66 
  -3  13   8    5.43    1.48 
  -3  13   8    5.14    1.40 
   2 -13  -8    3.17    0.82 
  -2 -13   8    3.23    1.01 
  -2 -13   8    2.11    0.91 
  -2 -13   8    2.74    1.31 
  -2  13   8    5.39    1.42 
  -2  13   8    3.61    1.32 
   2  13  -8    2.50    1.21 
  -1 -13   8   17.84    1.80 
  -1 -13   8   16.04    2.03 
   1 -13  -8   19.64    1.81 
  -1  13   8   17.23    2.17 
   1  13  -8   18.35    1.84 
  -1  13   8   22.56    2.34 
   1  13  -8   20.24    2.22 
   0 -13  -8   21.24    2.01 
   0 -13   8   22.30    2.29 
   0 -13  -8   19.84    1.94 
   0 -13   8   20.74    1.81 
   0  13   8   15.48    1.96 
   0  13  -8   18.91    2.06 
   0  13  -8   19.89    1.92 
   0  13   8   20.65    2.30 
   1 -13   8    3.38    1.10 
  -1 -13  -8    3.42    1.04 
  -1 -13  -8    4.64    1.25 
   1  13   8    5.44    1.50 
  -1  13  -8    4.91    1.12 
   1  13   8    6.26    1.67 
  -1  13  -8    6.10    1.09 
  -2 -13  -8    5.17    1.26 
   2 -13   8    5.28    1.18 
  -2 -13  -8    5.31    1.26 
  -2  13  -8    4.08    0.96 
   2  13   8    3.67    1.32 
   2  13   8    5.10    0.86 
  -3 -13  -8    2.75    1.04 
   3  13   8    2.16    1.11 
  -4 -13  -8    1.20    1.05 
  -4 -14   8    2.90    1.45 
  -4 -14   8    1.60    0.99 
   4  14  -8    3.69    1.56 
  -4  14   8    1.73    1.14 
   3 -14  -8   -0.10    0.35 
  -3 -14   8   -0.98    0.63 
   3  14  -8    1.42    1.08 
  -3  14   8   -1.41    0.84 
  -2 -14   8    5.17    1.49 
   2 -14  -8    6.11    0.99 
  -2  14   8    4.09    1.44 
   2  14  -8    6.00    1.73 
   1 -14  -8    7.42    1.23 
  -1 -14   8    8.75    1.67 
  -1 -14   8    2.72    0.97 
   1  14  -8    5.96    1.51 
  -1  14   8    4.61    1.31 
   0 -14  -8    2.22    0.89 
   0 -14   8    2.13    1.13 
   0 -14   8    0.38    0.62 
   0 -14  -8    0.59    0.64 
   0  14  -8    0.58    0.79 
   0  14   8    1.02    1.01 
  -1 -14  -8    0.95    0.80 
   1 -14   8    0.06    0.49 
  -1 -14  -8   -0.11    0.79 
   1 -14   8    0.42    0.81 
  -1  14  -8   -0.19    0.65 
   1  14   8    0.12    0.92 
  -2 -14  -8    4.74    1.27 
   2 -14   8    5.47    1.31 
  -2 -14  -8    5.64    1.44 
   2  14   8    5.01    0.91 
   2  14   8    5.08    1.49 
  -2  14  -8    5.32    1.19 
  -3 -14  -8    0.34    0.68 
   3  14   8    2.37    1.23 
  -4 -14  -8    1.51    1.13 
   3 -15  -8    0.60    0.44 
  -3 -15   8    0.49    1.28 
   3  15  -8    2.21    1.20 
  -3  15   8    1.62    0.95 
   2 -15  -8    0.76    0.67 
  -2 -15   8    0.06    1.17 
  -2  15   8   -0.29    0.64 
   2  15  -8    0.29    1.14 
  -1 -15   8    0.31    0.81 
  -1 -15   8    1.09    0.79 
   1 -15  -8    2.38    0.95 
   1  15  -8    2.49    1.10 
  -1  15   8   -0.19    0.83 
   0 -15   8    3.37    1.27 
   0 -15  -8    1.97    0.91 
   0 -15   8    3.06    0.94 
   0 -15  -8    2.82    1.01 
   0  15  -8    2.38    1.14 
   0  15   8    1.94    1.07 
  -1 -15  -8    8.20    1.56 
   1 -15   8    7.63    1.50 
  -1 -15  -8    8.62    1.45 
   1 -15   8    6.92    1.08 
   1  15   8    6.22    1.70 
  -1  15  -8    7.79    1.40 
  -2 -15  -8    2.14    1.16 
  -2 -15  -8    0.90    0.95 
   2 -15   8    1.50    1.04 
  -2  15  -8    2.26    1.09 
   2  15   8    1.86    1.12 
  -3 -15  -8   -0.12    0.85 
   3  15   8   -0.91    0.92 
   3 -16  -8    4.07    0.72 
  -3 -16   8    3.03    1.39 
  -3  16   8    4.73    1.67 
   3  16  -8    5.65    1.74 
  -2 -16   8    0.71    1.01 
   2 -16  -8    0.70    0.65 
   2  16  -8    2.97    1.52 
  -2  16   8    1.14    1.28 
  -1 -16   8    4.39    1.58 
  -1 -16   8    3.44    1.11 
   1 -16  -8    1.32    0.85 
  -1  16   8    0.49    0.90 
   1  16  -8    1.34    1.15 
   0 -16   8    9.89    1.63 
   0 -16   8    7.78    1.30 
   0 -16  -8    6.30    1.26 
   0 -16  -8    6.88    1.39 
   0  16   8   10.00    1.95 
   0  16  -8    8.69    1.60 
   1 -16   8    2.91    0.91 
   1 -16   8    6.11    1.56 
  -1 -16  -8    5.44    1.23 
  -1 -16  -8    2.57    1.13 
   1  16   8    4.60    1.73 
  -1  16  -8    6.45    1.35 
  -2 -16  -8    0.22    0.82 
  -2 -16  -8    0.44    0.74 
   2 -16   8   -0.77    0.70 
   2  16   8   -0.59    0.89 
   3  16   8    1.43    1.21 
   2 -17  -8   -0.05    0.61 
  -2 -17   8   -1.01    0.63 
   2  17  -8   -0.15    1.18 
  -2  17   8    0.03    0.85 
  -1 -17   8   -0.18    0.77 
   1 -17  -8    0.05    0.72 
  -1 -17   8   -0.06    0.83 
  -1  17   8    1.84    1.39 
   1  17  -8    0.12    1.16 
   0 -17  -8   -0.45    0.84 
   0 -17   8    0.67    1.09 
   0 -17  -8   -0.16    0.71 
   0 -17   8    0.44    0.81 
   0  17  -8   -0.07    1.01 
   0  17   8    1.21    1.33 
   1 -17   8    0.75    0.73 
   1 -17   8   -0.36    0.86 
  -1 -17  -8    1.47    0.99 
  -1 -17  -8   -0.58    0.56 
  -1  17  -8    3.01    1.17 
   1  17   8   -0.03    1.17 
   2 -17   8    0.91    0.97 
  -2 -17  -8    2.20    1.24 
   2  17   8    1.24    1.30 
   0 -18   8   -0.22    1.08 
   0 -18  -8    0.47    0.96 
   0 -18   8    0.34    0.68 
   0 -18  -8   -0.06    0.79 
   0  18  -8    0.00    1.03 
   0  18   8   -1.23    0.68 
   6   0  -9   -0.76    0.80 
  -6   0   9    0.13    0.26 
  -6   0   9    0.97    1.01 
  -5   0   9    0.00    0.24 
   5   0  -9    0.74    0.78 
  -5   0   9   -0.01    0.65 
  -4   0   9    0.11    0.24 
   4   0  -9    0.79    0.67 
   3   0  -9   -0.41    0.39 
  -3   0   9    0.27    0.24 
   2   0  -9   -0.16    0.16 
   2   0  -9    0.15    0.28 
   2   0  -9    0.01    0.17 
  -2   0   9    0.07    0.20 
  -2   0   9    0.09    0.21 
   1   0  -9    0.18    0.26 
  -1   0   9   -0.31    0.17 
  -1   0   9    0.05    0.22 
   1   0  -9   -0.15    0.08 
   1   0  -9    0.28    0.30 
   0   0   9    0.22    0.27 
   0   0  -9    0.17    0.25 
   0   0  -9    0.14    0.23 
   0   0  -9    0.29    0.31 
   1   0   9    0.05    0.27 
   1   0   9    0.00    0.21 
  -1   0  -9   -0.02    0.34 
  -1   0  -9    0.16    0.23 
  -2   0  -9   -0.15    0.24 
   2   0   9   -0.31    0.24 
   2   0   9   -0.25    0.25 
  -2   0  -9   -0.06    0.24 
  -3   0  -9    0.02    0.25 
   3   0   9    0.22    0.24 
   3   0   9    0.43    0.41 
   3   0   9   -0.55    0.39 
  -3   0  -9    0.20    0.47 
  -3   0  -9   -0.06    0.12 
  -4   0  -9   -0.03    0.29 
  -4   0  -9   -0.03    0.55 
   4   0   9    0.21    0.57 
   5   0   9    0.40    0.75 
  -5   0  -9    1.36    0.75 
  -5   0  -9   -0.02    0.35 
  -6   0  -9    1.31    0.84 
  -6   0  -9   -0.26    0.34 
  -6  -1   9    1.27    1.00 
  -6  -1   9   -0.10    0.25 
  -6   1   9    0.24    0.84 
  -6   1   9    0.10    0.26 
   6   1  -9   -0.18    0.90 
   5  -1  -9    2.89    1.04 
  -5  -1   9    1.75    0.42 
  -5  -1   9    1.79    0.83 
  -5   1   9    2.03    0.40 
   5   1  -9    3.05    1.11 
  -4  -1   9   31.35    1.88 
  -4  -1   9   30.71    1.85 
   4  -1  -9   29.33    2.41 
   4   1  -9   26.98    2.42 
  -4   1   9   28.97    1.81 
   3  -1  -9    1.06    0.57 
  -3  -1   9    0.34    0.27 
  -3   1   9    0.61    0.28 
  -3   1   9    1.10    0.25 
   3   1  -9    0.69    0.48 
  -2  -1   9    4.77    0.56 
   2  -1  -9    4.04    0.68 
   2  -1  -9    4.81    0.45 
   2  -1  -9    5.17    0.47 
   2   1  -9    5.76    0.50 
   2   1  -9    5.26    0.47 
  -2   1   9    5.52    0.59 
   2   1  -9    5.00    0.74 
  -2   1   9    5.06    0.52 
  -2   1   9    4.53    0.53 
  -1  -1   9   16.73    1.11 
   1  -1  -9   14.20    1.10 
   1  -1  -9   14.21    1.06 
  -1   1   9   15.24    1.07 
   1   1  -9   14.76    1.07 
   1   1  -9   13.34    1.17 
  -1   1   9   12.89    1.17 
   1   1  -9   14.38    1.04 
   0  -1   9   17.17    1.25 
   0  -1  -9   18.18    1.27 
   0  -1  -9   19.81    1.24 
   0  -1  -9   15.98    1.29 
   0  -1   9   18.62    1.26 
   0   1   9   17.46    1.25 
   0   1  -9   18.15    1.26 
   0   1  -9   16.61    1.23 
   0   1  -9   18.29    1.34 
  -1  -1  -9   50.00    2.83 
  -1  -1  -9   47.09    2.99 
   1  -1   9   48.64    2.82 
  -1   1  -9   46.43    2.99 
  -1   1  -9   49.68    2.82 
   1   1   9   49.01    2.64 
   1   1   9   47.97    2.87 
   2  -1   9    1.66    0.43 
   2  -1   9    0.59    0.26 
  -2  -1  -9    0.77    0.34 
  -2  -1  -9    1.04    0.46 
   2   1   9    1.19    0.43 
  -2   1  -9    1.23    0.37 
   2   1   9    1.22    0.45 
  -2   1  -9    1.06    0.47 
  -2   1  -9    1.05    0.28 
  -3  -1  -9   11.73    1.25 
   3  -1   9   12.11    1.01 
  -3  -1  -9   12.58    1.06 
   3  -1   9   10.28    1.18 
   3   1   9   10.81    1.05 
   3   1   9    8.99    1.25 
  -3   1  -9   11.77    1.02 
  -3   1  -9   13.05    1.29 
   3   1   9   13.69    1.01 
  -4  -1  -9    5.25    0.90 
   4  -1   9    4.94    1.06 
  -4  -1  -9    5.32    0.72 
  -4   1  -9    5.93    1.07 
   4   1   9    4.45    1.08 
  -4   1  -9    2.34    0.56 
  -5  -1  -9    7.83    0.92 
  -5  -1  -9    7.61    1.28 
   5   1   9    6.10    1.39 
  -5   1  -9    9.42    1.38 
  -5   1  -9    9.36    0.97 
  -6  -1  -9   -0.07    0.43 
  -6  -1  -9   -0.65    0.62 
  -6   1  -9    0.26    0.44 
  -6   1  -9   -0.39    0.69 
  -6  -2   9    0.47    1.02 
  -6  -2   9    0.19    0.31 
  -6   2   9    0.25    0.84 
  -6   2   9   -0.05    0.25 
   6   2  -9   -1.95    0.78 
   5  -2  -9    1.62    0.87 
  -5  -2   9    0.08    0.59 
  -5  -2   9    1.31    0.41 
   5   2  -9    1.59    0.98 
  -5   2   9    0.77    0.30 
  -4  -2   9   16.96    1.28 
  -4  -2   9   17.98    1.25 
  -4  -2   9   13.55    1.62 
   4  -2  -9   13.99    1.56 
  -4   2   9   16.39    1.14 
   4   2  -9   15.60    1.76 
   3  -2  -9   23.25    1.77 
  -3  -2   9   21.42    1.45 
  -3  -2   9   21.95    1.49 
  -3   2   9   22.63    1.35 
   3   2  -9   17.96    1.88 
  -3   2   9   21.17    1.41 
   2  -2  -9    7.22    0.58 
   2  -2  -9    6.08    0.75 
   2  -2  -9    6.69    0.54 
  -2  -2   9    7.35    0.70 
   2   2  -9    6.81    0.97 
   2   2  -9    6.85    0.56 
   2   2  -9    6.78    0.61 
  -2   2   9    6.97    0.66 
  -2   2   9    6.85    0.66 
  -1  -2   9   10.88    1.01 
   1  -2  -9   11.19    0.89 
   1  -2  -9   10.97    0.90 
  -1  -2   9   10.33    0.85 
   1   2  -9   11.42    0.89 
   1   2  -9   10.23    1.02 
   1   2  -9    9.09    0.84 
  -1   2   9   10.80    0.90 
   0  -2  -9   79.37    4.40 
   0  -2   9   82.55    4.48 
   0  -2   9   79.31    4.41 
   0  -2  -9   83.69    4.47 
   0   2  -9   81.77    4.48 
   0   2  -9   78.83    4.44 
   0   2   9   81.55    4.51 
   0   2  -9   78.62    4.54 
   1  -2   9    6.63    0.70 
  -1  -2  -9    8.34    0.74 
  -1  -2  -9    7.63    0.90 
  -1  -2  -9    7.08    0.75 
  -1   2  -9    7.76    0.67 
   1   2   9    8.44    0.57 
  -1   2  -9    7.47    0.73 
   1   2   9    6.95    0.78 
  -1   2  -9    7.66    0.93 
   1   2   9    5.35    0.77 
   2  -2   9    2.48    0.48 
  -2  -2  -9    3.43    0.63 
  -2  -2  -9    2.72    0.51 
  -2   2  -9    2.99    0.45 
  -2   2  -9    2.95    0.61 
   2   2   9    2.80    0.76 
   2   2   9    3.16    0.61 
   2   2   9    2.81    0.59 
  -2   2  -9    2.70    0.49 
   2   2   9    2.80    0.60 
  -3  -2  -9    2.31    0.54 
  -3  -2  -9    1.85    0.68 
   3   2   9    3.23    0.90 
   3   2   9    2.34    0.62 
  -3   2  -9    2.48    0.50 
   3   2   9    4.16    0.68 
  -3   2  -9    3.61    0.83 
   4  -2   9    0.60    0.59 
  -4  -2  -9    0.05    0.38 
  -4  -2  -9    0.70    0.61 
  -4   2  -9    0.22    0.35 
   4   2   9    0.86    0.76 
  -4   2  -9    0.26    0.47 
  -5  -2  -9   -0.23    0.60 
  -5  -2  -9    0.36    0.42 
  -5   2  -9   -0.16    0.31 
  -5   2  -9    0.86    0.68 
   5   2   9   -0.15    0.72 
  -6  -2  -9    2.19    0.70 
  -6   2  -9    1.71    0.60 
  -6   2  -9    2.99    1.09 
  -6  -3   9    0.43    0.37 
  -6  -3   9   -1.06    0.88 
  -6   3   9   -0.29    0.28 
   6   3  -9   -1.20    0.98 
  -5  -3   9   10.03    1.00 
  -5  -3   9   10.74    1.73 
   5  -3  -9   11.92    1.53 
  -5   3   9   11.01    0.92 
   5   3  -9   11.47    1.81 
  -4  -3   9    5.73    1.23 
  -4  -3   9    5.25    0.71 
   4  -3  -9    7.20    1.09 
  -4   3   9    5.32    0.62 
   4   3  -9    6.27    1.36 
  -3  -3   9    0.52    0.34 
  -3  -3   9    1.33    0.62 
  -3  -3   9    1.24    0.39 
   3  -3  -9    0.95    0.49 
   3   3  -9    1.90    0.82 
  -3   3   9    1.09    0.32 
  -3   3   9    1.00    0.35 
   2  -3  -9    0.17    0.17 
   2  -3  -9    0.40    0.23 
  -2  -3   9    0.40    0.31 
  -2  -3   9    0.27    0.33 
  -2  -3   9    0.22    0.28 
   2  -3  -9    0.62    0.38 
   2   3  -9    0.35    0.21 
   2   3  -9    0.43    0.26 
   2   3  -9    0.31    0.20 
  -2   3   9    0.40    0.30 
   2   3  -9    0.47    0.50 
  -1  -3   9   13.20    1.00 
   1  -3  -9   12.90    1.01 
  -1  -3   9   12.69    1.08 
   1  -3  -9   11.96    0.91 
  -1   3   9   11.88    0.99 
   1   3  -9   11.43    1.11 
   1   3  -9   11.13    0.98 
  -1   3   9   11.59    1.02 
   1   3  -9   13.76    1.01 
   0  -3   9    6.81    0.77 
   0  -3   9    6.60    0.70 
   0  -3  -9    8.50    0.78 
   0  -3  -9    6.39    0.68 
   0   3  -9    7.53    0.73 
   0   3  -9    7.35    0.78 
   0   3  -9    6.68    0.78 
   0   3   9    6.15    0.77 
   0   3  -9    7.21    0.75 
  -1  -3  -9    0.86    0.31 
   1  -3   9    0.54    0.31 
   1  -3   9    1.08    0.37 
  -1  -3  -9    0.70    0.30 
  -1   3  -9    0.92    0.46 
  -1   3  -9    1.10    0.35 
   1   3   9    0.32    0.51 
  -1   3  -9    0.76    0.28 
   1   3   9    0.39    0.38 
  -1   3  -9    0.70    0.31 
   2  -3   9    2.73    0.46 
  -2  -3  -9    1.40    0.47 
  -2  -3  -9    2.27    0.48 
   2  -3   9    1.79    0.37 
   2   3   9    2.10    0.65 
   2   3   9    1.63    0.53 
  -2   3  -9    0.86    0.36 
  -2   3  -9    1.99    0.44 
  -2   3  -9    1.99    0.64 
   2   3   9    1.52    0.57 
   2   3   9    2.00    0.62 
  -3  -3  -9    0.82    0.45 
  -3   3  -9    0.02    0.27 
   3   3   9    0.45    0.48 
   3   3   9    0.86    0.67 
   3   3   9    0.57    0.49 
  -3   3  -9    0.38    0.42 
  -4  -3  -9    4.81    0.79 
   4  -3   9    4.86    0.91 
   4   3   9    5.97    1.30 
  -4   3  -9    3.76    0.68 
  -4   3  -9    4.67    0.92 
  -5  -3  -9    2.40    0.70 
  -5   3  -9    2.52    0.97 
   5   3   9    3.57    1.17 
  -5   3  -9    1.72    0.55 
  -6  -3  -9    0.30    0.55 
  -6   3  -9   -0.21    0.73 
  -6   3  -9    0.21    0.46 
  -6  -4   9    1.10    0.50 
  -6  -4   9    0.94    0.91 
  -6   4   9    0.46    0.39 
   6   4  -9    2.04    1.19 
  -5  -4   9    1.48    0.51 
  -5  -4   9    0.79    0.95 
   5   4  -9    0.31    0.91 
  -5   4   9    0.80    0.40 
  -4  -4   9   52.56    3.35 
   4  -4  -9   57.79    3.61 
  -4  -4   9   58.37    4.12 
  -4   4   9   60.79    3.32 
   4   4  -9   52.94    4.12 
  -3  -4   9    0.89    0.41 
   3  -4  -9    0.73    0.43 
  -3  -4   9    0.85    0.41 
  -3  -4   9    0.43    0.54 
  -3  -4   9    0.32    0.70 
  -3   4   9    0.56    0.35 
   3   4  -9   -0.18    0.42 
   2  -4  -9   16.88    1.17 
  -2  -4   9   19.35    1.34 
  -2  -4   9   17.82    1.49 
   2  -4  -9   17.90    1.28 
  -2  -4   9   16.76    1.65 
  -2  -4   9   18.98    1.37 
   2   4  -9   16.27    1.60 
  -2   4   9   17.72    1.34 
   2   4  -9   17.55    1.24 
   2   4  -9   18.00    1.17 
  -1  -4   9   22.14    1.76 
  -1  -4   9   23.49    1.67 
   1  -4  -9   21.47    1.54 
  -1  -4   9   23.77    1.58 
   1  -4  -9   22.33    1.42 
   1   4  -9   20.43    1.53 
   1   4  -9   20.68    1.70 
  -1   4   9   21.70    1.60 
   1   4  -9   22.26    1.53 
  -1   4   9   24.61    1.57 
   0  -4   9   16.66    1.40 
   0  -4  -9   14.82    1.21 
   0  -4  -9   18.67    1.34 
   0  -4   9   18.81    1.39 
   0  -4   9   15.07    1.21 
   0   4   9   18.06    1.38 
   0   4  -9   16.78    1.26 
   0   4   9   17.27    1.46 
   0   4  -9   18.43    1.34 
   0   4  -9   15.94    1.35 
   0   4  -9   16.98    1.32 
   0   4  -9   16.59    1.31 
  -1  -4  -9   49.12    2.91 
   1  -4   9   50.43    2.93 
   1  -4   9   46.57    2.81 
  -1  -4  -9   46.36    2.90 
  -1   4  -9   47.08    2.90 
   1   4   9   47.29    3.17 
  -1   4  -9   47.74    3.08 
  -1   4  -9   49.99    2.89 
  -1   4  -9   48.87    2.86 
  -1   4  -9   46.33    2.86 
   1   4   9   50.53    3.10 
   1   4   9   50.87    3.06 
   2  -4   9    0.09    0.27 
   2  -4   9    0.29    0.27 
  -2  -4  -9   -0.01    0.31 
  -2  -4  -9    0.37    0.25 
  -2   4  -9    0.20    0.28 
   2   4   9   -0.14    0.32 
  -2   4  -9    0.13    0.32 
  -2   4  -9    0.04    0.32 
   2   4   9    0.49    0.44 
   2   4   9    0.28    0.43 
  -3  -4  -9    0.75    0.43 
  -3  -4  -9    0.99    0.49 
   3   4   9    1.13    0.76 
   3   4   9    0.30    0.50 
  -3   4  -9    1.88    0.63 
  -3   4  -9    0.85    0.39 
  -4  -4  -9    0.23    0.39 
   4  -4   9   -0.55    0.38 
  -4  -4  -9   -0.02    0.40 
   4   4   9   -0.02    0.54 
  -4   4  -9    0.12    0.42 
  -4   4  -9    0.16    0.37 
  -5  -4  -9   -0.18    0.48 
   5   4   9    1.35    0.93 
  -5   4  -9    0.87    0.48 
  -5   4  -9   -0.41    0.56 
  -6   4  -9    1.76    0.69 
  -6   4  -9    2.19    1.06 
  -6  -5   9   -0.51    0.41 
  -6  -5   9   -0.76    1.04 
   6   5  -9   -0.93    0.71 
  -6   5   9    0.87    0.53 
  -5  -5   9    7.04    1.58 
  -5  -5   9    6.62    0.93 
   5   5  -9    7.75    1.74 
  -5   5   9    7.38    0.90 
  -4  -5   9    4.68    1.33 
  -4  -5   9    3.85    0.75 
   4  -5  -9    8.00    0.99 
  -4   5   9    4.20    0.72 
   4   5  -9    4.17    1.22 
  -3  -5   9    3.72    1.03 
  -3  -5   9    5.05    0.71 
  -3  -5   9    4.26    0.73 
  -3  -5   9    3.69    0.78 
   3  -5  -9    4.10    0.69 
   3   5  -9    5.10    0.37 
   3   5  -9    5.15    1.28 
  -3   5   9    5.13    0.74 
   2  -5  -9    1.51    0.40 
  -2  -5   9    2.35    0.70 
  -2  -5   9    1.64    0.47 
   2  -5  -9    1.63    0.41 
  -2  -5   9    1.95    0.53 
  -2  -5   9    3.20    0.75 
   2   5  -9    3.68    0.89 
  -2   5   9    1.97    0.52 
   2   5  -9    1.90    0.47 
  -1  -5   9   95.47    5.33 
  -1  -5   9   98.79    5.49 
   1  -5  -9   96.90    5.32 
  -1  -5   9   97.69    5.64 
  -1  -5   9   98.17    5.29 
  -1   5   9   98.69    5.44 
   1   5  -9   95.90    5.32 
  -1   5   9   85.96    5.46 
   1   5  -9   96.65    5.58 
   0  -5   9   18.25    1.50 
   0  -5  -9   22.26    1.46 
   0  -5   9   20.99    1.65 
   0  -5  -9   20.47    1.48 
   0  -5   9   18.48    1.41 
   0   5  -9   21.30    1.57 
   0   5  -9   19.98    1.48 
   0   5   9   17.28    1.52 
   0   5   9   19.32    1.65 
   0   5   9   20.56    1.46 
   0   5  -9   19.57    1.54 
   0   5  -9   19.29    1.48 
  -1  -5  -9    9.57    1.00 
  -1  -5  -9   12.39    1.09 
   1  -5   9   12.02    0.98 
   1  -5   9   13.17    1.10 
  -1   5  -9   10.53    0.96 
   1   5   9   11.40    1.15 
   1   5   9    9.41    1.14 
  -1   5  -9   12.96    1.05 
   1   5   9   11.72    1.28 
  -1   5  -9   11.42    1.03 
  -1   5  -9    9.38    1.00 
  -2  -5  -9    4.63    0.69 
   2  -5   9    6.11    0.65 
   2  -5   9    4.26    0.70 
  -2  -5  -9    4.50    0.74 
  -2   5  -9    4.67    0.82 
  -2   5  -9    6.39    0.68 
   2   5   9    4.79    1.05 
  -2   5  -9    5.15    0.74 
  -2   5  -9    3.37    0.65 
   2   5   9    4.81    0.86 
   2   5   9    5.25    0.87 
  -3  -5  -9   -0.22    0.31 
  -3  -5  -9    0.12    0.37 
  -3  -5  -9   -0.06    0.40 
  -3   5  -9   -0.20    0.32 
  -3   5  -9    0.13    0.43 
   3   5   9    0.41    0.54 
   3   5   9    1.43    0.71 
  -4  -5  -9    5.31    0.91 
  -4  -5  -9    8.08    0.96 
  -4   5  -9    5.61    1.15 
   4   5   9    6.18    1.45 
  -4   5  -9    6.33    0.85 
  -5  -5  -9   -0.23    0.48 
  -5   5  -9    0.00    0.49 
  -5   5  -9    0.25    0.42 
   5   5   9   -0.79    0.78 
  -6   5  -9    1.12    0.78 
  -6  -6   9    4.85    0.95 
   6   6  -9    4.89    1.64 
  -6   6   9    6.45    1.03 
  -5  -6   9    7.13    1.02 
  -5  -6   9    7.80    1.50 
  -5   6   9    5.69    0.94 
   5   6  -9    8.72    1.84 
  -4  -6   9    4.33    0.86 
  -4  -6   9    6.00    1.55 
   4  -6  -9    6.97    0.87 
  -4   6   9    6.14    0.84 
   4   6  -9    7.97    1.63 
  -4   6   9    5.63    0.83 
  -3  -6   9    2.15    0.61 
  -3  -6   9    0.71    0.64 
   3  -6  -9    2.32    0.54 
  -3  -6   9    3.13    0.69 
  -3  -6   9    2.32    0.87 
   3   6  -9    3.35    1.11 
   3   6  -9    2.37    0.35 
  -3   6   9    2.03    0.60 
  -3   6   9    1.91    0.63 
  -2  -6   9   23.99    1.82 
  -2  -6   9   24.72    1.78 
  -2  -6   9   24.44    1.93 
   2  -6  -9   27.82    1.62 
  -2  -6   9   22.49    2.17 
   2  -6  -9   25.37    1.64 
  -2   6   9   24.75    1.91 
   2   6  -9   23.88    1.69 
  -2   6   9   25.30    1.89 
   2   6  -9   26.24    2.20 
  -1  -6   9   27.97    2.10 
  -1  -6   9   31.50    2.33 
  -1  -6   9   29.10    1.99 
   1  -6  -9   28.98    2.03 
  -1  -6   9   29.05    1.97 
  -1   6   9   28.73    2.11 
   1   6  -9   32.91    2.35 
  -1   6   9   26.76    2.18 
   1   6  -9   31.86    2.05 
   0  -6   9    0.14    0.35 
   0  -6  -9    0.56    0.32 
   0  -6   9    0.41    0.34 
   0  -6  -9    0.09    0.35 
   0   6   9    0.57    0.53 
   0   6  -9    0.41    0.43 
   0   6  -9    0.76    0.47 
   0   6   9    0.47    0.37 
   0   6   9    0.11    0.48 
   0   6  -9    0.10    0.34 
   0   6   9    0.03    0.32 
   0   6  -9    0.82    0.45 
  -1  -6  -9    9.12    0.99 
  -1  -6  -9   10.63    1.05 
   1  -6   9   10.82    0.94 
   1  -6   9    9.25    1.00 
   1   6   9    7.24    1.00 
   1   6   9   10.35    1.26 
  -1   6  -9    9.70    1.02 
  -1   6  -9   10.29    0.99 
   1   6   9    8.64    1.14 
  -1   6  -9   10.76    1.04 
  -1   6  -9    8.16    0.93 
  -2  -6  -9    1.03    0.49 
   2  -6   9    0.90    0.39 
  -2  -6  -9    0.66    0.44 
  -2  -6  -9    0.70    0.43 
  -2   6  -9    0.39    0.32 
  -2   6  -9    0.66    0.41 
   2   6   9    0.37    0.69 
   2   6   9    0.76    0.55 
  -2   6  -9    0.58    0.43 
   2   6   9   -0.19    0.47 
  -3  -6  -9    1.23    0.53 
  -3  -6  -9    0.70    0.46 
  -3  -6  -9    1.44    0.61 
   3   6   9   -0.43    0.70 
   3   6   9    0.92    0.59 
  -3   6  -9    0.50    0.34 
  -3   6  -9    0.59    0.66 
  -3   6  -9    1.02    0.49 
  -4  -6  -9    0.37    0.53 
  -4  -6  -9    0.61    0.60 
  -4   6  -9    0.15    0.44 
   4   6   9   -0.19    0.89 
  -4   6  -9   -0.40    0.38 
  -5   6  -9    0.43    0.73 
   5   6   9    0.93    1.10 
  -5   6  -9    0.01    0.43 
  -5  -7   9    9.53    1.95 
  -5  -7   9   13.53    1.41 
  -5   7   9   11.89    1.36 
  -5   7   9   11.93    1.38 
   5   7  -9   15.15    2.12 
  -4  -7   9    8.48    1.09 
  -4  -7   9    7.95    1.47 
   4   7  -9    9.98    1.82 
  -4   7   9    8.80    1.16 
   3  -7  -9    8.87    0.83 
  -3  -7   9    7.83    1.02 
  -3  -7   9    6.50    1.00 
  -3  -7   9    8.24    1.22 
  -3  -7   9    8.59    1.36 
  -3   7   9    8.72    1.09 
   3   7  -9    8.77    1.39 
  -3   7   9    7.64    1.05 
  -2  -7   9    0.87    0.64 
   2  -7  -9    2.24    0.54 
   2  -7  -9    1.54    0.36 
  -2  -7   9    1.70    0.56 
  -2  -7   9    2.04    0.58 
  -2  -7   9    1.96    0.62 
  -2   7   9    2.15    0.69 
  -2   7   9    2.95    0.75 
   2   7  -9    1.44    0.81 
  -2   7   9    1.47    0.59 
   2   7  -9    2.23    0.55 
  -1  -7   9    6.25    0.90 
  -1  -7   9    6.74    0.88 
  -1  -7   9    5.99    1.10 
   1  -7  -9    8.55    0.92 
  -1  -7   9    6.96    0.80 
   1   7  -9    5.79    0.84 
  -1   7   9    5.73    0.89 
   1   7  -9    7.92    0.98 
  -1   7   9    7.79    1.09 
  -1   7   9    8.56    1.05 
   1   7  -9    5.76    0.94 
   0  -7  -9   40.20    2.67 
   0  -7  -9   41.07    2.62 
   0  -7   9   43.31    2.87 
   0  -7   9   39.68    2.58 
   0   7   9   40.18    2.85 
   0   7  -9   37.68    2.73 
   0   7   9   43.03    2.63 
   0   7   9   43.00    3.04 
   0   7   9   38.87    2.85 
   0   7  -9   42.60    2.69 
   0   7  -9   40.51    2.69 
   0   7  -9   41.11    2.72 
  -1  -7  -9    3.60    0.70 
   1  -7   9    3.17    0.71 
   1  -7   9    3.66    0.59 
  -1  -7  -9    3.59    0.64 
   1   7   9    4.13    1.10 
   1   7   9    2.78    0.80 
   1   7   9    3.51    0.89 
  -1   7  -9    5.15    0.84 
  -1   7  -9    3.08    0.67 
  -1   7  -9    1.43    0.58 
   1   7   9    2.66    0.59 
  -1   7  -9    2.87    0.62 
  -2  -7  -9    4.93    0.80 
   2  -7   9    4.52    0.72 
  -2  -7  -9    4.42    0.81 
  -2  -7  -9    5.26    0.87 
   2   7   9    4.03    0.94 
  -2   7  -9    3.83    0.66 
  -2   7  -9    4.86    0.81 
   2   7   9    4.91    1.02 
   2   7   9    2.27    0.89 
   2   7   9    4.72    0.46 
  -3  -7  -9    0.24    0.54 
  -3  -7  -9    0.49    0.51 
   3  -7   9    0.33    0.17 
  -3  -7  -9    1.10    0.52 
   3   7   9   -0.23    0.73 
   3   7   9    0.15    0.68 
  -3   7  -9    0.22    0.34 
  -3   7  -9    0.45    0.50 
  -4  -7  -9    1.11    0.67 
  -4  -7  -9    0.79    0.61 
  -4   7  -9   -0.39    0.58 
   4   7   9   -0.40    0.83 
  -4   7  -9    0.47    0.40 
  -4   7  -9    0.00    0.41 
  -5   7  -9    1.26    0.84 
  -5  -8   9   -0.42    0.51 
  -5  -8   9    0.17    0.81 
  -5   8   9   -0.07    0.68 
   5   8  -9    1.21    1.21 
  -5   8   9   -0.14    0.57 
  -4  -8   9   -0.30    0.62 
  -4  -8   9    0.03    0.52 
   4   8  -9   -0.04    0.69 
  -4   8   9    0.62    0.58 
  -4   8   9   -0.42    0.49 
  -3  -8   9   42.23    2.97 
  -3  -8   9   44.08    3.53 
   3  -8  -9   49.08    2.58 
  -3  -8   9   45.36    3.05 
   3   8  -9   40.70    3.49 
  -3   8   9   44.76    3.13 
   3   8  -9   44.03    2.44 
  -3   8   9   44.80    3.07 
  -3   8   9   44.24    3.03 
  -2  -8   9    4.35    0.80 
  -2  -8   9    4.43    0.83 
   2  -8  -9    5.91    0.56 
   2  -8  -9    3.30    0.67 
  -2  -8   9    5.05    1.06 
  -2  -8   9    4.83    0.87 
  -2   8   9    6.25    1.01 
   2   8  -9    6.89    1.28 
  -2   8   9    4.17    0.92 
  -2   8   9    4.96    0.98 
   2   8  -9    5.03    0.79 
  -1  -8   9    0.91    0.54 
  -1  -8   9    0.52    0.50 
  -1  -8   9    0.40    0.41 
  -1  -8   9    0.43    0.54 
   1  -8  -9    0.93    0.50 
  -1   8   9    0.70    0.65 
   1   8  -9    1.00    0.57 
  -1   8   9    0.78    0.60 
  -1   8   9    1.01    0.66 
   1   8  -9    1.29    0.76 
   1   8  -9    0.96    0.50 
   0  -8  -9    0.37    0.44 
   0  -8   9    0.25    0.31 
   0  -8   9   -0.44    0.32 
   0  -8  -9    0.56    0.44 
   0  -8   9    0.08    0.54 
   0   8   9   -0.11    0.38 
   0   8   9    0.57    0.59 
   0   8  -9    0.42    0.47 
   0   8  -9    0.29    0.44 
   0   8  -9    0.40    0.37 
   0   8   9   -0.59    0.50 
   0   8  -9    0.67    0.55 
   0   8   9   -0.25    0.36 
   1  -8   9    3.26    0.77 
  -1  -8  -9    3.36    0.68 
   1  -8   9    3.64    0.62 
  -1  -8  -9    3.20    0.73 
  -1  -8  -9    2.93    0.66 
   1   8   9    1.88    0.80 
  -1   8  -9    4.57    0.76 
  -1   8  -9    3.44    0.67 
   1   8   9    2.71    0.56 
   1   8   9    5.18    1.22 
   1   8   9    4.69    1.09 
  -1   8  -9    3.33    0.68 
  -2  -8  -9    0.63    0.40 
   2  -8   9    0.00    0.39 
  -2  -8  -9    0.53    0.55 
  -2  -8  -9    1.44    0.66 
   2   8   9    0.82    0.74 
  -2   8  -9   -0.01    0.35 
   2   8   9    0.94    0.32 
   2   8   9    0.78    0.70 
   2   8   9    0.70    0.61 
  -2   8  -9   -0.60    0.25 
  -3  -8  -9    7.53    1.08 
  -3  -8  -9    3.09    0.88 
  -3  -8  -9    4.64    0.87 
   3  -8   9    4.43    0.53 
  -3   8  -9    5.73    0.94 
   3   8   9    5.67    1.30 
   3   8   9    6.48    1.10 
  -3   8  -9    5.37    0.75 
  -4  -8  -9    4.28    0.94 
  -4   8  -9    2.36    0.89 
  -4   8  -9    2.91    0.95 
   4   8   9    3.97    1.33 
  -4   8  -9    3.28    0.65 
  -5   8  -9    0.25    0.63 
  -5  -9   9    1.40    0.75 
  -5  -9   9    0.95    1.20 
  -5   9   9    1.27    0.88 
  -5   9   9    1.80    0.92 
   5   9  -9    1.80    1.44 
  -4  -9   9   -0.14    0.52 
  -4  -9   9    0.28    0.99 
  -4   9   9    0.24    0.74 
  -4   9   9   -0.22    0.57 
   4   9  -9    0.59    0.84 
  -3  -9   9   16.50    2.02 
  -3  -9   9   16.98    1.71 
  -3   9   9   19.24    1.86 
  -3   9   9   19.20    1.78 
  -3   9   9   19.29    1.83 
   3   9  -9   18.15    2.12 
   2  -9  -9   10.64    1.11 
   2  -9  -9   12.34    0.85 
  -2  -9   9   10.62    1.28 
  -2  -9   9   10.66    1.41 
  -2  -9   9   10.74    1.23 
  -2  -9   9   12.52    1.73 
  -2   9   9   10.87    1.39 
   2   9  -9   12.40    1.21 
  -2   9   9   12.48    1.46 
  -2   9   9    8.12    1.28 
   2   9  -9   12.13    1.66 
   1  -9  -9    7.54    1.01 
  -1  -9   9    8.15    1.05 
  -1  -9   9    7.95    0.99 
  -1  -9   9    9.10    1.40 
   1   9  -9    7.53    1.16 
  -1   9   9    6.61    1.19 
  -1   9   9    6.81    1.05 
  -1   9   9    9.92    1.39 
   1   9  -9    7.72    1.03 
   1   9  -9    9.01    1.15 
   0  -9   9    1.23    0.54 
   0  -9   9    1.48    0.65 
   0  -9   9    1.52    0.48 
   0  -9  -9    3.46    0.77 
   0   9  -9    2.58    0.73 
   0   9  -9    2.49    0.79 
   0   9  -9    1.94    0.70 
   0   9   9    5.08    1.01 
   0   9   9    1.62    0.74 
   0   9   9    1.45    0.76 
   0   9  -9    1.95    0.72 
   0   9   9    2.00    0.62 
   1  -9   9    4.95    0.76 
  -1  -9  -9    4.16    0.87 
  -1  -9  -9    4.28    0.91 
   1  -9   9    3.84    0.88 
  -1  -9  -9    4.04    0.78 
   1   9   9    5.89    0.81 
   1   9   9    4.61    1.07 
  -1   9  -9    5.07    0.78 
  -1   9  -9    6.12    0.96 
   1   9   9    4.90    1.31 
   1   9   9    4.78    1.14 
  -1   9  -9    5.20    0.96 
  -2  -9  -9    0.65    0.60 
  -2  -9  -9    2.49    0.82 
   2  -9   9    1.15    0.58 
  -2  -9  -9    1.11    0.66 
  -2   9  -9    0.91    0.50 
  -2   9  -9    0.74    0.63 
   2   9   9    2.09    0.46 
   2   9   9    1.89    1.13 
   2   9   9    0.64    0.84 
  -3  -9  -9    0.60    0.54 
  -3  -9  -9    0.10    0.40 
   3  -9   9    0.13    0.30 
   3   9   9   -0.47    0.62 
   3   9   9    0.88    0.71 
  -3   9  -9   -0.14    0.63 
  -3   9  -9    0.57    0.41 
  -4  -9  -9    1.93    0.83 
  -4   9  -9    1.92    0.59 
  -5   9  -9   -0.13    0.55 
  -5 -10   9   -0.25    0.83 
  -5 -10   9   -0.13    0.64 
  -5  10   9    0.97    0.85 
   5  10  -9    1.32    1.10 
  -5  10   9    1.87    0.94 
  -4 -10   9   -0.41    0.51 
  -4 -10   9    0.93    0.93 
   4  10  -9    0.04    1.10 
  -4  10   9    1.24    0.82 
  -4  10   9    0.25    0.72 
  -3 -10   9    1.12    0.93 
  -3 -10   9    1.76    0.76 
  -3  10   9    0.03    0.62 
  -3  10   9    0.90    0.81 
   3  10  -9    1.45    1.00 
   3  10  -9    0.42    0.34 
  -3  10   9    0.49    0.73 
   2 -10  -9   17.57    1.11 
  -2 -10   9   18.14    1.65 
   2 -10  -9   16.90    1.46 
  -2 -10   9   14.40    2.01 
  -2 -10   9   17.45    1.71 
   2  10  -9   15.38    1.89 
   2  10  -9   15.99    1.49 
  -2  10   9   16.47    1.80 
  -2  10   9   18.06    1.90 
  -2  10   9   20.56    1.92 
  -1 -10   9   -0.03    0.78 
   1 -10  -9    1.03    0.55 
   1 -10  -9    0.35    0.56 
  -1 -10   9    0.95    0.57 
  -1 -10   9    1.00    0.55 
   1  10  -9    1.67    0.66 
  -1  10   9   -0.11    0.63 
  -1  10   9    1.46    0.80 
  -1  10   9   -0.13    0.63 
   1  10  -9   -0.06    0.68 
   1  10  -9    0.52    0.62 
   0 -10   9    4.26    0.71 
   0 -10   9    4.83    0.79 
   0 -10   9    1.46    0.88 
   0 -10  -9    3.33    0.85 
   0  10   9    2.56    1.07 
   0  10  -9    4.68    0.99 
   0  10  -9    3.86    0.92 
   0  10  -9    2.84    0.70 
   0  10   9    2.01    0.84 
   0  10   9    2.00    0.91 
   0  10  -9    3.91    1.01 
   1 -10   9    0.00    0.57 
   1 -10   9    1.45    0.56 
  -1 -10  -9    1.18    0.59 
  -1 -10  -9    0.87    0.60 
  -1  10  -9    1.23    0.69 
   1  10   9    0.04    0.68 
   1  10   9    1.23    0.85 
  -1  10  -9    0.34    0.54 
   1  10   9    0.71    0.52 
   1  10   9    1.25    0.97 
  -1  10  -9    1.72    0.73 
  -2 -10  -9    5.33    1.08 
   2 -10   9    4.45    0.94 
  -2 -10  -9    6.03    1.03 
   2  10   9    5.47    0.74 
   2  10   9    3.79    1.04 
   2  10   9    5.59    1.32 
  -2  10  -9    4.39    0.83 
  -3 -10  -9    3.14    1.01 
  -3 -10  -9    5.09    1.10 
  -3  10  -9    4.88    0.88 
   3  10   9    5.69    1.30 
   3  10   9    7.99    1.95 
  -4 -10  -9    8.85    1.38 
  -4  10  -9    9.73    1.06 
  -5  10  -9    0.58    0.71 
  -5 -11   9    0.85    1.39 
  -5 -11   9    0.76    0.84 
   5  11  -9    0.87    1.52 
  -5  11   9    2.28    1.14 
  -5  11   9    1.57    1.03 
  -4 -11   9   -1.21    0.61 
  -4 -11   9   -0.56    0.55 
   4  11  -9    0.52    0.90 
  -4  11   9   -0.89    0.71 
  -4  11   9    0.55    0.92 
   3 -11  -9    1.76    0.25 
  -3 -11   9    2.10    0.89 
  -3 -11   9    0.59    1.08 
   3  11  -9    1.89    1.15 
  -3  11   9    1.36    0.97 
  -3  11   9    2.80    1.09 
   3  11  -9    1.99    0.58 
  -3  11   9    2.40    0.90 
  -2 -11   9    1.40    0.72 
  -2 -11   9    0.54    0.56 
  -2 -11   9    1.98    0.96 
   2 -11  -9    1.38    0.32 
   2 -11  -9    0.77    0.54 
  -2  11   9    1.15    0.90 
   2  11  -9    1.67    0.94 
  -2  11   9    1.68    0.99 
  -2  11   9    0.88    0.83 
   1 -11  -9    0.31    0.54 
  -1 -11   9   -0.41    0.72 
  -1 -11   9    0.67    0.61 
   1 -11  -9   -0.15    0.51 
  -1 -11   9   -0.38    0.50 
  -1  11   9   -0.12    0.70 
   1  11  -9   -0.03    0.39 
  -1  11   9   -0.34    0.73 
   1  11  -9    1.86    0.70 
   1  11  -9   -0.08    0.48 
  -1  11   9    0.11    0.81 
   0 -11  -9    1.16    0.60 
   0 -11   9    0.38    0.53 
   0 -11   9    1.52    0.89 
   0 -11   9    0.52    0.52 
   0  11  -9    1.13    0.71 
   0  11   9    0.91    0.76 
   0  11  -9    1.07    0.79 
   0  11   9    0.82    0.92 
   0  11  -9    0.78    0.65 
   0  11   9   -0.44    0.71 
  -1 -11  -9    0.96    0.65 
  -1 -11  -9    2.57    0.93 
   1 -11   9    1.48    0.77 
   1  11   9    1.26    0.83 
   1  11   9    0.86    0.84 
  -1  11  -9    0.25    0.58 
  -1  11  -9    2.07    0.82 
   1  11   9    1.68    0.64 
  -2 -11  -9    3.52    0.93 
   2 -11   9    3.29    0.87 
  -2 -11  -9    5.08    0.99 
   2  11   9    3.07    1.14 
   2  11   9    4.56    1.46 
  -2  11  -9    4.75    0.90 
   2  11   9    4.29    0.75 
  -2  11  -9    4.42    0.93 
  -3 -11  -9    3.18    1.09 
   3  11   9    2.42    1.04 
  -3  11  -9    2.53    0.71 
  -4 -11  -9    1.46    0.93 
  -4 -12   9    0.06    1.17 
  -4 -12   9   -0.65    0.65 
   4  12  -9    1.36    1.41 
  -4  12   9   -0.92    0.73 
  -4  12   9   -0.09    0.81 
  -3 -12   9   22.77    2.11 
   3 -12  -9   19.61    1.21 
  -3 -12   9   19.27    2.56 
   3  12  -9   17.26    2.53 
  -3  12   9   18.20    2.23 
  -3  12   9   22.83    2.28 
   2 -12  -9   -0.28    0.44 
  -2 -12   9    0.24    0.66 
  -2 -12   9   -0.56    0.43 
  -2 -12   9   -0.06    0.69 
  -2  12   9   -1.51    0.67 
  -2  12   9    0.14    0.68 
  -2  12   9    1.61    1.00 
   2  12  -9    0.00    0.59 
   2  12  -9    0.59    0.68 
   1 -12  -9    1.18    0.69 
  -1 -12   9    0.18    0.91 
  -1 -12   9    0.91    0.69 
  -1 -12   9    1.35    0.69 
   1  12  -9    1.38    0.79 
  -1  12   9    0.88    0.92 
   1  12  -9    0.79    0.86 
  -1  12   9    0.06    0.86 
  -1  12   9    1.77    0.97 
   0 -12  -9    3.14    0.99 
   0 -12   9    5.74    1.13 
   0 -12   9    5.24    0.92 
   0  12  -9    5.39    1.19 
   0  12   9    5.02    1.13 
   0  12   9    5.18    1.25 
   0  12  -9    3.85    1.09 
  -1 -12  -9   10.34    1.36 
  -1 -12  -9    7.60    1.20 
   1 -12   9    8.83    1.37 
   1  12   9    6.40    1.46 
  -1  12  -9   10.25    1.37 
  -1  12  -9    8.76    1.33 
   1  12   9    6.88    1.48 
  -2 -12  -9    0.37    0.53 
   2 -12   9    0.95    0.66 
  -2 -12  -9    0.90    0.63 
  -2  12  -9    1.57    0.75 
  -2  12  -9    1.42    0.73 
   2  12   9    1.78    0.62 
   2  12   9    1.54    0.87 
  -3 -12  -9    5.15    1.36 
   3  12   9    5.11    1.32 
  -3  12  -9    5.65    1.03 
  -4 -12  -9    0.16    0.76 
  -4 -13   9    2.69    1.11 
  -4 -13   9    2.29    1.39 
  -4  13   9    1.73    1.23 
  -4  13   9    1.37    1.00 
   4  13  -9    0.88    1.45 
  -3 -13   9    1.36    1.09 
   3 -13  -9    2.56    0.47 
  -3 -13   9    2.58    1.04 
  -3  13   9    4.56    1.40 
  -3  13   9    3.29    1.24 
   3  13  -9    1.05    1.25 
  -2 -13   9    3.21    1.40 
  -2 -13   9    4.23    1.24 
   2 -13  -9    3.86    0.86 
  -2 -13   9    4.35    1.28 
  -2  13   9    3.10    1.28 
  -2  13   9    5.07    1.55 
  -2  13   9    4.61    1.32 
   2  13  -9    3.94    1.28 
   1 -13  -9    0.59    0.67 
  -1 -13   9    1.96    0.82 
  -1 -13   9    1.93    0.98 
  -1  13   9    3.34    1.26 
   1  13  -9    0.90    0.79 
  -1  13   9    0.38    0.92 
   0 -13   9    7.57    1.49 
   0 -13   9    7.95    1.05 
   0 -13  -9    8.93    1.34 
   0  13  -9    6.77    1.25 
   0  13   9    7.68    1.57 
   0  13  -9    8.81    1.25 
   0  13   9    9.90    1.86 
  -1 -13  -9    6.40    1.13 
   1 -13   9    3.23    1.14 
  -1 -13  -9    6.48    1.21 
   1  13   9    4.48    1.34 
  -1  13  -9    3.39    1.02 
   1  13   9    3.74    1.82 
  -1  13  -9    4.99    1.16 
   2 -13   9    1.19    0.76 
  -2 -13  -9    2.63    0.90 
  -2 -13  -9    1.44    0.78 
  -2  13  -9    1.11    0.70 
   2  13   9    2.95    1.22 
  -3 -13  -9    1.02    0.87 
   3  13   9    1.76    1.00 
  -4 -13  -9    0.70    0.67 
   3 -14  -9    0.07    0.35 
  -3 -14   9   -1.04    1.06 
   3  14  -9    0.27    0.92 
  -3  14   9    0.69    1.07 
  -2 -14   9    1.47    1.04 
   2 -14  -9    2.86    0.84 
  -2  14   9    4.81    1.38 
   2  14  -9    5.66    1.60 
  -1 -14   9    2.94    1.30 
  -1 -14   9    0.64    0.68 
   1 -14  -9    3.17    0.93 
   1  14  -9    3.95    1.35 
  -1  14   9    1.67    1.20 
  -1  14   9    2.73    1.16 
   0 -14  -9    1.71    0.79 
   0 -14   9    1.11    0.97 
   0 -14   9    1.35    0.70 
   0  14   9    2.86    1.28 
   0  14   9    2.27    1.13 
   0  14  -9    1.21    0.88 
  -1 -14  -9   -0.38    0.65 
   1 -14   9    0.09    0.77 
  -1 -14  -9    0.70    0.65 
  -1  14  -9    0.22    0.69 
   1  14   9    1.43    1.19 
  -2 -14  -9    0.68    0.73 
   2 -14   9    0.41    0.81 
  -2 -14  -9    0.59    0.83 
  -2  14  -9    0.78    0.74 
   2  14   9    1.04    1.17 
  -3 -14  -9    1.14    0.98 
   3  14   9    0.55    0.97 
   3 -15  -9    0.54    0.44 
  -3 -15   9   -0.32    0.83 
  -3  15   9   -0.35    1.10 
   3  15  -9    0.74    1.00 
   2 -15  -9   -0.20    0.52 
  -2 -15   9   -0.18    1.01 
   2  15  -9   -0.55    1.07 
  -2  15   9    0.27    1.00 
   1 -15  -9    0.22    0.68 
  -1 -15   9    0.10    0.66 
  -1 -15   9    1.87    1.25 
  -1  15   9   -0.12    0.94 
   1  15  -9   -1.59    0.69 
   0 -15   9   12.81    1.52 
   0 -15  -9   11.89    1.62 
   0 -15   9   12.40    1.94 
   0  15   9   12.60    1.89 
   0  15  -9   16.20    2.04 
  -1 -15  -9    0.13    0.59 
   1 -15   9   -0.13    0.92 
  -1 -15  -9   -0.04    0.51 
   1  15   9    0.50    0.83 
  -1  15  -9   -0.20    0.77 
  -2 -15  -9    0.73    0.73 
   2 -15   9    0.94    0.89 
  -2 -15  -9    0.15    0.79 
   2  15   9   -0.14    0.96 
  -2  15  -9   -0.49    0.82 
  -3 -15  -9    1.21    0.78 
   3  15   9    0.54    1.05 
  -2 -16   9    6.91    1.65 
   2 -16  -9    5.57    1.13 
   2  16  -9    7.52    2.06 
  -2  16   9    4.95    1.68 
  -1 -16   9    1.45    0.90 
  -1 -16   9    0.19    1.09 
   1 -16  -9    4.01    1.14 
   1  16  -9    1.99    1.26 
  -1  16   9    4.50    1.46 
   0 -16   9   18.57    2.35 
   0 -16  -9   19.57    2.10 
   0 -16   9   19.15    1.90 
   0  16  -9   20.97    2.40 
   0  16   9   14.24    2.36 
   1 -16   9    0.60    0.98 
  -1 -16  -9   -0.39    0.76 
  -1 -16  -9   -0.32    0.55 
  -1  16  -9   -0.24    0.82 
   1  16   9   -1.44    0.93 
  -2 -16  -9    2.29    1.22 
  -2 -16  -9   -0.18    0.95 
   2 -16   9    1.63    1.16 
   2  16   9    1.34    1.11 
  -1 -17   9    7.13    1.36 
   1 -17  -9    9.47    1.48 
  -1 -17   9    5.34    1.67 
  -1  17   9    8.94    2.24 
   1  17  -9    7.81    1.98 
   0 -17   9    0.12    1.05 
   0 -17   9    0.88    0.75 
   0 -17  -9    0.51    0.86 
   0  17   9    2.30    1.45 
   0  17  -9    1.35    1.10 
  -1 -17  -9   -0.33    0.84 
   1 -17   9   -1.13    0.73 
  -1 -17  -9    0.24    0.90 
  -1  17  -9   -0.63    0.72 
   1  17   9    2.05    1.46 
  -6   0  10    3.53    1.30 
  -6   0  10    3.42    0.54 
   6   0 -10    3.17    1.31 
   5   0 -10    1.76    0.94 
  -5   0  10    0.10    0.27 
  -4   0  10   32.43    2.02 
   4   0 -10   33.51    2.70 
  -3   0  10   55.97    3.17 
   3   0 -10   54.57    3.63 
   2   0 -10   14.64    1.29 
   2   0 -10   12.39    0.91 
  -2   0  10   13.19    1.02 
   2   0 -10   13.34    0.93 
  -2   0  10   13.17    0.97 
   1   0 -10   76.49    4.36 
   1   0 -10   76.31    4.22 
   1   0 -10   77.69    4.25 
  -1   0  10   78.84    4.29 
   0   0 -10    0.35    0.25 
   0   0 -10    0.71    0.37 
   0   0  10    0.34    0.23 
   0   0  10    0.43    0.28 
   0   0 -10    0.50    0.24 
   1   0  10  203.46   10.59 
   1   0  10  202.42   10.41 
  -1   0 -10  202.32   10.54 
  -1   0 -10  197.42   10.77 
   2   0  10   48.07    2.76 
  -2   0 -10   47.21    3.15 
  -2   0 -10   48.41    2.86 
   2   0  10   46.66    2.90 
  -3   0 -10    2.50    0.53 
   3   0  10    3.05    0.64 
   3   0  10    3.59    0.50 
  -3   0 -10    2.13    0.68 
   3   0  10    3.48    0.81 
  -4   0 -10   23.01    2.11 
  -4   0 -10   25.93    1.80 
   4   0  10   26.84    2.25 
  -5   0 -10   -0.10    0.37 
   5   0  10    1.40    0.93 
  -5   0 -10    0.32    0.70 
  -6   0 -10   12.25    1.73 
  -6  -1  10    1.12    0.39 
  -6  -1  10    2.24    1.22 
  -6   1  10    1.60    0.41 
   6   1 -10    0.47    1.06 
  -6   1  10    1.49    1.10 
  -5  -1  10   -0.73    0.74 
   5  -1 -10    0.41    0.75 
  -5  -1  10    0.42    0.31 
  -5   1  10    0.37    0.29 
   5   1 -10    0.78    0.89 
   4  -1 -10    2.79    0.87 
  -4  -1  10    0.50    0.32 
  -4   1  10    0.82    0.34 
   4   1 -10    0.81    0.75 
  -3  -1  10    7.71    0.75 
   3  -1 -10    7.47    1.06 
   3   1 -10    8.46    1.21 
  -3   1  10    8.00    0.62 
  -3   1  10    7.60    0.74 
  -2  -1  10   14.84    1.09 
   2  -1 -10   14.91    0.98 
   2  -1 -10   14.53    0.95 
   2  -1 -10   12.69    1.21 
   2   1 -10   14.21    1.31 
  -2   1  10   13.32    1.01 
   2   1 -10   12.65    0.96 
  -2   1  10   13.39    1.05 
   2   1 -10   13.75    0.95 
  -1  -1  10   42.51    2.49 
   1  -1 -10   39.26    2.46 
   1  -1 -10   41.06    2.53 
   1   1 -10   41.69    2.62 
   1   1 -10   43.71    2.53 
   1   1 -10   42.64    2.48 
   1   1 -10   42.19    2.47 
  -1   1  10   42.44    2.50 
   0  -1 -10    9.67    0.93 
   0  -1 -10   10.87    0.85 
   0  -1 -10   10.65    0.91 
   0  -1  10   10.30    0.88 
   0  -1  10    9.68    0.86 
   0   1 -10    8.10    0.91 
   0   1 -10    9.94    0.87 
   0   1  10    8.66    0.88 
   0   1 -10   10.60    0.88 
  -1  -1 -10   54.87    3.29 
   1  -1  10   51.18    3.05 
  -1  -1 -10   55.15    3.07 
  -1   1 -10   50.62    3.23 
   1   1  10   50.67    2.86 
   1   1  10   50.95    3.11 
  -1   1 -10   53.43    3.05 
   2  -1  10   13.09    0.96 
  -2  -1 -10   12.27    1.05 
   2  -1  10   12.54    1.08 
  -2  -1 -10   12.19    1.24 
  -2   1 -10   12.46    1.05 
  -2   1 -10   13.63    1.29 
   2   1  10   12.56    1.07 
   2   1  10   12.31    1.14 
  -3  -1 -10    0.67    0.57 
   3  -1  10    0.57    0.19 
   3  -1  10    0.80    0.54 
  -3  -1 -10    0.74    0.40 
   3   1  10    0.79    0.49 
  -3   1 -10    1.82    0.72 
  -3   1 -10    0.64    0.35 
   3   1  10    1.30    0.69 
   3   1  10    0.20    0.34 
  -3   1 -10    0.35    0.23 
   4  -1  10    2.88    0.88 
  -4  -1 -10    2.88    0.60 
  -4  -1 -10    3.35    0.84 
   4   1  10    1.50    0.83 
  -4   1 -10    3.29    0.62 
  -4   1 -10    2.26    0.78 
  -5  -1 -10    0.24    0.65 
  -5  -1 -10    0.04    0.41 
  -5   1 -10   -0.25    0.30 
   5   1  10    0.59    0.73 
  -5   1 -10   -0.31    0.59 
  -6  -1 -10    5.30    1.40 
  -6   1 -10    7.02    1.27 
  -6  -2  10    0.46    1.03 
  -6  -2  10    0.25    0.33 
   6   2 -10   -0.37    0.98 
  -6   2  10    0.29    0.69 
  -6   2  10   -0.35    0.27 
  -5  -2  10    6.00    0.74 
   5  -2 -10    5.05    1.26 
  -5  -2  10    6.77    1.44 
   5   2 -10    6.53    1.58 
  -5   2  10    7.31    0.70 
  -4  -2  10    1.46    0.88 
   4  -2 -10    2.02    0.78 
  -4  -2  10    1.66    0.47 
  -4   2  10    1.86    0.44 
   4   2 -10    0.92    0.81 
   3  -2 -10   13.77    1.30 
  -3  -2  10   10.01    0.94 
  -3   2  10   13.12    0.97 
  -3   2  10   10.78    0.86 
   3   2 -10   12.21    1.47 
   2  -2 -10    3.94    0.64 
   2  -2 -10    2.50    0.39 
   2  -2 -10    3.16    0.45 
  -2  -2  10    2.79    0.47 
  -2   2  10    2.53    0.46 
  -2   2  10    1.79    0.49 
   2   2 -10    1.77    0.66 
   2   2 -10    3.07    0.47 
   2   2 -10    2.64    0.39 
   1  -2 -10    3.84    0.57 
  -1  -2  10    3.22    0.51 
  -1  -2  10    2.97    0.53 
   1  -2 -10    3.91    0.53 
  -1   2  10    3.25    0.54 
   1   2 -10    3.68    0.52 
   1   2 -10    2.12    0.46 
   1   2 -10    2.87    0.62 
   0  -2 -10   52.77    3.05 
   0  -2  10   53.57    3.06 
   0  -2 -10   52.69    2.99 
   0  -2  10   50.53    3.00 
   0   2 -10   50.56    3.02 
   0   2 -10   52.65    3.08 
   0   2 -10   49.13    3.09 
   0   2  10   52.26    3.10 
  -1  -2 -10    4.13    0.76 
  -1  -2 -10    6.28    0.71 
   1  -2  10    4.29    0.61 
  -1  -2 -10    5.69    0.66 
  -1   2 -10    6.14    0.80 
   1   2  10    3.90    0.69 
   1   2  10    6.82    0.52 
  -1   2 -10    6.12    0.64 
  -1   2 -10    5.71    0.63 
  -2  -2 -10    3.55    0.54 
  -2  -2 -10    4.20    0.72 
   2  -2  10    4.63    0.63 
   2   2  10    2.98    0.81 
  -2   2 -10    3.94    0.73 
   2   2  10    4.18    0.67 
  -2   2 -10    3.42    0.52 
   2   2  10    3.81    0.70 
  -2   2 -10    4.87    0.53 
  -3  -2 -10    4.96    0.84 
  -3  -2 -10    5.04    0.71 
   3   2  10    4.62    0.79 
   3   2  10    3.35    0.96 
   3   2  10    4.10    0.72 
  -3   2 -10    4.57    0.83 
  -3   2 -10    4.50    0.56 
  -3   2 -10    3.66    0.62 
  -4  -2 -10    4.55    1.12 
  -4  -2 -10    4.32    0.74 
   4  -2  10    5.11    1.06 
  -4   2 -10    4.91    0.73 
  -4   2 -10    5.45    0.97 
   4   2  10    5.06    1.22 
  -5  -2 -10    1.71    0.84 
  -5  -2 -10    0.80    0.51 
  -5   2 -10    1.69    0.77 
  -5   2 -10    1.03    0.50 
   5   2  10    2.76    1.11 
  -6   2 -10    2.54    1.13 
  -6  -3  10   -0.37    0.93 
  -6  -3  10    0.10    0.39 
   6   3 -10    0.60    1.16 
  -6   3  10    0.63    0.40 
  -5  -3  10    4.37    0.68 
   5  -3 -10    6.57    1.23 
  -5  -3  10    5.24    1.18 
   5   3 -10    2.48    1.19 
  -5   3  10    4.14    0.63 
  -4  -3  10    2.73    0.56 
  -4  -3  10    2.63    0.88 
   4  -3 -10    2.49    0.83 
  -4   3  10    1.56    0.45 
   4   3 -10    2.13    0.86 
  -3  -3  10    0.63    0.69 
  -3  -3  10    0.32    0.33 
   3  -3 -10    0.21    0.43 
  -3  -3  10    0.55    0.36 
  -3   3  10    0.03    0.27 
   3   3 -10    0.42    0.52 
  -3   3  10   -0.09    0.28 
   2  -3 -10    9.87    0.79 
  -2  -3  10   12.08    1.01 
  -2  -3  10   12.94    1.25 
   2  -3 -10   12.17    0.90 
   2  -3 -10   11.53    1.05 
   2   3 -10   10.76    1.30 
   2   3 -10   11.30    0.85 
   2   3 -10   11.05    0.85 
  -2   3  10   10.67    0.97 
   2   3 -10   12.32    0.94 
  -1  -3  10    1.79    0.37 
   1  -3 -10    2.03    0.48 
   1  -3 -10    2.31    0.42 
  -1  -3  10    0.28    0.29 
  -1   3  10    1.57    0.47 
   1   3 -10    1.85    0.45 
   1   3 -10    1.25    0.53 
   1   3 -10    0.98    0.38 
   0  -3  10    9.07    0.93 
   0  -3 -10    9.13    0.82 
   0  -3 -10   11.59    0.92 
   0  -3  10    8.12    0.81 
   0   3  10   10.01    0.95 
   0   3 -10   10.26    0.90 
   0   3 -10    9.07    0.95 
   0   3 -10   11.29    0.93 
   0   3 -10    8.72    0.93 
  -1  -3 -10    0.16    0.23 
   1  -3  10    0.30    0.28 
  -1  -3 -10    0.15    0.22 
  -1   3 -10    0.33    0.32 
   1   3  10    0.51    0.41 
  -1   3 -10    0.05    0.27 
  -1   3 -10    0.17    0.25 
   1   3  10    0.47    0.39 
  -1   3 -10    0.50    0.26 
   2  -3  10   18.63    1.24 
  -2  -3 -10   19.80    1.44 
  -2  -3 -10   18.17    1.39 
   2  -3  10   17.55    1.33 
   2   3  10   16.02    1.61 
   2   3  10   17.54    1.51 
  -2   3 -10   15.24    1.51 
   2   3  10   15.76    1.50 
  -2   3 -10   19.68    1.40 
  -2   3 -10   19.57    1.31 
  -3  -3 -10   11.23    1.13 
   3   3  10   12.42    1.21 
   3   3  10   12.58    1.23 
  -3   3 -10   11.07    0.99 
   3   3  10    9.47    1.41 
  -3   3 -10   11.83    1.08 
  -3   3 -10   12.38    1.36 
   4  -3  10    7.48    1.11 
  -4  -3 -10    6.45    0.94 
   4   3  10   10.37    1.56 
  -4   3 -10    7.56    1.15 
  -4   3 -10    8.39    0.93 
  -5  -3 -10    0.28    0.51 
  -5   3 -10   -0.42    0.38 
  -5   3 -10   -0.61    0.32 
   5   3  10   -0.34    0.80 
  -6   3 -10    2.00    1.05 
  -6  -4  10    7.54    0.90 
  -6  -4  10    3.65    1.61 
   6   4 -10    6.55    1.76 
  -6   4  10    5.23    0.83 
  -5  -4  10    7.57    1.44 
  -5  -4  10    8.69    0.97 
   5   4 -10    9.23    1.81 
  -5   4  10    8.76    0.94 
  -4  -4  10    1.40    0.93 
   4  -4 -10    3.01    0.80 
  -4  -4  10    2.26    0.60 
  -4   4  10    2.36    0.57 
   4   4 -10    3.43    1.14 
  -3  -4  10   14.78    1.66 
  -3  -4  10   16.89    1.31 
  -3  -4  10   17.14    1.57 
   3  -4 -10   15.13    1.37 
  -3  -4  10   15.92    1.31 
   3   4 -10   16.07    1.74 
  -3   4  10   18.15    1.35 
  -2  -4  10   91.53    5.00 
   2  -4 -10   90.95    5.00 
   2  -4 -10   87.29    4.87 
  -2  -4  10   86.60    5.25 
  -2  -4  10   92.10    5.07 
  -2  -4  10   87.01    5.43 
   2   4 -10   91.63    4.94 
   2   4 -10   91.44    4.86 
   2   4 -10   92.48    5.50 
  -2   4  10   91.78    5.08 
   2   4 -10   90.92    4.84 
   1  -4 -10    8.10    0.73 
  -1  -4  10    7.74    1.05 
  -1  -4  10    8.26    0.89 
   1  -4 -10    6.58    0.80 
  -1  -4  10    7.47    0.80 
   1   4 -10   10.09    0.88 
  -1   4  10    6.59    0.85 
   1   4 -10    7.78    0.94 
   1   4 -10    8.78    0.85 
   0  -4 -10    2.14    0.47 
   0  -4  10    2.39    0.53 
   0  -4  10    2.03    0.46 
   0  -4 -10    3.24    0.58 
   0  -4  10    2.72    0.51 
   0   4 -10    2.43    0.61 
   0   4 -10    1.61    0.46 
   0   4 -10    2.32    0.54 
   0   4 -10    2.17    0.60 
   0   4  10    2.40    0.61 
   1  -4  10   10.54    0.89 
  -1  -4 -10   10.79    0.98 
  -1  -4 -10    9.05    0.94 
   1  -4  10   10.16    0.97 
  -1   4 -10    9.44    1.10 
  -1   4 -10    9.40    0.93 
   1   4  10    8.81    1.06 
   1   4  10   13.24    1.33 
  -1   4 -10    8.99    0.87 
  -1   4 -10   10.20    0.93 
  -1   4 -10    9.84    0.98 
  -2  -4 -10    5.85    0.74 
   2   4  10    6.32    1.01 
  -2   4 -10    4.62    0.63 
  -3  -4 -10    1.25    0.51 
  -3  -4 -10    1.21    0.54 
   3   4  10   -0.42    0.61 
   3   4  10    1.45    0.66 
  -3   4 -10    0.34    0.48 
  -3   4 -10    0.45    0.40 
  -4  -4 -10    2.16    0.68 
   4  -4  10    2.33    0.72 
  -4   4 -10    1.99    0.77 
  -4   4 -10    2.02    0.57 
   4   4  10    3.40    1.15 
  -5  -4 -10    1.47    0.66 
  -5   4 -10    1.46    0.59 
   5   4  10    4.47    1.38 
  -5   4 -10    2.71    1.01 
  -5  -5  10    3.56    0.75 
  -5  -5  10    6.23    1.67 
  -5   5  10    3.82    0.76 
   5   5 -10    4.08    1.42 
  -4  -5  10    6.52    1.41 
  -4  -5  10    5.32    0.79 
   4  -5 -10    4.63    0.87 
   4   5 -10    5.70    1.45 
  -4   5  10    4.80    0.78 
  -3  -5  10   48.65    3.07 
   3  -5 -10   50.74    3.13 
  -3  -5  10   49.02    3.39 
  -3  -5  10   47.37    3.12 
  -3  -5  10   50.98    3.69 
   3   5 -10   54.05    2.71 
   3   5 -10   47.59    3.71 
  -3   5  10   54.01    3.17 
  -2  -5  10    0.21    0.35 
   2  -5 -10    0.56    0.30 
  -2  -5  10    0.54    0.39 
   2  -5 -10    0.30    0.32 
  -2  -5  10   -0.26    0.44 
  -2  -5  10    0.48    0.67 
   2   5 -10    1.16    0.41 
   2   5 -10    0.13    0.24 
  -2   5  10    0.05    0.36 
   2   5 -10    1.08    0.59 
  -1  -5  10    3.58    0.60 
   1  -5 -10    2.99    0.44 
   1  -5 -10    2.35    0.57 
  -1  -5  10    1.94    0.73 
  -1  -5  10    2.39    0.68 
   1   5 -10    2.64    0.56 
   1   5 -10    2.05    0.49 
   1   5 -10    2.97    0.65 
  -1   5  10    1.44    0.49 
   0  -5 -10   20.88    1.43 
   0  -5  10   20.32    1.44 
   0  -5  10   16.52    1.57 
   0  -5 -10   19.31    1.50 
   0  -5  10   21.08    1.61 
   0   5 -10   18.36    1.47 
   0   5 -10   16.81    1.47 
   0   5  10   19.08    1.44 
   0   5 -10   18.51    1.49 
   0   5  10   18.63    1.59 
   0   5  10   21.02    1.73 
   0   5 -10   20.63    1.51 
   1  -5  10    2.35    0.50 
   1  -5  10    2.99    0.71 
  -1  -5 -10    2.79    0.60 
  -1  -5 -10    2.69    0.59 
   1   5  10    2.80    0.71 
  -1   5 -10    2.01    0.47 
  -1   5 -10    2.73    0.61 
  -1   5 -10    2.74    0.55 
  -1   5 -10    2.71    0.50 
   1   5  10    3.39    0.77 
   1   5  10    1.55    0.62 
  -1   5 -10    1.27    0.48 
  -2  -5 -10    0.17    0.33 
   2  -5  10    0.17    0.34 
  -2  -5 -10    0.42    0.43 
  -2   5 -10   -0.09    0.31 
   2   5  10    0.70    0.59 
  -2   5 -10   -0.13    0.49 
  -2   5 -10    0.22    0.31 
  -2   5 -10    0.10    0.33 
   2   5  10    0.32    0.51 
   2   5  10    0.06    0.49 
  -3  -5 -10    1.28    0.57 
  -3  -5 -10    1.20    0.51 
   3   5  10    2.48    0.75 
  -3   5 -10    0.33    0.43 
   3   5  10    1.98    0.87 
  -3   5 -10    0.97    0.47 
  -4  -5 -10    0.21    0.50 
  -4   5 -10    1.17    0.51 
   4   5  10    0.55    0.76 
  -4   5 -10   -0.20    0.65 
  -5   5 -10   -0.38    0.45 
   5   5  10   -0.15    0.99 
  -5   5 -10    0.07    0.51 
  -5  -6  10   10.26    1.18 
  -5  -6  10   11.41    1.96 
  -5   6  10    8.98    1.16 
   5   6 -10   14.76    2.20 
  -4  -6  10    1.67    1.06 
   4  -6 -10    1.52    0.68 
  -4  -6  10    1.04    0.55 
  -4   6  10    0.45    0.50 
  -4   6  10    2.48    0.82 
   4   6 -10    0.64    0.79 
  -3  -6  10   15.94    1.96 
  -3  -6  10   15.53    1.47 
  -3  -6  10   17.53    1.47 
   3  -6 -10   19.92    1.47 
   3   6 -10   18.24    1.16 
  -3   6  10   18.18    1.60 
   3   6 -10   20.37    2.16 
  -3   6  10   20.66    1.61 
   2  -6 -10    0.24    0.37 
  -2  -6  10    0.44    0.44 
  -2  -6  10    0.43    0.39 
  -2  -6  10    0.49    0.43 
  -2  -6  10    0.29    0.53 
   2  -6 -10   -0.06    0.26 
   2   6 -10    0.44    0.39 
  -2   6  10    0.13    0.39 
   2   6 -10    0.45    0.52 
  -2   6  10    0.13    0.43 
  -1  -6  10    1.32    0.44 
  -1  -6  10    1.42    0.53 
  -1  -6  10    2.06    0.72 
  -1  -6  10    1.12    0.47 
   1  -6 -10    1.26    0.49 
   1   6 -10    1.42    0.55 
   1   6 -10    2.59    0.81 
  -1   6  10    1.57    0.61 
  -1   6  10    1.14    0.61 
   0  -6 -10    1.96    0.46 
   0  -6 -10    3.57    0.59 
   0  -6  10    1.23    0.67 
   0  -6  10    3.26    0.58 
   0   6  10    2.74    0.63 
   0   6  10    1.97    0.62 
   0   6 -10    3.79    0.64 
   0   6 -10    2.40    0.52 
   0   6 -10    2.73    0.68 
   0   6  10    3.86    0.89 
   0   6  10    2.13    0.78 
   0   6 -10    2.64    0.68 
   1  -6  10    0.08    0.40 
  -1  -6 -10   -0.15    0.34 
   1  -6  10    0.15    0.32 
  -1  -6 -10   -0.21    0.33 
  -1   6 -10   -0.07    0.32 
   1   6  10    0.07    0.43 
   1   6  10   -0.42    0.48 
  -1   6 -10    0.20    0.30 
   1   6  10    0.44    0.40 
  -1   6 -10   -0.20    0.30 
  -1   6 -10    0.05    0.27 
  -2  -6 -10   -0.24    0.28 
  -2  -6 -10    0.02    0.30 
   2  -6  10    0.07    0.35 
   2   6  10    0.14    0.53 
   2   6  10    0.31    0.61 
   2   6  10    0.20    0.48 
   2   6  10    0.56    0.12 
  -2   6 -10    0.23    0.38 
  -2   6 -10    0.73    0.38 
  -2   6 -10    0.15    0.41 
  -3  -6 -10    1.29    0.54 
  -3  -6 -10    1.28    0.54 
  -3  -6 -10    0.61    0.50 
   3   6  10    1.15    0.74 
   3   6  10    0.26    0.84 
  -3   6 -10    1.02    0.50 
  -3   6 -10    0.18    0.62 
  -3   6 -10    0.43    0.36 
  -4  -6 -10    0.32    0.48 
  -4  -6 -10   -0.42    0.48 
  -4   6 -10    0.42    0.56 
  -4   6 -10    0.47    0.46 
   4   6  10    0.00    0.95 
   5   6  10    0.29    1.12 
  -5   6 -10    0.88    0.86 
  -5  -7  10    0.65    0.88 
  -5  -7  10   -0.50    0.50 
  -5   7  10   -0.25    0.57 
   5   7 -10   -0.86    0.68 
  -5   7  10    0.08    0.52 
  -4  -7  10    5.89    1.60 
  -4  -7  10    5.37    0.98 
  -4   7  10    5.80    1.03 
   4   7 -10    9.19    1.74 
  -3  -7  10    9.51    1.59 
  -3  -7  10    4.79    0.90 
   3  -7 -10   10.23    0.92 
  -3  -7  10    8.33    1.06 
   3   7 -10    7.84    0.47 
  -3   7  10   11.26    1.21 
   3   7 -10    9.34    1.46 
  -3   7  10    9.72    1.18 
   3   7 -10    9.01    0.49 
  -2  -7  10    0.40    0.47 
  -2  -7  10    0.64    0.46 
  -2  -7  10   -0.13    0.38 
   2  -7 -10    0.06    0.24 
  -2  -7  10    0.18    0.54 
   2  -7 -10    0.50    0.39 
   2   7 -10    0.10    0.38 
  -2   7  10    0.33    0.51 
  -2   7  10    0.07    0.47 
   2   7 -10    0.71    0.58 
  -1  -7  10    0.50    0.40 
  -1  -7  10    1.12    0.49 
   1  -7 -10    0.52    0.46 
  -1  -7  10    0.68    0.39 
  -1  -7  10    0.17    0.47 
   1   7 -10   -0.22    0.36 
  -1   7  10    0.83    0.51 
   1   7 -10    0.39    0.43 
  -1   7  10    0.53    0.60 
  -1   7  10    0.08    0.49 
   0  -7 -10    1.85    0.56 
   0  -7  10    0.70    0.59 
   0  -7 -10    1.38    0.55 
   0  -7  10    2.00    0.52 
   0   7  10    1.86    0.71 
   0   7 -10    1.35    0.49 
   0   7 -10    0.84    0.49 
   0   7  10    0.97    0.63 
   0   7 -10    1.84    0.56 
   0   7  10    3.35    0.93 
   0   7 -10    2.08    0.62 
   0   7  10    0.93    0.43 
   1  -7  10    7.90    0.86 
   1  -7  10    8.22    1.02 
  -1  -7 -10    7.92    0.91 
  -1  -7 -10    5.01    0.88 
  -1   7 -10    7.41    0.99 
  -1   7 -10    8.05    0.97 
   1   7  10    8.01    1.05 
  -1   7 -10    7.05    0.92 
   1   7  10    6.32    1.09 
   1   7  10    8.04    1.35 
  -1   7 -10    8.38    0.91 
  -2  -7 -10    3.25    0.77 
   2  -7  10    3.66    0.67 
  -2  -7 -10    2.51    0.74 
   2   7  10    2.78    0.35 
   2   7  10    3.32    0.95 
   2   7  10    2.56    0.94 
  -2   7 -10    2.26    0.60 
   2   7  10    2.66    0.92 
  -2   7 -10    2.27    0.67 
  -2   7 -10    2.18    0.67 
  -3  -7 -10    7.79    1.02 
  -3  -7 -10    7.40    1.08 
  -3  -7 -10    8.86    1.09 
   3  -7  10    8.47    0.78 
   3   7  10    7.42    1.23 
  -3   7 -10    6.29    0.85 
  -3   7 -10    6.30    1.10 
   3   7  10    7.72    1.41 
  -3   7 -10    7.38    0.96 
  -4  -7 -10   -0.05    0.49 
  -4   7 -10    0.06    0.73 
  -4   7 -10   -0.39    0.30 
   4   7  10   -0.11    0.98 
  -5   7 -10    0.88    0.74 
  -5  -8  10    4.26    1.63 
  -5  -8  10    1.49    0.76 
   5   8 -10    2.05    1.41 
  -5   8  10    3.04    0.94 
  -5   8  10    3.17    1.00 
  -4  -8  10   26.06    2.12 
  -4  -8  10   32.11    2.89 
  -4   8  10   28.17    2.28 
   4   8 -10   20.19    2.54 
  -4   8  10   24.21    2.15 
  -3  -8  10    3.87    0.91 
  -3  -8  10    4.48    1.43 
   3  -8 -10    5.23    0.66 
   3   8 -10    5.13    0.50 
  -3   8  10    4.06    1.00 
  -3   8  10    3.66    0.97 
  -3   8  10    6.27    1.05 
   3   8 -10    3.36    1.13 
  -2  -8  10    3.35    0.74 
   2  -8 -10    4.80    0.54 
  -2  -8  10    5.56    0.90 
  -2  -8  10    3.09    0.78 
   2  -8 -10    3.74    0.72 
  -2  -8  10    4.83    1.30 
  -2   8  10    3.30    0.77 
   2   8 -10    4.78    0.79 
   2   8 -10    4.40    1.19 
  -2   8  10    3.33    0.98 
  -2   8  10    4.47    1.04 
   1  -8 -10    1.97    0.63 
  -1  -8  10    2.96    0.70 
  -1  -8  10    2.78    0.67 
  -1  -8  10    1.45    0.86 
  -1  -8  10    3.04    0.71 
   1   8 -10    1.72    0.80 
   1   8 -10    3.62    0.79 
  -1   8  10    3.68    0.95 
   1   8 -10    3.33    0.72 
  -1   8  10    2.07    0.82 
  -1   8  10    2.21    0.79 
   0  -8  10   30.34    2.03 
   0  -8 -10   29.22    2.11 
   0  -8  10   29.73    2.31 
   0   8  10   28.12    2.00 
   0   8 -10   28.77    2.09 
   0   8  10   27.33    2.23 
   0   8 -10   24.62    2.10 
   0   8 -10   25.31    2.03 
   0   8  10   23.97    2.34 
   0   8  10   29.56    2.27 
   0   8 -10   25.25    2.10 
  -1  -8 -10   36.42    2.41 
   1  -8  10   31.94    2.42 
  -1  -8 -10   28.21    2.32 
   1  -8  10   32.99    2.21 
   1   8  10   35.32    2.59 
  -1   8 -10   32.88    2.36 
  -1   8 -10   34.27    2.35 
   1   8  10   33.02    2.86 
   1   8  10   34.62    2.27 
  -1   8 -10   33.18    2.46 
   1   8  10   31.98    2.61 
  -2  -8 -10    3.13    0.79 
  -2  -8 -10    3.52    0.82 
  -2  -8 -10    2.78    0.79 
   2  -8  10    2.26    0.69 
  -2   8 -10    3.15    0.82 
  -2   8 -10    2.58    0.79 
   2   8  10    2.93    1.01 
   2   8  10    1.30    0.86 
   2   8  10    3.82    0.49 
   2   8  10    4.04    1.20 
  -2   8 -10    2.84    0.66 
  -3  -8 -10    1.06    0.60 
  -3  -8 -10    0.03    0.50 
   3   8  10    1.46    1.12 
   3   8  10    0.62    0.67 
  -3   8 -10    0.84    0.61 
  -3   8 -10    0.11    0.39 
  -4  -8 -10    1.41    0.74 
  -4   8 -10    0.17    0.54 
  -4   8 -10   -0.05    0.38 
  -5   8 -10    0.88    0.67 
  -5  -9  10    9.60    1.38 
  -5  -9  10    6.21    1.75 
  -5   9  10    8.74    1.42 
  -5   9  10    9.40    1.44 
   5   9 -10   10.95    2.25 
  -4  -9  10   -0.18    0.66 
  -4  -9  10    0.93    0.69 
  -4   9  10    1.64    0.83 
   4   9 -10   -0.13    0.76 
  -4   9  10    2.37    0.96 
  -3  -9  10   10.74    1.84 
  -3  -9  10    9.95    1.26 
  -3   9  10    8.38    1.33 
  -3   9  10   10.95    1.44 
   3   9 -10    8.92    0.81 
   3   9 -10    7.94    1.48 
  -3   9  10   12.23    1.46 
   2  -9 -10   21.71    1.37 
  -2  -9  10   18.31    1.64 
   2  -9 -10   19.41    1.58 
  -2  -9  10   20.99    2.28 
  -2  -9  10   23.52    1.86 
  -2   9  10   20.14    1.97 
   2   9 -10   18.37    2.14 
  -2   9  10   22.32    2.03 
  -2   9  10   22.66    2.01 
   2   9 -10   19.77    1.64 
  -1  -9  10    2.19    0.69 
  -1  -9  10    2.60    1.04 
   1  -9 -10    4.33    0.90 
  -1  -9  10    3.41    0.78 
   1   9 -10    4.39    0.84 
  -1   9  10    4.49    0.90 
  -1   9  10    3.37    0.94 
  -1   9  10    4.57    1.05 
   1   9 -10    4.83    0.90 
   1   9 -10    3.98    1.02 
   0  -9  10    5.92    1.16 
   0  -9  10    6.29    0.91 
   0  -9 -10    5.84    0.95 
   0   9 -10    6.19    0.97 
   0   9  10    6.18    1.18 
   0   9 -10    6.13    1.07 
   0   9  10    6.23    1.16 
   0   9 -10    5.48    1.07 
   0   9  10    5.13    0.99 
   0   9 -10    5.21    0.86 
  -1  -9 -10   18.48    1.65 
  -1  -9 -10   16.60    1.65 
   1  -9  10   18.49    1.75 
   1  -9  10   19.79    1.53 
  -1   9 -10   20.43    1.81 
   1   9  10   17.23    1.79 
  -1   9 -10   19.59    1.70 
   1   9  10   17.11    1.90 
   1   9  10   19.27    2.21 
   1   9  10   18.79    1.57 
  -1   9 -10   17.73    1.69 
   2  -9  10    7.24    1.00 
  -2  -9 -10    6.88    1.03 
  -2  -9 -10    7.39    1.12 
  -2   9 -10    5.83    0.92 
   2   9  10    8.17    1.65 
   2   9  10    7.70    0.74 
   2   9  10    6.05    1.14 
  -2   9 -10    8.55    1.16 
  -3  -9 -10    1.86    0.83 
  -3  -9 -10    1.66    0.69 
   3   9  10    3.05    1.18 
   3   9  10    1.18    0.91 
  -3   9 -10    3.57    0.78 
  -4  -9 -10    0.27    0.67 
  -4   9 -10    0.75    0.48 
  -4   9 -10    0.67    0.74 
  -5   9 -10   -0.02    0.59 
  -5 -10  10    9.11    1.35 
  -5 -10  10    9.63    2.33 
  -5  10  10    6.14    1.42 
  -5  10  10    6.43    1.43 
   5  10 -10    6.15    1.78 
  -4 -10  10    1.15    1.28 
  -4 -10  10    0.67    0.74 
  -4  10  10    0.94    0.83 
   4  10 -10    5.45    1.70 
  -4  10  10    1.65    0.89 
  -3 -10  10    2.64    0.89 
  -3 -10  10    0.77    0.80 
  -3  10  10    1.86    0.90 
   3  10 -10    1.83    1.18 
  -3  10  10    2.94    0.98 
  -3  10  10    1.51    0.80 
   3  10 -10    3.39    0.60 
   2 -10 -10   24.62    1.86 
  -2 -10  10   23.34    2.00 
  -2 -10  10   23.04    2.04 
   2 -10 -10   24.99    1.54 
  -2 -10  10   19.60    2.40 
   2  10 -10   22.51    2.60 
  -2  10  10   24.21    2.24 
  -2  10  10   29.89    2.44 
  -2  10  10   30.51    2.47 
   2  10 -10   25.24    2.45 
   1 -10 -10    1.31    0.64 
  -1 -10  10    0.74    0.47 
  -1 -10  10    0.78    0.53 
  -1 -10  10    0.67    0.87 
  -1  10  10    1.41    0.87 
   1  10 -10    1.62    0.64 
  -1  10  10    0.47    0.71 
   1  10 -10    0.02    0.72 
  -1  10  10    0.46    0.81 
   1  10 -10    1.30    0.67 
   0 -10  10    4.49    0.73 
   0 -10 -10    5.11    0.97 
   0 -10  10    4.37    0.97 
   0 -10  10    4.46    0.86 
   0  10 -10    6.03    1.03 
   0  10  10    5.90    1.21 
   0  10 -10    2.96    0.93 
   0  10  10    6.27    1.24 
   0  10  10    5.59    1.25 
   0  10 -10    6.11    1.03 
  -1 -10 -10   16.92    1.65 
   1 -10  10   19.11    1.82 
   1  10  10   16.34    1.54 
   1  10  10   17.98    1.89 
  -1  10 -10   18.99    1.71 
   1  10  10   19.74    2.29 
  -1  10 -10   19.82    1.77 
  -2 -10 -10    2.12    0.79 
  -2 -10 -10    3.17    0.97 
   2 -10  10    2.15    0.74 
   2  10  10    3.56    0.61 
  -2  10 -10    1.95    0.84 
   2  10  10    2.24    1.09 
   2  10  10    2.92    1.10 
  -2  10 -10    2.61    0.72 
  -3 -10 -10   13.75    1.68 
  -3  10 -10   17.87    1.52 
   3  10  10   15.21    1.83 
  -4 -10 -10    1.28    0.88 
  -4  10 -10   -0.16    0.38 
  -5  10 -10    4.35    1.27 
  -4 -11  10   -0.26    0.64 
  -4 -11  10    1.00    1.06 
  -4  11  10   -0.50    0.88 
   4  11 -10    0.35    0.85 
  -4  11  10   -0.40    0.72 
   3 -11 -10    4.05    0.36 
  -3 -11  10    5.30    1.14 
  -3 -11  10    4.12    1.43 
  -3  11  10    3.78    1.17 
  -3  11  10    6.29    1.19 
  -3  11  10    5.65    1.31 
   3  11 -10    6.46    1.74 
  -2 -11  10    2.01    1.20 
  -2 -11  10    1.91    0.78 
  -2 -11  10    0.55    0.53 
   2 -11 -10    0.57    0.57 
  -2  11  10    1.66    0.90 
   2  11 -10    3.11    1.09 
  -2  11  10    2.98    1.02 
  -2  11  10    4.02    1.24 
  -1 -11  10    3.31    0.90 
  -1 -11  10    4.98    1.43 
  -1 -11  10    3.30    0.83 
   1 -11 -10    1.76    0.75 
  -1  11  10    3.41    1.16 
  -1  11  10    2.45    1.07 
  -1  11  10    2.54    1.07 
   1  11 -10    4.56    0.88 
   1  11 -10    3.18    1.02 
   0 -11  10   -0.16    0.66 
   0 -11 -10    0.52    0.61 
   0 -11  10   -0.08    0.45 
   0  11  10    0.36    0.80 
   0  11 -10   -0.28    0.60 
   0  11  10   -0.74    0.65 
   0  11  10   -0.24    0.58 
   0  11 -10    0.01    0.63 
   0  11 -10    0.87    0.56 
   1 -11  10    0.72    0.74 
  -1 -11 -10    0.55    0.65 
  -1 -11 -10    1.23    0.62 
  -1  11 -10    1.27    0.66 
   1  11  10    1.17    0.95 
  -1  11 -10    0.51    0.58 
   1  11  10    1.13    0.97 
   2 -11  10    1.35    0.79 
  -2 -11 -10    2.33    0.83 
  -2 -11 -10    1.56    0.69 
  -2  11 -10    2.76    0.99 
   2  11  10    2.08    1.29 
   2  11  10    1.08    0.92 
  -2  11 -10    3.23    0.86 
   2  11  10    1.59    0.55 
  -3 -11 -10    1.41    0.90 
   3  11  10    1.66    0.96 
  -3  11 -10    0.79    0.55 
  -4 -11 -10    0.29    0.74 
  -4 -12  10   -0.44    0.69 
  -4 -12  10   -0.45    1.19 
  -4  12  10   -0.15    0.91 
  -4  12  10   -0.49    0.85 
   4  12 -10    0.72    1.00 
  -3 -12  10    0.88    0.80 
   3 -12 -10    0.64    0.31 
  -3 -12  10   -0.32    1.06 
   3  12 -10    1.89    1.25 
  -3  12  10    3.02    1.15 
  -3  12  10    0.43    0.92 
  -2 -12  10   16.26    2.11 
  -2 -12  10   16.89    1.76 
  -2 -12  10   18.87    1.85 
   2 -12 -10   16.53    1.54 
   2  12 -10   18.37    2.18 
  -2  12  10   16.04    2.04 
  -2  12  10   16.78    2.13 
  -2  12  10   17.86    2.08 
   1 -12 -10    0.63    0.66 
  -1 -12  10    0.19    0.57 
  -1 -12  10    1.76    1.17 
   1  12 -10    1.10    0.96 
  -1  12  10    0.98    1.04 
  -1  12  10    1.37    1.03 
  -1  12  10    1.63    1.08 
   1  12 -10    1.33    0.80 
   0 -12  10   -0.33    0.42 
   0 -12 -10    0.15    0.58 
   0 -12  10   -0.46    0.48 
   0  12 -10    0.05    0.60 
   0  12  10    0.02    0.69 
   0  12  10   -0.08    0.91 
   0  12 -10   -0.54    0.61 
  -1 -12 -10   -0.13    0.47 
  -1 -12 -10    0.84    0.77 
   1 -12  10   -0.13    0.65 
  -1  12 -10    0.39    0.69 
  -1  12 -10    0.42    0.54 
   1  12  10   -1.40    0.77 
   1  12  10    0.00    0.99 
   2 -12  10    9.03    1.24 
  -2 -12 -10    8.90    1.42 
  -2 -12 -10    6.86    1.27 
  -2  12 -10    8.74    1.25 
   2  12  10    7.76    1.54 
  -2  12 -10    6.60    1.30 
  -3 -12 -10    0.16    0.81 
   3  12  10    0.82    1.10 
  -3  12 -10    1.03    0.70 
  -4 -12 -10   -0.61    0.69 
  -4 -13  10    1.29    0.97 
  -4 -13  10    2.74    1.38 
  -4  13  10    1.72    1.35 
   4  13 -10   -1.04    1.16 
  -4  13  10    2.41    1.19 
   3 -13 -10    0.94    0.40 
  -3 -13  10    1.60    1.08 
  -3 -13  10    1.47    1.12 
   3  13 -10    1.02    1.22 
  -3  13  10    0.76    1.07 
  -3  13  10    0.46    1.02 
   2 -13 -10    0.52    0.62 
  -2 -13  10   -0.14    0.95 
  -2  13  10    0.01    0.87 
  -2  13  10   -0.05    0.96 
  -2  13  10   -0.16    0.93 
   2  13 -10    0.22    0.70 
  -1 -13  10    9.68    1.20 
   1 -13 -10    8.80    1.31 
  -1 -13  10   11.41    1.86 
  -1  13  10   12.47    1.86 
  -1  13  10    9.14    1.75 
   1  13 -10    9.11    1.51 
   0 -13  10    9.65    1.24 
   0 -13 -10   10.30    1.44 
   0 -13  10    9.44    1.61 
   0  13  10    9.37    1.89 
   0  13  10    9.12    1.70 
   0  13 -10    7.31    1.31 
   1 -13  10    8.12    1.41 
  -1 -13 -10   10.49    1.47 
  -1 -13 -10    7.24    1.37 
   1  13  10    9.78    1.52 
  -1  13 -10    8.97    1.44 
  -2 -13 -10    0.67    0.80 
   2 -13  10    0.90    0.66 
  -2 -13 -10    0.27    0.78 
   2  13  10    1.08    1.08 
  -2  13 -10    0.48    0.73 
  -3 -13 -10   -0.76    0.64 
   3  13  10    0.35    0.92 
  -4 -13 -10    3.42    1.24 
  -3 -14  10    2.69    1.57 
   3 -14 -10    1.94    0.49 
  -3  14  10    1.70    1.29 
   3  14 -10    5.19    1.79 
  -3  14  10    1.47    1.48 
   2 -14 -10    0.71    0.63 
  -2 -14  10    1.21    1.27 
  -2  14  10    1.12    0.99 
  -2  14  10    1.34    1.12 
   2  14 -10   -0.57    0.86 
   1 -14 -10    9.12    1.39 
  -1 -14  10    6.51    1.42 
  -1 -14  10    7.14    1.10 
   1  14 -10    7.34    1.66 
  -1  14  10    6.99    1.72 
  -1  14  10    7.12    1.47 
   0 -14  10   14.44    2.01 
   0 -14 -10   12.56    1.62 
   0 -14  10   13.50    1.50 
   0  14 -10   11.21    1.79 
   0  14  10   13.09    2.04 
  -1 -14 -10    0.66    0.81 
  -1 -14 -10    0.76    0.80 
   1 -14  10   -0.25    0.76 
  -1  14 -10    0.79    0.85 
   1  14  10    1.50    1.19 
  -2 -14 -10    0.31    0.67 
   2 -14  10    0.29    0.80 
  -2 -14 -10    1.38    1.01 
  -2  14 -10    0.58    0.74 
   2  14  10    1.40    1.19 
  -3 -14 -10    1.62    1.13 
   3  14  10    3.92    1.39 
  -3 -15  10    1.09    1.09 
   3 -15 -10    1.48    0.50 
  -3  15  10    1.48    1.33 
   3  15 -10    1.78    1.25 
  -2 -15  10    2.55    1.22 
   2 -15 -10    1.77    0.79 
  -2  15  10    1.63    1.22 
   2  15 -10    3.97    1.53 
  -1 -15  10    1.09    1.09 
  -1 -15  10    1.30    0.69 
   1 -15 -10    1.22    0.83 
   1  15 -10    0.88    1.16 
  -1  15  10    0.94    1.20 
   0 -15 -10    2.52    0.99 
   0 -15  10    1.96    0.76 
   0 -15  10    2.77    1.07 
   0  15  10    1.43    0.98 
   0  15 -10    0.77    0.96 
   1 -15  10    2.52    1.11 
  -1 -15 -10    3.00    1.19 
  -1 -15 -10    2.77    1.10 
  -1  15 -10    2.34    1.04 
   1  15  10    2.44    1.11 
  -2 -15 -10    0.94    0.91 
   2 -15  10    0.29    0.90 
  -2 -15 -10   -0.36    0.82 
   2  15  10   -0.52    0.91 
  -2  15 -10   -0.10    0.67 
  -3 -15 -10    6.06    1.67 
   3  15  10    7.92    1.69 
  -2 -16  10   10.30    2.17 
   2 -16 -10    7.75    1.29 
  -2  16  10    7.41    2.01 
   2  16 -10   11.68    2.27 
  -1 -16  10    6.81    1.55 
  -1 -16  10    5.46    1.22 
   1 -16 -10    6.70    1.32 
   1  16 -10    2.36    1.08 
  -1  16  10    6.09    1.63 
   0 -16  10    1.73    0.89 
   0 -16 -10    3.17    1.08 
   0 -16  10    2.08    1.37 
   0  16 -10    1.52    1.15 
   0  16  10    1.58    1.35 
  -1 -16 -10    1.06    0.97 
   1 -16  10    1.49    1.13 
  -1 -16 -10    2.39    1.20 
   1  16  10    0.98    1.27 
  -1  16 -10    1.70    1.05 
  -2 -16 -10    0.94    1.06 
   2  16  10    0.74    1.16 
  -1 -17  10    0.34    0.90 
   1 -17 -10    0.97    0.89 
  -1 -17  10   -0.56    1.12 
  -1  17  10   -0.03    1.36 
   1  17 -10    0.05    1.04 
   0 -17  10   -0.90    0.92 
   0 -17  10    0.78    0.81 
   0 -17 -10   -1.12    0.69 
   0  17 -10    0.88    1.16 
   0  17  10    0.58    1.23 
   1 -17  10    1.06    1.06 
  -1 -17 -10   -0.34    0.87 
  -1 -17 -10   -0.57    0.90 
   1  17  10    0.18    1.17 
  -1  17 -10    0.65    0.96 
  -6   0  11    0.72    0.99 
   6   0 -11    0.93    1.18 
  -6   0  11    0.33    0.35 
  -5   0  11    0.12    0.31 
   5   0 -11    0.58    0.78 
   4   0 -11   -0.50    0.56 
  -4   0  11    0.06    0.31 
  -3   0  11   -0.03    0.28 
   3   0 -11   -0.21    0.44 
   2   0 -11   -0.32    0.21 
   2   0 -11   -0.03    0.24 
  -2   0  11    0.02    0.24 
  -2   0  11   -0.06    0.25 
   2   0 -11   -0.08    0.26 
   1   0 -11   -0.09    0.26 
   1   0 -11    0.09    0.24 
  -1   0  11    0.05    0.28 
   1   0 -11   -0.22    0.24 
   0   0  11    1.32    0.43 
   0   0 -11    2.42    0.49 
   0   0  11    2.49    0.50 
   0   0 -11    3.21    0.54 
  -1   0 -11   -0.07    0.25 
  -1   0 -11    0.11    0.29 
   1   0  11    0.23    0.26 
   1   0  11    0.07    0.31 
  -2   0 -11   -0.14    0.31 
   2   0  11   -0.34    0.30 
  -2   0 -11   -0.21    0.17 
   2   0  11   -0.04    0.28 
   3   0  11    0.01    0.41 
  -3   0 -11   -0.33    0.50 
   3   0  11    0.15    0.35 
   3   0  11   -0.31    0.46 
  -3   0 -11   -0.06    0.32 
  -4   0 -11   -0.10    0.32 
  -4   0 -11    0.68    0.70 
   4   0  11   -0.82    0.52 
  -5   0 -11   -0.37    0.40 
  -5   0 -11   -0.12    0.47 
  -6  -1  11    4.22    0.65 
  -6  -1  11    4.59    1.49 
   6   1 -11    5.32    1.60 
  -6   1  11    7.59    1.58 
  -6   1  11    3.85    0.62 
  -5  -1  11   -0.08    0.30 
   5  -1 -11   -0.67    0.78 
  -5  -1  11   -0.38    0.46 
  -5   1  11   -0.02    0.30 
   5   1 -11    0.04    0.84 
  -4  -1  11    0.76    0.38 
   4  -1 -11    0.65    0.76 
  -4   1  11    0.80    0.38 
   4   1 -11    0.46    0.74 
   3  -1 -11    0.97    0.61 
  -3  -1  11    0.10    0.29 
   3   1 -11    0.06    0.61 
  -3   1  11    0.47    0.25 
  -3   1  11    0.28    0.30 
   2  -1 -11    0.09    0.26 
   2  -1 -11    0.52    0.40 
   2  -1 -11   -0.27    0.20 
  -2  -1  11    0.25    0.27 
   2   1 -11   -0.04    0.24 
   2   1 -11   -0.03    0.24 
   2   1 -11    0.65    0.41 
  -2   1  11    0.34    0.29 
   1  -1 -11   21.33    1.45 
   1  -1 -11   18.40    1.36 
  -1  -1  11   17.77    1.37 
   1   1 -11   20.88    1.40 
   1   1 -11   19.27    1.51 
   1   1 -11   17.88    1.34 
   1   1 -11   20.51    1.42 
  -1   1  11   18.81    1.40 
   0  -1 -11    0.17    0.26 
   0  -1 -11   -0.05    0.18 
   0  -1  11   -0.27    0.21 
   0  -1  11    0.00    0.27 
   0  -1 -11   -0.09    0.28 
   0  -1 -11    0.13    0.34 
   0   1 -11    0.14    0.23 
   0   1 -11    0.07    0.35 
   0   1 -11    0.14    0.28 
   0   1  11    0.23    0.33 
  -1  -1 -11    4.64    0.59 
   1  -1  11    3.57    0.51 
   1  -1  11    3.62    0.58 
  -1  -1 -11    3.17    0.61 
  -1   1 -11    3.53    0.57 
   1   1  11    3.31    0.62 
  -1   1 -11    2.93    0.59 
   1   1  11    2.80    0.42 
   2  -1  11    4.03    0.54 
  -2  -1 -11    3.32    0.58 
  -2  -1 -11    4.28    0.76 
   2  -1  11    4.06    0.69 
  -2   1 -11    5.73    0.92 
   2   1  11    3.78    0.61 
  -2   1 -11    5.76    0.69 
   2   1  11    5.09    0.77 
   3  -1  11    5.86    0.55 
  -3  -1 -11    7.69    1.05 
  -3  -1 -11    4.41    0.70 
  -3   1 -11    6.82    0.80 
   3   1  11    7.58    1.19 
   3   1  11    5.74    0.75 
  -3   1 -11    4.94    0.93 
  -3   1 -11    5.78    0.51 
   3   1  11    4.01    0.77 
  -4  -1 -11   15.98    1.31 
  -4  -1 -11   14.47    1.67 
   4  -1  11   13.40    1.58 
   4   1  11   12.26    1.66 
  -4   1 -11   11.37    1.59 
  -4   1 -11   14.56    1.27 
  -5  -1 -11    0.00    0.43 
  -5  -1 -11    0.05    0.55 
   5   1  11    0.51    0.89 
  -5   1 -11    0.01    0.42 
  -5   1 -11    0.57    0.59 
  -6  -2  11   -0.22    0.32 
  -6  -2  11    2.27    1.37 
  -6   2  11    0.26    0.36 
   6   2 -11    0.68    1.22 
  -5  -2  11    6.44    1.31 
  -5  -2  11    8.77    0.88 
   5  -2 -11    7.11    1.33 
   5   2 -11   11.01    1.77 
  -5   2  11    8.10    0.83 
  -4  -2  11   12.93    1.13 
  -4  -2  11   13.19    1.70 
   4  -2 -11   14.63    1.59 
   4   2 -11   12.30    1.70 
  -4   2  11   13.68    1.10 
   3  -2 -11   12.94    1.36 
  -3  -2  11   13.23    1.11 
   3   2 -11    9.95    1.46 
  -3   2  11   13.07    0.97 
  -3   2  11   14.09    1.09 
   2  -2 -11    4.98    0.74 
  -2  -2  11    2.84    0.54 
   2  -2 -11    4.71    0.51 
   2  -2 -11    3.99    0.55 
   2   2 -11    3.83    0.86 
  -2   2  11    4.79    0.62 
   2   2 -11    4.66    0.60 
   2   2 -11    4.03    0.51 
   1  -2 -11    3.85    0.59 
  -1  -2  11    4.03    0.60 
  -1  -2  11    3.09    0.64 
   1  -2 -11    4.27    0.60 
   1   2 -11    4.18    0.59 
   1   2 -11    3.44    0.69 
   1   2 -11    4.84    0.63 
  -1   2  11    3.99    0.56 
   0  -2  11    1.43    0.42 
   0  -2  11    1.30    0.45 
   0  -2 -11    1.79    0.41 
   0  -2 -11    1.16    0.43 
   0   2  11    1.25    0.48 
   0   2 -11    1.32    0.45 
   0   2 -11    2.46    0.45 
   0   2 -11    1.96    0.55 
  -1  -2 -11   -0.01    0.38 
  -1  -2 -11    0.28    0.23 
   1  -2  11    0.01    0.20 
  -1  -2 -11    0.81    0.38 
   1   2  11    0.31    0.22 
   1   2  11    0.92    0.45 
  -1   2 -11    0.27    0.31 
  -1   2 -11    0.26    0.32 
  -1   2 -11    0.18    0.30 
  -2  -2 -11    2.83    0.56 
   2  -2  11    2.79    0.59 
  -2  -2 -11    2.08    0.69 
   2   2  11    4.41    0.81 
  -2   2 -11    3.56    0.60 
  -2   2 -11    3.89    0.47 
  -2   2 -11    2.65    0.65 
   2   2  11    3.96    0.73 
  -3  -2 -11    3.12    0.74 
   3  -2  11    2.44    0.22 
  -3  -2 -11    3.37    0.67 
   3   2  11    6.26    0.90 
   3   2  11    3.21    1.01 
  -3   2 -11    2.84    0.54 
   3   2  11    4.67    0.80 
  -3   2 -11    3.96    0.84 
  -3   2 -11    3.98    0.48 
   4  -2  11   -0.55    0.55 
  -4  -2 -11   -0.40    0.35 
  -4  -2 -11    0.95    0.72 
  -4   2 -11    0.71    0.48 
   4   2  11    0.25    0.73 
  -4   2 -11    0.59    0.65 
  -5  -2 -11    0.67    0.64 
  -5   2 -11    2.18    0.99 
   5   2  11    1.13    1.13 
  -5   2 -11    0.94    0.56 
   5  -3 -11    1.23    0.85 
  -5  -3  11    1.12    0.45 
  -5  -3  11    2.14    1.16 
  -5   3  11    0.29    0.38 
   5   3 -11   -0.37    0.92 
  -4  -3  11    1.05    0.88 
   4  -3 -11    0.95    0.69 
  -4  -3  11    0.81    0.43 
   4   3 -11    0.41    0.79 
  -4   3  11    0.45    0.38 
   3  -3 -11    5.19    0.86 
  -3  -3  11    5.13    1.10 
  -3  -3  11    3.99    0.65 
  -3   3  11    4.06    0.63 
   3   3 -11    5.05    0.99 
   2  -3 -11    1.13    0.44 
  -2  -3  11    0.43    0.38 
   2  -3 -11    1.09    0.39 
   2  -3 -11    0.87    0.30 
  -2  -3  11    0.86    0.39 
   2   3 -11    1.38    0.35 
   2   3 -11    1.67    0.40 
   2   3 -11    1.71    0.46 
  -2   3  11    0.53    0.39 
   2   3 -11    0.93    0.65 
  -1  -3  11   15.66    1.18 
   1  -3 -11   15.19    1.15 
  -1  -3  11   14.56    1.30 
   1  -3 -11   15.18    1.19 
   1   3 -11   14.39    1.16 
  -1   3  11   13.99    1.22 
   1   3 -11   11.79    1.24 
   1   3 -11   14.89    1.19 
   0  -3  11    2.28    0.54 
   0  -3  11    2.72    0.51 
   0  -3 -11    2.40    0.49 
   0  -3 -11    1.93    0.52 
   0   3 -11    3.35    0.57 
   0   3 -11    2.18    0.46 
   0   3 -11    2.22    0.55 
   0   3 -11    3.13    0.56 
   0   3  11    1.95    0.54 
  -1  -3 -11    1.47    0.49 
  -1  -3 -11    1.43    0.44 
   1  -3  11    0.60    0.34 
  -1   3 -11    1.17    0.52 
   1   3  11    0.74    0.44 
  -1   3 -11    1.52    0.42 
  -1   3 -11    1.55    0.46 
   2  -3  11    0.19    0.36 
   2  -3  11    0.13    0.27 
  -2  -3 -11   -0.09    0.32 
  -2  -3 -11    0.34    0.36 
  -2   3 -11    0.00    0.31 
   2   3  11    0.45    0.45 
  -2   3 -11    0.21    0.28 
  -2   3 -11    0.29    0.38 
   2   3  11    0.35    0.51 
   2   3  11   -0.32    0.38 
  -3  -3 -11    1.37    0.55 
  -3   3 -11    1.44    0.50 
   3   3  11    1.98    0.92 
  -3   3 -11    2.54    0.50 
  -3   3 -11    2.91    0.83 
   3   3  11    2.22    0.74 
  -4  -3 -11    0.30    0.49 
   4  -3  11    1.11    0.65 
  -4   3 -11    1.35    0.52 
  -4   3 -11    0.78    0.76 
   4   3  11    1.42    0.86 
  -5   3 -11    0.40    0.79 
   5   3  11    1.75    1.11 
  -5  -4  11    1.88    1.20 
  -5  -4  11    0.66    0.47 
  -5   4  11    0.41    0.46 
   5   4 -11    0.48    1.04 
   4  -4 -11   44.44    3.12 
  -4  -4  11   47.33    3.64 
  -4  -4  11   45.55    2.87 
   4   4 -11   49.10    3.75 
  -4   4  11   44.13    2.84 
  -3  -4  11    1.12    0.50 
  -3  -4  11    1.65    0.66 
   3  -4 -11    0.71    0.53 
  -3  -4  11    1.67    0.55 
  -3  -4  11    1.10    0.77 
  -3   4  11    1.25    0.51 
   3   4 -11    1.18    0.84 
  -2  -4  11    0.64    0.51 
   2  -4 -11    1.18    0.43 
  -2  -4  11    0.69    0.38 
   2  -4 -11    1.34    0.43 
  -2  -4  11    2.45    0.83 
  -2   4  11    1.08    0.47 
   2   4 -11    1.09    0.35 
   2   4 -11    1.20    0.43 
   2   4 -11    0.54    0.49 
   2   4 -11    1.22    0.36 
  -1  -4  11    6.91    0.83 
   1  -4 -11    7.46    0.80 
   1  -4 -11    6.04    0.67 
  -1  -4  11    6.61    0.76 
  -1  -4  11    3.49    0.76 
   1   4 -11    6.46    0.77 
  -1   4  11    5.06    0.78 
   1   4 -11    6.77    0.78 
   1   4 -11    6.56    0.95 
   0  -4 -11    0.58    0.30 
   0  -4  11    0.10    0.43 
   0  -4  11    0.09    0.23 
   0  -4 -11    0.14    0.33 
   0  -4  11    0.92    0.37 
   0   4 -11    0.31    0.35 
   0   4  11   -0.13    0.39 
   0   4 -11    0.25    0.34 
   0   4 -11    0.19    0.36 
   0   4 -11    0.58    0.42 
   1  -4  11    1.87    0.41 
  -1  -4 -11    1.95    0.54 
   1  -4  11    2.28    0.54 
  -1  -4 -11    2.61    0.56 
   1   4  11    1.90    0.73 
  -1   4 -11    1.52    0.51 
  -1   4 -11    1.86    0.46 
  -1   4 -11    2.19    0.54 
  -1   4 -11    1.30    0.51 
   1   4  11    1.90    0.59 
  -1   4 -11    1.49    0.44 
  -2  -4 -11    6.10    0.80 
   2  -4  11    6.18    0.74 
  -2  -4 -11    3.94    0.73 
   2  -4  11    7.13    0.73 
  -2   4 -11    3.89    0.67 
   2   4  11    5.65    1.12 
  -2   4 -11    7.21    0.76 
  -2   4 -11    5.38    0.77 
  -2   4 -11    5.87    0.91 
   2   4  11    5.59    0.93 
   2   4  11    5.61    0.97 
  -3  -4 -11    1.79    0.61 
  -3  -4 -11    2.94    0.74 
   3   4  11    2.38    1.02 
   3   4  11    1.63    0.76 
  -3   4 -11    3.11    0.65 
  -3   4 -11    0.38    0.50 
  -3   4 -11    1.74    0.53 
   4  -4  11    1.46    0.65 
  -4  -4 -11    0.96    0.59 
  -4   4 -11    1.36    0.54 
   4   4  11    2.88    1.18 
  -4   4 -11    0.64    0.57 
   5   4  11    2.57    1.29 
  -5   4 -11    1.63    0.78 
  -5  -5  11   -0.30    0.38 
  -5  -5  11    0.47    0.78 
  -5   5  11   -0.28    0.43 
   5   5 -11    0.23    1.00 
  -4  -5  11   -0.39    0.48 
  -4  -5  11   -0.15    0.39 
   4  -5 -11    0.20    0.49 
   4   5 -11   -0.70    0.71 
  -4   5  11   -0.31    0.39 
  -3  -5  11  102.03    5.73 
   3  -5 -11  107.53    5.82 
  -3  -5  11   97.48    5.75 
  -3  -5  11  102.69    6.41 
   3   5 -11   93.84    6.36 
   3   5 -11  105.43    5.34 
  -3   5  11  105.77    5.83 
   2  -5 -11    2.30    0.54 
   2  -5 -11    2.59    0.55 
  -2  -5  11    2.06    0.55 
  -2  -5  11    1.85    0.56 
  -2  -5  11    2.01    0.75 
  -2  -5  11    2.06    0.74 
   2   5 -11    1.88    0.47 
  -2   5  11    1.66    0.56 
   2   5 -11    2.45    0.75 
   2   5 -11    2.63    0.57 
  -1  -5  11    2.63    0.83 
   1  -5 -11    2.52    0.44 
  -1  -5  11    2.36    0.59 
  -1  -5  11    3.05    0.71 
   1  -5 -11    2.06    0.55 
  -1   5  11    3.07    0.71 
   1   5 -11    2.89    0.74 
   1   5 -11    1.75    0.51 
   1   5 -11    1.58    0.53 
   0  -5 -11    8.62    0.87 
   0  -5  11    8.21    0.83 
   0  -5  11    7.73    1.04 
   0  -5  11    8.90    0.97 
   0  -5 -11    7.95    0.93 
   0   5 -11    7.91    0.97 
   0   5  11    8.17    1.16 
   0   5 -11    8.90    1.02 
   0   5 -11    9.39    1.05 
   0   5 -11    9.42    0.97 
   0   5  11    5.19    0.95 
  -1  -5 -11   -0.17    0.32 
   1  -5  11    0.01    0.22 
   1  -5  11    0.19    0.40 
  -1  -5 -11    0.31    0.39 
   1   5  11    0.15    0.44 
  -1   5 -11    0.27    0.32 
   1   5  11   -0.31    0.32 
   1   5  11    0.51    0.53 
  -1   5 -11   -0.24    0.26 
  -1   5 -11   -0.18    0.21 
  -1   5 -11    0.20    0.35 
  -1   5 -11    0.10    0.31 
   2  -5  11    0.68    0.41 
  -2  -5 -11    1.44    0.56 
  -2  -5 -11    0.58    0.43 
   2   5  11    0.69    0.60 
  -2   5 -11    0.67    0.44 
   2   5  11    0.22    0.70 
  -2   5 -11    1.57    0.50 
   2   5  11    1.80    0.73 
  -2   5 -11    1.29    0.60 
  -2   5 -11    0.58    0.38 
  -3  -5 -11    0.56    0.49 
  -3   5 -11    0.83    0.65 
   3   5  11    2.28    0.79 
   3   5  11    1.71    0.84 
  -3   5 -11    2.32    0.64 
  -4   5 -11   -0.23    0.37 
  -4   5 -11    0.36    0.68 
   4   5  11    1.46    0.88 
   5   5  11    5.21    1.50 
  -5   5 -11    2.00    1.01 
  -5  -6  11    4.44    1.54 
  -5  -6  11    5.03    0.92 
   5   6 -11    6.61    1.86 
  -5   6  11    6.94    1.02 
  -4  -6  11    8.34    1.45 
  -4  -6  11    3.62    0.78 
  -4   6  11    5.06    0.93 
   4   6 -11    6.04    1.35 
   3  -6 -11    0.13    0.42 
  -3  -6  11    1.68    0.58 
  -3  -6  11    0.70    0.70 
   3   6 -11    0.26    0.78 
  -3   6  11    0.78    0.62 
  -3   6  11    0.73    0.58 
   3   6 -11    0.58    0.25 
  -2  -6  11   21.87    2.13 
  -2  -6  11   24.61    1.79 
   2  -6 -11   24.67    1.64 
   2  -6 -11   25.29    1.70 
  -2  -6  11   24.24    1.76 
  -2  -6  11   23.36    1.93 
   2   6 -11   24.85    1.74 
  -2   6  11   19.47    1.81 
   2   6 -11   25.66    1.66 
  -2   6  11   22.95    1.92 
   2   6 -11   23.30    2.15 
  -1  -6  11    1.60    0.46 
   1  -6 -11    1.16    0.50 
  -1  -6  11    1.34    0.74 
  -1  -6  11    1.22    0.62 
   1   6 -11    1.08    0.54 
  -1   6  11    1.48    0.62 
   1   6 -11    1.59    0.55 
  -1   6  11    1.66    0.59 
   0  -6  11   30.53    2.45 
   0  -6  11   34.53    2.24 
   0  -6 -11   36.34    2.38 
   0  -6 -11   36.80    2.33 
   0   6 -11   32.46    2.36 
   0   6  11   34.50    2.62 
   0   6 -11   35.44    2.35 
   0   6  11   32.93    2.26 
   0   6 -11   32.97    2.32 
   0   6 -11   34.28    2.44 
   0   6  11   33.96    2.43 
   0   6  11   34.86    2.54 
   1  -6  11   19.10    1.56 
  -1  -6 -11   15.88    1.43 
  -1  -6 -11   17.64    1.50 
   1  -6  11   17.45    1.35 
   1   6  11   19.66    1.69 
  -1   6 -11   14.81    1.53 
  -1   6 -11   20.29    1.49 
   1   6  11   13.73    1.74 
  -1   6 -11   14.83    1.45 
  -1   6 -11   17.29    1.47 
   1   6  11   19.04    1.72 
  -1   6 -11   19.32    1.49 
   2  -6  11    0.64    0.44 
  -2  -6 -11    0.83    0.44 
  -2  -6 -11    0.22    0.37 
  -2   6 -11    0.69    0.48 
   2   6  11   -0.28    0.57 
  -2   6 -11   -0.01    0.29 
  -2   6 -11    0.20    0.26 
   2   6  11    0.04    0.75 
  -2   6 -11    1.09    0.49 
   2   6  11    1.09    0.68 
  -3  -6 -11    0.13    0.42 
  -3  -6 -11   -0.19    0.42 
  -3   6 -11    0.72    0.44 
   3   6  11   -0.59    0.74 
  -3   6 -11   -0.12    0.41 
  -3   6 -11    0.13    0.41 
   3   6  11    0.21    0.68 
  -3   6 -11   -0.36    0.41 
   4   6  11    0.50    1.03 
  -4   6 -11    0.12    0.54 
  -5   6 -11    1.73    0.96 
  -5  -7  11   28.07    2.26 
  -5  -7  11   31.19    3.26 
   5   7 -11   36.04    3.38 
  -5   7  11   30.95    2.45 
  -4  -7  11    5.78    0.94 
  -4  -7  11    6.64    1.37 
  -4   7  11    5.45    1.00 
   4   7 -11    3.96    1.47 
  -3  -7  11    9.23    1.46 
  -3  -7  11    9.42    1.13 
   3  -7 -11    9.58    0.95 
   3   7 -11    8.08    0.60 
  -3   7  11    7.86    1.14 
  -3   7  11    9.10    1.20 
   3   7 -11    9.35    0.77 
   3   7 -11    7.34    0.57 
   3   7 -11    9.44    1.47 
  -2  -7  11   29.54    2.32 
   2  -7 -11   29.03    2.02 
  -2  -7  11   30.31    2.17 
  -2  -7  11   32.91    2.17 
   2  -7 -11   28.91    1.89 
  -2  -7  11   31.26    2.70 
   2   7 -11   29.38    2.61 
  -2   7  11   32.91    2.43 
  -2   7  11   27.90    2.29 
   2   7 -11   27.12    2.03 
  -1  -7  11   22.69    2.07 
   1  -7 -11   25.81    1.86 
  -1  -7  11   24.59    1.99 
  -1  -7  11   25.80    1.82 
  -1   7  11   21.68    1.95 
  -1   7  11   17.97    1.74 
  -1   7  11   21.81    2.03 
   1   7 -11   23.35    1.81 
   1   7 -11   19.78    1.98 
   0  -7  11    1.74    0.77 
   0  -7  11    1.18    0.50 
   0  -7 -11    3.18    0.77 
   0   7 -11    1.70    0.62 
   0   7  11    1.89    0.59 
   0   7 -11    1.76    0.61 
   0   7  11    1.56    0.77 
   0   7  11    1.71    0.83 
   0   7 -11    1.54    0.63 
   0   7  11    2.38    0.79 
   0   7 -11    1.43    0.60 
   1  -7  11    8.84    0.96 
  -1  -7 -11    9.75    1.13 
   1  -7  11    9.52    1.12 
  -1  -7 -11   11.09    1.15 
   1   7  11    8.89    1.16 
   1   7  11    7.54    1.19 
  -1   7 -11    7.67    1.02 
   1   7  11    9.85    1.49 
  -1   7 -11    9.98    1.08 
  -1   7 -11   10.02    1.19 
  -2  -7 -11    0.30    0.48 
  -2  -7 -11    1.68    0.62 
   2  -7  11    0.70    0.45 
   2   7  11    1.65    0.82 
   2   7  11    1.92    0.83 
   2   7  11   -0.02    0.67 
  -2   7 -11    1.19    0.55 
  -2   7 -11    1.28    0.63 
  -2   7 -11    0.15    0.39 
  -3  -7 -11   -0.32    0.43 
  -3   7 -11    0.39    0.51 
   3   7  11    0.38    0.74 
   3   7  11   -0.01    0.61 
  -3   7 -11    0.13    0.30 
  -3   7 -11   -0.51    0.53 
  -4   7 -11    0.84    0.48 
  -4   7 -11   -0.05    0.65 
   4   7  11   -0.53    1.04 
  -5   7 -11    1.82    0.63 
  -5   7 -11    1.50    0.83 
  -5  -8  11    4.25    0.95 
  -5  -8  11    3.99    1.69 
  -5   8  11    5.27    1.21 
   5   8 -11   10.33    2.14 
  -5   8  11    5.67    1.22 
  -4  -8  11    2.50    1.35 
  -4  -8  11    2.47    0.78 
  -4   8  11    2.62    0.90 
   4   8 -11    1.77    1.22 
  -4   8  11    3.47    0.95 
  -3  -8  11    5.88    0.96 
   3  -8 -11    4.82    0.70 
  -3  -8  11    6.53    1.32 
  -3   8  11    5.19    1.04 
  -3   8  11    5.34    1.05 
   3   8 -11    4.90    0.57 
   3   8 -11    4.82    0.51 
   3   8 -11    4.38    1.23 
  -3   8  11    4.19    1.04 
  -2  -8  11   77.20    4.63 
  -2  -8  11   77.30    4.69 
   2  -8 -11   77.61    4.49 
   2  -8 -11   78.38    4.32 
  -2  -8  11   75.03    5.24 
  -2   8  11   79.89    4.95 
  -2   8  11   80.19    4.96 
   2   8 -11   78.59    4.59 
  -2   8  11   75.00    4.81 
   2   8 -11   87.60    5.36 
  -1  -8  11    3.20    0.94 
  -1  -8  11    6.17    0.90 
  -1  -8  11    3.81    0.82 
   1  -8 -11    4.72    0.90 
  -1  -8  11    4.01    1.16 
   1   8 -11    3.61    0.97 
  -1   8  11    4.59    1.08 
  -1   8  11    5.11    0.95 
  -1   8  11    2.18    0.87 
   1   8 -11    3.57    0.77 
   0  -8 -11    1.45    0.60 
   0  -8  11    1.76    0.82 
   0  -8  11    1.51    0.55 
   0   8  11    1.55    0.89 
   0   8  11    1.75    0.75 
   0   8  11    0.88    0.60 
   0   8 -11    0.69    0.49 
   0   8 -11    2.33    0.65 
   0   8 -11    1.71    0.72 
   0   8 -11    1.61    0.67 
   1  -8  11    0.51    0.59 
  -1  -8 -11    0.47    0.50 
   1  -8  11    0.37    0.42 
  -1  -8 -11    1.02    0.47 
   1   8  11    0.02    0.64 
  -1   8 -11   -0.40    0.46 
  -1   8 -11    0.90    0.52 
  -1   8 -11    0.70    0.45 
   1   8  11    0.80    0.58 
   1   8  11    0.92    0.82 
  -2   8 -11    1.60    0.56 
   2   8  11    1.46    0.72 
   2   8  11    0.53    0.67 
  -3  -8 -11    1.55    0.72 
  -3   8 -11    1.35    0.69 
  -3   8 -11    1.56    0.56 
  -3   8 -11   -0.02    0.51 
   3   8  11    1.06    1.07 
   3   8  11   -0.31    0.69 
  -4  -8 -11    0.47    0.60 
  -4   8 -11    0.52    0.81 
  -4   8 -11    1.29    0.59 
  -5   8 -11    5.66    1.38 
  -5  -9  11    2.63    1.51 
  -5  -9  11    2.45    0.88 
  -5   9  11    6.69    1.33 
  -5   9  11    3.99    1.21 
   5   9 -11    5.33    1.94 
  -4  -9  11    0.74    0.64 
  -4  -9  11    0.28    0.76 
  -4   9  11    0.67    0.67 
  -4   9  11    0.19    0.79 
   4   9 -11   -0.05    0.79 
  -3  -9  11    1.32    0.61 
  -3  -9  11   -1.53    0.68 
  -3   9  11    0.56    0.74 
   3   9 -11    1.25    0.43 
  -3   9  11    0.59    0.65 
   3   9 -11    2.09    1.01 
  -3   9  11    0.97    0.78 
  -2  -9  11    0.71    0.47 
   2  -9 -11    1.77    0.64 
  -2  -9  11    1.94    1.06 
   2  -9 -11    1.23    0.39 
  -2  -9  11    1.11    0.57 
  -2   9  11    1.71    0.83 
  -2   9  11    4.01    1.05 
   2   9 -11    1.98    1.01 
   2   9 -11    2.17    0.68 
  -2   9  11    2.04    0.75 
  -1  -9  11   11.01    1.21 
  -1  -9  11   11.29    1.19 
   1  -9 -11    8.15    1.19 
  -1  -9  11   12.81    1.67 
   1   9 -11    9.00    1.17 
  -1   9  11    8.98    1.27 
   1   9 -11   13.23    1.33 
  -1   9  11   12.68    1.56 
   1   9 -11    9.55    1.47 
  -1   9  11    8.74    1.32 
   0  -9  11   25.30    2.26 
   0  -9 -11   23.75    2.01 
   0  -9  11   28.14    1.97 
   0   9  11   21.99    2.22 
   0   9  11   23.27    2.31 
   0   9  11   23.18    2.14 
   0   9 -11   22.52    1.92 
   0   9 -11   26.34    2.09 
   0   9 -11   28.34    2.21 
  -1  -9 -11    0.82    0.60 
   1  -9  11    2.38    0.86 
   1   9  11    1.49    0.77 
  -1   9 -11    1.23    0.55 
   1   9  11    1.04    0.95 
  -1   9 -11    1.14    0.66 
   1   9  11    0.96    0.53 
   1   9  11   -0.39    0.72 
   2  -9  11    4.48    0.89 
  -2  -9 -11    4.47    0.92 
   2   9  11    5.84    1.24 
   2   9  11    2.54    0.51 
  -2   9 -11    3.79    0.97 
  -2   9 -11    3.68    0.80 
   2   9  11    3.26    1.31 
  -3  -9 -11    2.27    0.82 
   3   9  11    1.40    0.86 
  -3   9 -11    1.71    0.68 
  -3   9 -11    1.12    0.70 
  -4  -9 -11    0.09    0.62 
  -4   9 -11    0.49    0.68 
  -4   9 -11   -0.01    0.43 
  -5   9 -11   -0.53    0.80 
  -4 -10  11    3.64    1.00 
  -4 -10  11   -0.19    0.75 
  -4  10  11    1.31    0.92 
  -4  10  11    1.63    0.93 
   4  10 -11    1.45    1.38 
  -3 -10  11    4.50    1.02 
  -3 -10  11    2.53    1.35 
  -3  10  11    5.32    1.12 
  -3  10  11    2.74    1.04 
  -3  10  11    3.10    1.06 
   3  10 -11    2.05    1.24 
   3  10 -11    4.07    0.76 
  -2 -10  11    4.54    0.98 
   2 -10 -11    5.70    0.62 
  -2 -10  11    2.73    1.23 
   2 -10 -11    4.91    0.86 
  -2 -10  11    4.29    0.94 
  -2  10  11    4.37    1.20 
  -2  10  11    6.47    1.28 
  -2  10  11    5.66    1.21 
   2  10 -11    5.74    1.23 
  -1 -10  11    1.08    0.97 
  -1 -10  11    2.37    0.72 
  -1 -10  11    3.21    0.71 
   1 -10 -11    2.65    0.81 
  -1  10  11    3.13    1.07 
   1  10 -11    2.31    0.91 
  -1  10  11    3.08    1.06 
   1  10 -11    1.09    0.58 
  -1  10  11    4.12    1.22 
   0 -10  11    8.17    1.32 
   0 -10  11   12.94    1.31 
   0 -10 -11   12.91    1.45 
   0  10  11   10.78    1.59 
   0  10  11   11.56    1.63 
   0  10 -11   12.30    1.32 
   0  10 -11    9.91    1.24 
   0  10  11   10.62    1.59 
   0  10 -11   12.85    1.49 
   1 -10  11   -0.17    0.58 
  -1 -10 -11    0.38    0.59 
   1  10  11    0.93    0.70 
   1  10  11    1.79    1.11 
  -1  10 -11    0.56    0.47 
   1  10  11    0.28    0.54 
  -1  10 -11   -0.21    0.40 
  -2 -10 -11    0.94    0.62 
  -2 -10 -11    0.52    0.64 
   2 -10  11   -0.30    0.54 
   2  10  11    0.53    0.37 
  -2  10 -11    1.93    0.67 
   2  10  11    1.28    0.97 
   2  10  11   -0.15    0.81 
  -2  10 -11    0.32    0.65 
  -3 -10 -11    0.97    0.69 
  -3  10 -11    0.27    0.70 
  -3  10 -11    0.77    0.55 
   3  10  11    0.66    0.82 
  -4 -10 -11    2.22    1.00 
  -4  10 -11    0.82    0.58 
  -4  10 -11    0.98    0.73 
  -4 -11  11   -0.92    1.22 
  -4 -11  11    2.18    0.95 
  -4  11  11    0.17    0.81 
   4  11 -11    0.82    1.04 
  -4  11  11    0.75    0.92 
   3 -11 -11   10.68    0.71 
  -3 -11  11    9.04    1.37 
  -3 -11  11   12.12    1.89 
   3  11 -11    9.78    1.93 
  -3  11  11   13.85    1.82 
  -3  11  11    8.08    1.50 
  -2 -11  11    0.06    0.45 
   2 -11 -11    1.32    0.67 
  -2 -11  11    2.56    1.33 
  -2 -11  11    0.60    0.62 
  -2  11  11    0.87    0.78 
   2  11 -11    1.42    0.80 
  -2  11  11    1.97    0.98 
  -2  11  11    0.05    0.80 
  -1 -11  11    0.70    0.65 
  -1 -11  11   -0.53    0.81 
  -1 -11  11    0.76    0.65 
   1 -11 -11   -0.28    0.49 
  -1  11  11    1.82    1.02 
   1  11 -11    1.04    0.69 
  -1  11  11    2.01    1.12 
   1  11 -11    0.72    0.87 
  -1  11  11    1.41    0.94 
   0 -11 -11    0.10    0.53 
   0 -11  11    0.22    0.73 
   0  11  11    1.25    0.96 
   0  11 -11    0.66    0.66 
   0  11 -11    1.11    0.78 
   0  11  11    0.34    0.65 
   1 -11  11    5.21    1.14 
  -1 -11 -11    3.74    1.03 
  -1  11 -11    6.42    1.05 
  -1  11 -11    4.61    1.08 
   1  11  11    5.76    1.47 
   1  11  11    5.78    1.36 
  -2 -11 -11    0.34    0.66 
   2 -11  11    1.35    0.72 
  -2 -11 -11    1.14    0.74 
  -2  11 -11    0.96    0.71 
   2  11  11    1.84    1.03 
  -2  11 -11    0.99    0.61 
  -3 -11 -11    0.23    0.69 
   3  11  11    0.77    0.91 
  -3  11 -11    0.96    0.64 
  -3  11 -11    0.46    0.73 
  -4 -11 -11    0.56    0.82 
  -4 -12  11    0.89    1.11 
  -4 -12  11   -0.14    0.70 
   4  12 -11   -0.38    0.85 
  -4  12  11    0.70    1.14 
  -4  12  11    0.36    0.91 
   3 -12 -11    0.14    0.33 
  -3 -12  11    0.15    0.49 
  -3 -12  11    0.07    0.87 
   3  12 -11    1.67    1.22 
  -3  12  11    0.29    0.91 
  -3  12  11    0.78    0.94 
   2 -12 -11   37.32    2.61 
  -2 -12  11   31.30    3.31 
  -2 -12  11   38.44    2.99 
  -2  12  11   39.84    3.27 
  -2  12  11   32.11    3.12 
  -2  12  11   35.65    3.14 
   2  12 -11   40.72    3.42 
   1 -12 -11    7.66    1.26 
  -1 -12  11    8.19    1.19 
  -1 -12  11    8.60    1.69 
   1  12 -11    6.33    1.47 
  -1  12  11    8.45    1.70 
  -1  12  11    4.93    1.44 
   0 -12  11    1.59    0.84 
   0 -12 -11    2.57    0.86 
   0  12 -11    3.01    1.05 
   0  12 -11    2.42    0.81 
   0  12  11    1.74    1.22 
   0  12  11    1.53    0.92 
   1 -12  11    0.75    0.92 
  -1 -12 -11    0.47    0.71 
   1  12  11    1.01    1.04 
  -1  12 -11   -0.07    0.49 
  -1  12 -11    1.12    0.76 
   2 -12  11    1.43    0.84 
  -2 -12 -11    1.70    0.87 
  -2 -12 -11    1.30    0.82 
  -2  12 -11    0.67    0.72 
   2  12  11    3.05    1.13 
  -2  12 -11    1.81    0.77 
  -3 -12 -11    0.96    0.71 
   3  12  11    4.02    1.30 
  -3  12 -11    1.93    0.77 
  -4 -12 -11    0.07    0.76 
   3 -13 -11   -0.60    0.35 
  -3 -13  11   -0.18    1.11 
  -3  13  11    1.85    1.09 
  -3  13  11   -1.47    0.85 
   3  13 -11    1.84    1.34 
   2 -13 -11    4.61    1.01 
  -2 -13  11    3.24    1.24 
   2  13 -11    4.74    1.54 
  -2  13  11    6.77    1.53 
  -2  13  11    4.37    1.44 
  -1 -13  11    5.80    1.15 
  -1 -13  11    7.17    1.67 
   1 -13 -11    7.22    1.19 
  -1  13  11    8.02    1.69 
  -1  13  11    5.23    1.56 
   1  13 -11    6.65    1.35 
   0 -13 -11    0.19    0.71 
   0 -13  11    0.47    0.94 
   0  13  11   -0.07    0.91 
   0  13 -11    0.78    0.75 
  -1 -13 -11   21.11    2.04 
   1 -13  11   19.77    2.08 
   1  13  11   13.27    1.93 
  -1  13 -11   15.78    1.81 
  -2 -13 -11    0.05    0.71 
  -2 -13 -11    0.09    0.72 
   2 -13  11    0.26    0.70 
   2  13  11   -0.15    0.87 
  -2  13 -11    0.63    0.70 
  -3 -13 -11    2.92    1.00 
  -3  13 -11    2.64    1.19 
   3  13  11    3.80    1.35 
   3 -14 -11    1.77    0.51 
  -3 -14  11    1.96    1.28 
  -3  14  11    2.57    1.46 
   3  14 -11    3.12    1.70 
   2 -14 -11    3.16    0.88 
  -2 -14  11    4.04    1.65 
  -2  14  11    3.79    1.49 
   2  14 -11    4.77    1.55 
  -2  14  11    4.66    1.61 
  -1 -14  11    6.57    1.46 
   1 -14 -11    9.59    1.44 
  -1 -14  11    7.26    1.28 
   1  14 -11    6.02    1.63 
  -1  14  11    6.82    1.44 
   0 -14  11    4.89    1.02 
   0 -14 -11    6.47    1.28 
   0 -14  11    8.45    1.62 
   0  14 -11    5.94    1.54 
   0  14  11    5.43    1.70 
   1 -14  11    1.15    0.94 
  -1 -14 -11    1.13    0.83 
  -1  14 -11    0.35    0.60 
   1  14  11   -0.25    0.86 
  -2 -14 -11    1.55    0.85 
  -2 -14 -11    2.62    1.11 
   2 -14  11    0.70    0.89 
  -2  14 -11    0.75    0.80 
   2  14  11    1.33    1.26 
  -3 -14 -11    3.43    1.15 
   3  14  11    2.34    1.27 
  -2 -15  11    3.10    1.38 
   2 -15 -11    2.02    0.84 
  -2  15  11    2.10    1.19 
   2  15 -11    1.22    1.22 
   1 -15 -11    5.30    1.21 
  -1 -15  11    6.70    1.29 
  -1 -15  11    8.33    1.83 
  -1  15  11    4.20    1.67 
   1  15 -11    6.85    1.52 
   0 -15  11   -0.09    0.62 
   0 -15  11    0.63    0.85 
   0 -15 -11   -0.28    0.70 
   0  15  11    1.73    0.98 
   0  15 -11    0.52    0.98 
  -1 -15 -11    5.38    1.41 
   1 -15  11    6.16    1.44 
   1  15  11    4.90    1.52 
  -1  15 -11    4.83    1.36 
  -2 -15 -11   -0.47    0.80 
  -2 -15 -11   -0.02    0.58 
   2  15  11    1.59    1.21 
  -2  15 -11    0.21    0.85 
  -2 -16  11    0.45    1.29 
   2 -16 -11    1.53    0.84 
   2  16 -11    2.00    1.45 
  -2  16  11    2.61    1.54 
   1 -16 -11    4.36    1.25 
  -1 -16  11    5.16    1.28 
  -1 -16  11    3.78    1.47 
   1  16 -11    4.15    1.65 
  -1  16  11    4.34    1.65 
   0 -16  11    0.38    1.11 
   0 -16 -11    0.40    0.85 
   0 -16  11    1.02    0.82 
   0  16 -11    1.61    1.22 
   0  16  11   -0.13    1.09 
  -1 -16 -11    4.66    1.40 
   1 -16  11    6.85    1.76 
  -1  16 -11    9.60    1.74 
   1  16  11   11.46    2.14 
  -5   0  12    1.09    0.45 
   5   0 -12    0.18    0.86 
  -4   0  12   15.69    1.26 
   4   0 -12   16.23    1.84 
  -3   0  12    7.42    0.81 
   3   0 -12    7.04    1.15 
   2   0 -12    2.28    0.46 
   2   0 -12    1.52    0.41 
   2   0 -12    2.28    0.68 
  -2   0  12    1.32    0.44 
   1   0 -12    2.27    0.53 
   1   0 -12    3.16    0.54 
   1   0 -12    2.95    0.54 
  -1   0  12    3.07    0.55 
   0   0  12   37.25    2.42 
   0   0  12   39.24    2.37 
   0   0 -12   36.10    2.39 
   0   0 -12   37.90    2.52 
   0   0 -12   40.27    2.40 
  -1   0 -12    4.25    0.82 
   1   0  12    3.86    0.66 
  -1   0 -12    3.58    0.60 
   1   0  12    3.72    0.54 
   2   0  12   15.98    1.26 
  -2   0 -12   15.04    1.25 
   2   0  12   14.76    1.36 
  -2   0 -12   17.42    1.57 
   3   0  12   48.96    3.43 
  -3   0 -12   51.12    3.11 
  -3   0 -12   48.41    3.44 
   4   0  12    6.94    1.30 
  -4   0 -12    7.59    0.96 
  -4   0 -12    7.90    1.21 
  -5   0 -12    1.97    0.96 
  -5  -1  12    0.66    0.78 
  -5  -1  12   -0.15    0.33 
   5  -1 -12   -0.78    0.67 
  -5   1  12    0.17    0.36 
   5   1 -12   -0.34    0.86 
   4  -1 -12   13.95    1.67 
  -4  -1  12   14.00    1.18 
  -4   1  12   13.31    1.15 
   4   1 -12   13.84    1.77 
  -3  -1  12   16.09    1.36 
   3  -1 -12   18.42    1.74 
  -3   1  12   19.24    1.41 
   3   1 -12   23.49    2.00 
   2  -1 -12    3.92    0.58 
   2  -1 -12    4.26    0.56 
   2  -1 -12    4.49    0.78 
  -2  -1  12    3.04    0.58 
   2   1 -12    3.99    0.56 
   2   1 -12    3.93    0.58 
  -2   1  12    3.43    0.59 
   2   1 -12    5.51    0.92 
   1  -1 -12    4.19    0.65 
   1   1 -12    2.90    0.55 
   1   1 -12    4.64    0.62 
  -1   1  12    4.35    0.64 
   1   1 -12    2.29    0.53 
   0  -1 -12    0.03    0.39 
   0  -1 -12    0.20    0.24 
   0  -1 -12    0.15    0.31 
   0  -1  12    0.24    0.33 
   0  -1  12    0.37    0.33 
   0  -1 -12    0.45    0.27 
   0   1 -12    0.56    0.35 
   0   1  12   -0.22    0.24 
   0   1 -12    0.35    0.38 
   0   1 -12    0.44    0.30 
   1  -1  12   64.51    3.52 
  -1  -1 -12   57.86    3.54 
   1  -1  12   65.50    3.64 
  -1  -1 -12   61.81    3.80 
   1   1  12   59.84    3.38 
  -1   1 -12   59.03    3.57 
   1   1  12   59.05    3.65 
  -1   1 -12   61.11    3.82 
   2  -1  12   28.65    1.97 
   2  -1  12   26.68    1.78 
  -2  -1 -12   28.80    1.93 
  -2  -1 -12   26.57    2.15 
   2   1  12   27.18    2.01 
  -2   1 -12   24.22    2.15 
  -2   1 -12   29.41    1.95 
  -3  -1 -12    0.36    0.50 
  -3  -1 -12    1.54    0.53 
   3   1  12    1.29    0.64 
  -3   1 -12    0.40    0.50 
   3   1  12    1.32    0.64 
  -3   1 -12    0.35    0.41 
   4  -1  12   -0.06    0.70 
  -4  -1 -12   -0.06    0.38 
  -4  -1 -12    0.45    0.57 
  -4   1 -12    0.21    0.47 
  -4   1 -12   -0.02    0.40 
   4   1  12   -0.09    0.75 
  -5  -1 -12    1.63    0.89 
  -5   1 -12    1.61    0.92 
   5   1  12    4.09    1.32 
  -5  -2  12    1.68    1.10 
   5  -2 -12    2.69    1.05 
  -5  -2  12    1.07    0.45 
  -5   2  12    1.94    0.54 
   5   2 -12    2.46    1.19 
   4  -2 -12   11.54    1.47 
  -4  -2  12   10.25    1.03 
  -4  -2  12    9.70    1.43 
  -4   2  12   10.74    1.03 
   4   2 -12   15.37    1.86 
  -3  -2  12   14.50    1.21 
   3  -2 -12   12.63    1.43 
  -3   2  12   14.23    1.20 
   3   2 -12   16.74    1.76 
   2  -2 -12    0.75    0.38 
  -2  -2  12    0.25    0.28 
   2  -2 -12    0.39    0.32 
   2  -2 -12    0.41    0.28 
   2   2 -12    0.57    0.35 
   2   2 -12    0.42    0.52 
   2   2 -12    0.42    0.30 
  -2   2  12    0.50    0.36 
  -1  -2  12    1.66    0.51 
   1  -2 -12    1.28    0.45 
   1  -2 -12    2.78    0.53 
  -1  -2  12    0.97    0.35 
   1   2 -12    0.82    0.37 
   1   2 -12    1.61    0.46 
  -1   2  12    2.47    0.57 
   1   2 -12    0.76    0.41 
   0  -2  12   -0.21    0.20 
   0  -2 -12    0.03    0.28 
   0  -2 -12   -0.04    0.29 
   0  -2  12    0.32    0.34 
   0   2 -12    0.38    0.32 
   0   2 -12    0.10    0.34 
   0   2 -12    0.41    0.40 
   0   2  12    0.21    0.36 
  -1  -2 -12   16.85    1.38 
  -1  -2 -12   17.91    1.56 
  -1  -2 -12   16.49    1.33 
   1  -2  12   18.89    1.38 
   1   2  12   19.24    1.18 
   1   2  12   16.53    1.41 
  -1   2 -12   14.39    1.44 
  -1   2 -12   16.71    1.32 
  -1   2 -12   15.21    1.29 
  -2  -2 -12    4.85    0.84 
  -2  -2 -12    3.65    0.64 
   2  -2  12    3.85    0.70 
  -2   2 -12    4.35    0.70 
  -2   2 -12    3.05    0.74 
   2   2  12    4.32    0.84 
   2   2  12    3.80    0.98 
  -3  -2 -12    2.71    0.91 
   3  -2  12    3.47    0.40 
  -3  -2 -12    3.66    0.62 
  -3   2 -12    1.94    0.62 
  -3   2 -12    4.38    0.51 
   3   2  12    4.08    0.92 
   3   2  12    2.61    0.85 
  -3   2 -12    2.83    0.83 
   4  -2  12    0.78    0.69 
  -4  -2 -12    0.42    0.56 
  -4  -2 -12    0.59    0.47 
   4   2  12   -1.10    0.66 
  -4   2 -12    0.71    0.57 
  -4   2 -12    0.33    0.45 
  -5  -2 -12    1.82    0.85 
   5   2  12    0.76    1.12 
  -5   2 -12    1.47    0.81 
  -5  -3  12   11.47    1.11 
  -5  -3  12   11.66    1.90 
   5   3 -12   12.27    1.99 
  -5   3  12   11.02    1.12 
  -4  -3  12    5.07    1.12 
   4  -3 -12    8.72    1.27 
  -4  -3  12    5.94    0.78 
   4   3 -12    8.01    1.52 
  -4   3  12    4.01    0.70 
   3  -3 -12    2.49    0.72 
  -3  -3  12    3.38    0.98 
  -3  -3  12    1.15    0.48 
   3   3 -12    1.44    0.74 
  -3   3  12    1.83    0.53 
  -2  -3  12   18.85    1.44 
  -2  -3  12   20.00    1.70 
   2  -3 -12   17.51    1.35 
   2  -3 -12   19.63    1.27 
   2  -3 -12   20.29    1.53 
   2   3 -12   18.29    1.73 
   2   3 -12   19.27    1.33 
  -2   3  12   18.38    1.47 
   2   3 -12   18.04    1.29 
   2   3 -12   18.32    1.39 
   1  -3 -12    1.10    0.45 
  -1  -3  12    1.61    0.59 
   1  -3 -12    0.81    0.38 
  -1  -3  12    1.87    0.51 
   1   3 -12    1.21    0.46 
  -1   3  12    1.01    0.48 
   1   3 -12    0.81    0.37 
   1   3 -12    1.34    0.57 
   0  -3 -12    0.26    0.31 
   0  -3  12    1.40    0.51 
   0  -3 -12    0.30    0.36 
   0  -3  12    0.73    0.38 
   0   3 -12    1.07    0.40 
   0   3 -12    0.46    0.44 
   0   3 -12    0.97    0.48 
   0   3 -12    1.51    0.48 
   0   3  12    0.56    0.45 
  -1  -3 -12    9.64    0.93 
   1  -3  12   10.03    0.94 
  -1  -3 -12    9.03    0.97 
   1   3  12    7.20    1.01 
  -1   3 -12    9.68    1.10 
  -1   3 -12    9.55    0.97 
  -1   3 -12    8.86    0.91 
  -2  -3 -12    0.19    0.28 
   2  -3  12    0.66    0.35 
   2  -3  12    0.37    0.38 
  -2  -3 -12    0.86    0.49 
  -2   3 -12    0.33    0.43 
  -2   3 -12    0.07    0.23 
   2   3  12    1.01    0.57 
  -2   3 -12    0.46    0.33 
   2   3  12    0.55    0.54 
   2   3  12    0.76    0.67 
  -3  -3 -12   16.32    1.43 
   3  -3  12   15.18    0.96 
  -3  -3 -12   17.64    1.46 
  -3   3 -12   16.73    1.42 
  -3   3 -12   16.60    1.21 
  -3   3 -12   19.14    1.77 
   3   3  12   16.23    1.54 
   3   3  12   17.22    1.93 
   4  -3  12    5.24    1.03 
  -4   3 -12    3.83    1.13 
  -4   3 -12    4.40    0.83 
   4   3  12    5.05    1.39 
   5   3  12    3.58    1.36 
  -5   3 -12    4.85    1.35 
  -5  -4  12    0.25    0.72 
  -5  -4  12    0.41    0.45 
   5   4 -12    0.60    0.97 
  -5   4  12   -0.22    0.42 
  -4  -4  12    1.24    0.80 
  -4  -4  12    1.13    0.51 
   4  -4 -12    0.41    0.62 
   4   4 -12    2.06    1.12 
  -4   4  12    1.98    0.60 
   3  -4 -12   21.14    1.70 
  -3  -4  12   22.86    2.09 
  -3  -4  12   18.33    1.51 
   3   4 -12   19.00    1.99 
  -3   4  12   18.23    1.57 
   2  -4 -12   11.52    1.06 
   2  -4 -12   11.66    0.99 
  -2  -4  12    9.12    1.26 
  -2  -4  12   10.55    1.05 
  -2  -4  12    8.67    1.17 
   2   4 -12   10.41    1.31 
   2   4 -12   10.93    0.93 
  -2   4  12    9.65    1.08 
   2   4 -12   10.73    0.92 
   2   4 -12   11.03    1.03 
   1  -4 -12    0.07    0.31 
  -1  -4  12   -0.03    0.33 
  -1  -4  12    0.19    0.54 
   1  -4 -12    0.36    0.34 
  -1  -4  12    0.48    0.37 
   1   4 -12   -0.03    0.37 
   1   4 -12    0.02    0.30 
  -1   4  12   -0.07    0.40 
   1   4 -12   -0.27    0.26 
   0  -4  12    5.32    0.81 
   0  -4  12    6.35    0.93 
   0  -4 -12    6.30    0.82 
   0  -4 -12    5.29    0.70 
   0  -4  12    5.46    0.73 
   0   4 -12    5.43    0.81 
   0   4 -12    5.47    0.83 
   0   4 -12    5.47    0.69 
   0   4 -12    6.04    0.80 
   0   4  12    5.16    0.86 
   1  -4  12    1.97    0.44 
   1  -4  12    2.21    0.62 
  -1  -4 -12    1.97    0.50 
  -1  -4 -12    2.02    0.56 
  -1   4 -12    1.70    0.52 
   1   4  12    2.02    0.72 
   1   4  12    2.56    0.74 
  -1   4 -12    2.15    0.51 
  -1   4 -12    1.54    0.56 
  -1   4 -12    1.76    0.66 
  -1   4 -12    1.67    0.56 
   2  -4  12    0.08    0.34 
  -2  -4 -12    0.81    0.45 
   2  -4  12    0.39    0.37 
  -2  -4 -12    0.47    0.34 
  -2   4 -12    0.17    0.38 
  -2   4 -12    0.16    0.26 
   2   4  12   -0.76    0.43 
  -2   4 -12   -0.05    0.31 
   2   4  12    0.91    0.80 
   2   4  12    1.34    0.67 
  -2   4 -12    0.32    0.41 
  -3  -4 -12    3.31    0.68 
  -3  -4 -12    7.22    0.93 
  -3   4 -12    3.47    0.90 
   3   4  12    4.29    1.29 
  -3   4 -12    6.36    0.81 
   3   4  12    6.06    1.08 
  -3   4 -12    6.43    0.77 
  -4   4 -12    3.41    1.01 
   4   4  12    7.14    1.64 
   5   4  12    1.01    1.25 
  -5   4 -12    2.18    0.88 
  -5  -5  12   -0.52    0.37 
  -5  -5  12    0.46    1.12 
   5   5 -12   -0.50    0.96 
  -5   5  12   -0.32    0.45 
  -4  -5  12   26.30    2.09 
  -4  -5  12   28.61    2.87 
   4  -5 -12   31.32    2.34 
   4   5 -12   32.83    3.03 
  -4   5  12   32.24    2.22 
  -3  -5  12   10.89    1.12 
  -3  -5  12    8.67    1.51 
   3  -5 -12    9.49    1.09 
  -3   5  12   11.40    1.18 
   3   5 -12    9.01    1.57 
  -2  -5  12   10.80    1.28 
  -2  -5  12   13.25    1.22 
  -2  -5  12   10.84    1.52 
   2  -5 -12   12.73    1.12 
   2  -5 -12   12.36    1.11 
   2   5 -12   13.58    1.07 
   2   5 -12   12.99    1.50 
   2   5 -12   14.90    1.21 
  -2   5  12   13.15    1.31 
   1  -5 -12    0.39    0.45 
   1  -5 -12    0.68    0.34 
  -1  -5  12    1.33    0.50 
  -1  -5  12    1.47    0.59 
  -1  -5  12    2.09    0.74 
   1   5 -12    1.23    0.52 
  -1   5  12    0.67    0.53 
   1   5 -12    1.29    0.46 
   1   5 -12    1.73    0.68 
   0  -5  12   -0.06    0.33 
   0  -5 -12    0.58    0.44 
   0  -5  12    0.96    0.47 
   0  -5  12    1.26    0.46 
   0   5 -12    0.53    0.42 
   0   5 -12   -0.19    0.38 
   0   5 -12    0.69    0.40 
   0   5  12    0.47    0.48 
   0   5 -12    0.57    0.42 
   0   5  12    0.39    0.38 
   1  -5  12    4.04    0.75 
  -1  -5 -12    2.93    0.67 
  -1  -5 -12    2.38    0.57 
   1  -5  12    4.27    0.60 
   1   5  12    3.93    0.85 
  -1   5 -12    3.36    0.63 
   1   5  12    4.18    0.89 
  -1   5 -12    3.42    0.69 
  -1   5 -12    3.26    0.83 
   1   5  12    4.76    1.06 
  -1   5 -12    3.93    0.65 
  -1   5 -12    4.31    0.72 
  -2  -5 -12    0.36    0.45 
  -2  -5 -12    0.23    0.44 
   2  -5  12    0.36    0.42 
   2  -5  12    0.65    0.44 
   2   5  12    0.05    0.54 
   2   5  12    1.31    0.61 
   2   5  12    1.65    0.87 
  -2   5 -12    0.98    0.39 
  -2   5 -12    0.64    0.46 
  -2   5 -12    0.99    0.50 
  -2   5 -12    0.83    0.53 
  -3  -5 -12    2.89    0.77 
  -3   5 -12    1.34    0.58 
   3   5  12    1.69    0.79 
  -3   5 -12    0.87    0.70 
  -3   5 -12    1.50    0.49 
   3   5  12    2.07    0.91 
  -3   5 -12    1.95    0.61 
  -4   5 -12    0.28    0.57 
   4   5  12    0.28    0.82 
  -5   5 -12    8.23    1.53 
  -5  -6  12   11.77    1.27 
  -5  -6  12   11.32    1.87 
  -5   6  12   12.91    1.40 
   5   6 -12    8.69    2.02 
  -4  -6  12    6.43    1.56 
  -4  -6  12    6.18    0.95 
   4   6 -12    6.91    1.62 
  -4   6  12    6.42    1.06 
  -3  -6  12    4.09    0.76 
   3  -6 -12    5.06    0.82 
  -3  -6  12    7.20    1.45 
   3   6 -12    4.17    1.25 
   3   6 -12    3.12    0.22 
  -3   6  12    3.20    0.81 
   3   6 -12    5.04    0.71 
  -3   6  12    4.28    0.91 
  -2  -6  12    4.06    0.72 
  -2  -6  12    5.66    1.22 
   2  -6 -12    1.40    0.55 
   2  -6 -12    3.83    0.64 
  -2  -6  12    3.17    0.75 
   2   6 -12    3.59    0.59 
   2   6 -12    3.88    0.76 
   2   6 -12    2.30    0.95 
  -2   6  12    2.42    0.76 
  -2   6  12    1.77    0.78 
   1  -6 -12    3.55    0.53 
  -1  -6  12    3.41    0.60 
   1  -6 -12    1.61    0.57 
  -1  -6  12    2.32    0.79 
  -1  -6  12    3.98    0.86 
  -1   6  12    4.23    0.96 
   1   6 -12    3.78    0.68 
   1   6 -12    3.69    0.88 
  -1   6  12    1.85    0.62 
   1   6 -12    3.81    0.71 
   0  -6  12    0.04    0.37 
   0  -6  12    0.73    0.50 
   0  -6 -12    1.03    0.51 
   0   6  12    0.45    0.63 
   0   6 -12    0.41    0.38 
   0   6 -12    0.27    0.34 
   0   6 -12    0.31    0.47 
   0   6 -12    0.40    0.52 
   0   6  12    0.79    0.62 
  -1  -6 -12    0.25    0.48 
  -1  -6 -12    1.21    0.54 
   1  -6  12    0.43    0.55 
   1  -6  12    0.28    0.38 
   1   6  12    0.56    0.57 
  -1   6 -12   -0.14    0.51 
  -1   6 -12    0.91    0.44 
   1   6  12   -0.05    0.65 
   1   6  12    0.10    0.39 
  -1   6 -12    0.48    0.43 
  -1   6 -12    0.22    0.46 
  -2  -6 -12   -0.13    0.40 
  -2  -6 -12   -0.14    0.43 
   2  -6  12    0.44    0.43 
  -2   6 -12    0.07    0.37 
  -2   6 -12    0.44    0.47 
  -2   6 -12   -0.37    0.55 
   2   6  12   -0.23    0.63 
   2   6  12    0.43    0.83 
  -2   6 -12    0.17    0.41 
  -3  -6 -12    1.72    0.63 
  -3   6 -12    0.76    0.48 
   3   6  12    1.23    0.78 
  -3   6 -12    1.47    0.67 
   3   6  12    0.60    0.77 
  -3   6 -12    3.34    0.75 
  -4   6 -12    2.87    0.98 
  -4   6 -12    3.84    0.68 
   4   6  12    5.05    1.55 
  -5   6 -12    0.32    0.57 
  -5  -7  12    0.46    0.56 
  -5  -7  12    1.28    1.21 
  -5   7  12   -0.14    0.57 
   5   7 -12    1.91    1.24 
  -4  -7  12    1.76    0.67 
  -4  -7  12    2.86    1.31 
  -4   7  12    1.90    0.79 
   4   7 -12    1.45    0.96 
   3  -7 -12    0.37    0.45 
  -3  -7  12   -0.35    0.83 
  -3  -7  12    0.35    0.46 
  -3   7  12    0.24    0.60 
   3   7 -12    1.32    0.94 
   3   7 -12    0.47    0.25 
  -3   7  12    0.91    0.64 
   3   7 -12    0.76    0.26 
   2  -7 -12   20.99    1.59 
  -2  -7  12   24.24    2.23 
  -2  -7  12   22.13    1.75 
   2  -7 -12   18.42    1.45 
  -2  -7  12   19.61    1.63 
  -2   7  12   20.05    1.90 
   2   7 -12   18.81    1.59 
   2   7 -12   21.59    2.20 
   2   7 -12   20.00    1.55 
  -2   7  12   21.96    1.89 
  -1  -7  12    1.15    0.83 
  -1  -7  12    3.70    0.89 
  -1  -7  12    2.33    0.65 
   1  -7 -12    3.19    0.80 
   1   7 -12    1.73    0.62 
  -1   7  12    2.47    0.79 
   1   7 -12   -0.08    0.60 
  -1   7  12    2.44    0.83 
   0  -7  12    1.11    0.42 
   0  -7 -12   -0.40    0.39 
   0  -7  12    0.85    0.67 
   0   7 -12    1.72    0.63 
   0   7  12    1.78    0.87 
   0   7 -12    0.85    0.55 
   0   7  12    1.28    0.58 
   0   7  12    1.29    0.72 
   0   7 -12    2.15    0.63 
   1  -7  12    1.28    0.64 
   1  -7  12    0.58    0.45 
  -1  -7 -12    0.78    0.48 
  -1  -7 -12    1.18    0.55 
  -1   7 -12    1.35    0.59 
   1   7  12    0.63    0.54 
  -1   7 -12    1.11    0.59 
  -1   7 -12    1.21    0.58 
   1   7  12    1.34    0.72 
  -1   7 -12    1.93    0.63 
   1   7  12    1.36    0.77 
   2  -7  12    0.04    0.46 
  -2  -7 -12    0.92    0.54 
  -2   7 -12    0.06    0.40 
   2   7  12   -1.49    0.48 
  -2   7 -12    0.59    0.48 
   2   7  12    0.06    0.84 
  -2   7 -12    0.41    0.49 
  -3  -7 -12    0.63    0.57 
   3   7  12   -0.06    0.93 
  -3   7 -12    1.23    0.59 
   3   7  12    2.15    1.01 
  -3   7 -12    1.14    0.55 
  -3   7 -12    0.15    0.71 
  -4   7 -12   10.78    1.65 
  -4   7 -12   12.47    1.26 
  -5   7 -12   -0.33    0.49 
  -5   7 -12   -0.16    0.43 
  -5  -8  12    8.37    1.28 
  -5  -8  12    8.79    2.10 
  -5   8  12   10.95    1.57 
   5   8 -12   11.35    2.27 
  -5   8  12   11.75    1.56 
  -4  -8  12    0.24    0.56 
  -4  -8  12   -0.22    0.58 
  -4   8  12    0.27    0.61 
   4   8 -12    0.42    1.06 
  -4   8  12    0.40    0.65 
  -3  -8  12    1.23    0.89 
  -3  -8  12    1.53    0.66 
   3  -8 -12    1.89    0.68 
   3   8 -12    1.58    0.43 
  -3   8  12    1.80    0.80 
  -3   8  12    1.30    0.73 
  -3   8  12    1.06    0.75 
   3   8 -12    1.63    0.36 
   3   8 -12    0.75    0.74 
  -2  -8  12    3.20    1.01 
  -2  -8  12    2.51    0.71 
   2  -8 -12    3.57    0.77 
  -2  -8  12    4.11    0.84 
   2  -8 -12    2.33    0.54 
   2   8 -12    1.65    0.62 
  -2   8  12    2.97    0.96 
  -2   8  12    2.75    0.94 
   2   8 -12    3.34    1.22 
  -2   8  12    5.85    1.04 
   1  -8 -12   17.79    1.66 
  -1  -8  12   18.41    2.00 
  -1  -8  12   17.78    1.57 
  -1  -8  12   22.64    1.93 
  -1   8  12   18.62    1.88 
   1   8 -12   15.40    1.57 
  -1   8  12   15.86    1.67 
   1   8 -12   17.04    1.81 
  -1   8  12   18.13    1.92 
   0  -8 -12   20.29    1.71 
   0  -8  12   17.37    1.48 
   0  -8  12   17.40    1.84 
   0   8  12   14.71    1.79 
   0   8 -12   18.46    1.60 
   0   8  12   16.66    1.88 
   0   8 -12   20.24    1.83 
   0   8 -12   22.80    1.75 
   0   8  12   15.25    1.70 
  -1  -8 -12   22.51    1.92 
   1  -8  12   26.28    2.05 
   1   8  12   20.35    2.27 
   1   8  12   23.59    2.09 
  -1   8 -12   25.33    1.98 
  -1   8 -12   20.41    1.83 
   1   8  12   21.23    2.33 
   2  -8  12    0.47    0.52 
  -2  -8 -12   -0.38    0.44 
   2   8  12    1.07    0.71 
   2   8  12    0.44    0.25 
  -2   8 -12    0.70    0.52 
  -2   8 -12    0.62    0.48 
   2   8  12    0.31    0.81 
  -3   8 -12   -0.13    0.50 
  -3   8 -12    0.18    0.46 
   3   8  12    0.81    0.93 
  -3   8 -12   -0.44    0.43 
   3   8  12    0.48    0.89 
  -4   8 -12    0.09    0.78 
  -4   8 -12    0.38    0.50 
  -5   8 -12   -0.49    0.71 
  -4  -9  12    2.16    0.79 
  -4  -9  12    1.22    1.26 
  -4   9  12    2.70    0.97 
  -4   9  12    0.61    0.83 
   4   9 -12    6.70    1.70 
  -3  -9  12    0.12    0.72 
  -3  -9  12    2.25    0.73 
   3   9 -12    1.46    0.48 
  -3   9  12    0.80    0.82 
   3   9 -12    2.60    1.06 
  -3   9  12   -0.31    0.64 
  -3   9  12    1.01    0.75 
  -2  -9  12    9.48    1.15 
   2  -9 -12    7.51    1.01 
  -2  -9  12    5.89    1.30 
  -2  -9  12    9.01    1.16 
   2  -9 -12    9.30    0.87 
  -2   9  12    8.64    1.37 
  -2   9  12   10.83    1.52 
  -2   9  12    6.78    1.33 
   2   9 -12    9.92    1.50 
   1  -9 -12    1.79    0.72 
  -1  -9  12    2.11    0.73 
  -1  -9  12    1.36    0.81 
  -1   9  12    2.06    0.89 
  -1   9  12    2.02    0.95 
  -1   9  12    1.63    0.86 
   1   9 -12    0.87    0.76 
   0  -9  12    3.76    0.90 
   0  -9  12    3.96    0.79 
   0  -9 -12    2.84    0.86 
   0   9 -12    4.34    0.93 
   0   9  12    3.05    1.04 
   0   9 -12    3.78    0.79 
   0   9  12    2.93    0.98 
   0   9 -12    3.22    0.94 
   0   9  12    3.74    1.17 
  -1  -9 -12    9.00    1.23 
   1  -9  12    5.47    1.12 
   1   9  12    8.84    1.70 
  -1   9 -12    8.58    1.08 
  -1   9 -12    8.75    1.20 
   1   9  12    7.19    1.21 
  -2  -9 -12    6.49    0.99 
   2  -9  12    6.60    1.02 
   2   9  12    3.66    1.25 
  -2   9 -12    6.41    1.06 
  -2   9 -12    5.71    0.88 
   2   9  12    5.01    1.31 
   3   9  12    4.54    1.24 
  -3   9 -12    6.45    1.20 
  -3   9 -12    4.21    0.85 
  -3   9 -12    4.40    0.99 
  -4   9 -12    1.57    0.83 
  -4   9 -12    2.35    0.74 
  -4 -10  12   -0.53    0.56 
  -4 -10  12    1.53    1.33 
   4  10 -12    0.82    1.19 
  -4  10  12   -0.13    0.77 
  -4  10  12    0.29    0.79 
  -3 -10  12    2.25    1.15 
  -3 -10  12    2.45    0.89 
  -3  10  12    1.79    0.93 
   3  10 -12    2.23    1.14 
  -3  10  12    2.01    0.96 
  -3  10  12    0.97    0.86 
  -2 -10  12    1.04    0.64 
   2 -10 -12    0.95    0.58 
  -2 -10  12    0.60    0.75 
   2 -10 -12    0.24    0.32 
  -2 -10  12    0.55    0.61 
   2  10 -12    0.77    0.76 
  -2  10  12    1.06    0.82 
  -2  10  12   -0.72    0.62 
  -2  10  12    1.31    0.89 
  -1 -10  12    7.14    1.05 
  -1 -10  12    8.45    1.14 
   1 -10 -12    5.28    1.09 
  -1 -10  12    4.97    1.17 
  -1  10  12    6.46    1.43 
  -1  10  12    7.72    1.42 
   1  10 -12    7.02    1.09 
   1  10 -12    9.12    1.37 
  -1  10  12    5.77    1.29 
   0 -10  12    7.67    1.41 
   0 -10 -12    8.65    1.26 
   0  10 -12    8.52    1.14 
   0  10 -12    9.36    1.30 
   0  10  12    7.56    1.41 
   0  10  12    7.41    1.41 
  -1 -10 -12    4.47    1.06 
   1 -10  12    3.22    1.13 
  -1  10 -12    5.60    1.08 
  -1  10 -12    4.38    0.94 
   1  10  12    2.70    1.01 
   1  10  12    3.19    1.38 
   2 -10  12   19.06    1.68 
  -2 -10 -12   19.26    1.84 
  -2  10 -12   15.25    1.60 
  -2  10 -12   13.98    1.56 
   2  10  12   17.74    2.04 
  -3  10 -12    0.01    0.54 
   3  10  12    0.90    0.91 
  -3  10 -12   -0.50    0.59 
  -4  10 -12    3.19    1.29 
  -4  10 -12    2.77    0.83 
  -4 -11  12    3.40    1.05 
  -4 -11  12    5.34    1.61 
   4  11 -12    9.30    2.17 
  -4  11  12    4.30    1.31 
  -4  11  12    4.08    1.39 
  -3 -11  12    0.80    0.74 
  -3 -11  12    1.03    1.16 
   3 -11 -12    0.76    0.29 
  -3  11  12    2.20    1.11 
  -3  11  12    0.02    0.90 
   3  11 -12    0.26    0.70 
  -2 -11  12    0.74    0.68 
   2 -11 -12    0.53    0.57 
  -2 -11  12    1.75    0.99 
   2  11 -12    0.46    0.68 
  -2  11  12    1.14    0.86 
  -2  11  12    2.01    1.13 
  -2  11  12    1.73    1.01 
  -1 -11  12    5.40    1.39 
   1 -11 -12    3.91    0.99 
  -1 -11  12    3.96    0.79 
  -1  11  12    2.81    1.15 
   1  11 -12    4.62    1.13 
  -1  11  12    2.07    1.09 
   1  11 -12    1.81    1.10 
  -1  11  12    4.06    1.34 
   0 -11 -12    0.12    0.60 
   0 -11  12    0.67    0.84 
   0  11  12    0.36    0.93 
   0  11 -12   -0.05    0.46 
   0  11  12   -0.08    0.68 
   0  11 -12   -0.01    0.63 
   1 -11  12    1.70    0.82 
  -1 -11 -12    0.17    0.65 
   1  11  12    2.47    1.29 
  -1  11 -12    0.98    0.59 
  -1  11 -12    0.82    0.73 
   1  11  12   -0.21    0.81 
   2 -11  12    6.51    1.20 
  -2 -11 -12   12.45    1.47 
   2  11  12    9.48    1.64 
  -2  11 -12    7.77    1.18 
  -2  11 -12    9.32    1.29 
   3  11  12    6.30    1.54 
  -3  11 -12    5.83    1.26 
  -3  11 -12    6.78    1.10 
  -4 -11 -12    0.90    0.76 
  -4  11 -12    1.07    1.02 
  -4 -12  12   -0.44    1.23 
  -4 -12  12    0.83    0.80 
  -4  12  12   -0.79    0.88 
   4  12 -12    0.08    0.98 
  -4  12  12    0.33    0.94 
   3 -12 -12    0.14    0.33 
  -3 -12  12    0.24    0.75 
  -3 -12  12   -0.35    0.76 
  -3  12  12   -0.66    0.72 
  -3  12  12    1.03    0.99 
   3  12 -12   -0.02    1.04 
   2 -12 -12    0.41    0.61 
  -2 -12  12    1.44    1.16 
  -2  12  12   -0.69    0.76 
   2  12 -12   -0.36    0.89 
  -2  12  12    0.19    0.98 
  -2  12  12    0.26    0.86 
   1 -12 -12   -0.30    0.54 
  -1 -12  12   -0.20    0.56 
  -1 -12  12    0.72    0.75 
   1  12 -12    0.78    0.75 
  -1  12  12    0.85    1.02 
  -1  12  12    2.18    1.17 
   0 -12 -12    1.22    0.79 
   0 -12  12    2.11    1.10 
   0  12  12    1.39    1.00 
   0  12  12    1.04    0.86 
   0  12 -12    1.18    0.90 
  -1 -12 -12    3.42    1.09 
   1 -12  12    3.10    1.18 
  -1  12 -12    3.29    1.13 
  -1  12 -12    4.02    1.20 
   1  12  12    3.01    1.35 
  -2 -12 -12    2.59    1.00 
   2 -12  12    2.43    0.98 
   2  12  12    2.54    1.24 
  -2  12 -12    3.93    1.05 
  -3 -12 -12    0.50    0.84 
   3  12  12    0.54    1.04 
  -3  12 -12    1.02    0.70 
  -3 -13  12    1.07    1.11 
   3 -13 -12    1.49    0.47 
  -3  13  12    1.92    1.39 
  -3  13  12    2.92    1.27 
   3  13 -12    1.37    1.34 
  -2 -13  12    3.81    1.57 
   2 -13 -12    2.18    0.80 
   2  13 -12    3.43    1.44 
  -2  13  12    1.98    1.21 
  -2  13  12    0.80    1.05 
  -1 -13  12    0.49    0.73 
   1 -13 -12    0.50    0.69 
  -1 -13  12    1.29    1.20 
   1  13 -12    0.55    0.98 
  -1  13  12    2.54    1.30 
  -1  13  12    1.61    1.15 
   0 -13  12    9.36    1.53 
   0 -13 -12    9.21    1.40 
   0  13  12    6.64    1.43 
   0  13 -12    9.26    1.64 
   1 -13  12   -0.03    0.79 
  -1 -13 -12    1.28    0.86 
  -1  13 -12   -0.10    0.69 
   1  13  12   -0.99    0.85 
   2 -13  12   -0.22    0.61 
  -2 -13 -12   -1.17    0.61 
   2  13  12    0.78    1.02 
  -2  13 -12   -0.62    0.58 
  -3 -13 -12    8.62    1.56 
   3  13  12    8.08    1.82 
  -3  13 -12   11.56    1.52 
  -3 -14  12    2.57    1.59 
   3 -14 -12    1.63    0.51 
   3  14 -12    1.26    1.43 
  -3  14  12    2.10    1.33 
   2 -14 -12    0.09    0.62 
  -2 -14  12    0.73    0.99 
  -2  14  12   -0.19    0.90 
   2  14 -12   -1.25    0.84 
  -2  14  12   -0.24    1.04 
  -1 -14  12    2.01    1.31 
   1 -14 -12    2.69    0.94 
  -1 -14  12    3.90    1.02 
   1  14 -12    2.80    1.33 
  -1  14  12    5.07    1.57 
   0 -14  12   10.07    1.77 
   0 -14 -12   11.39    1.61 
   0  14  12    9.71    1.92 
   0  14 -12   10.26    1.77 
  -1 -14 -12    2.32    1.05 
   1 -14  12    3.94    1.29 
  -1  14 -12    3.81    1.30 
   1  14  12    4.64    1.56 
  -2 -14 -12    1.61    0.99 
   2  14  12    1.73    1.29 
  -2  14 -12    0.96    0.89 
   3  14  12    6.49    1.70 
  -2 -15  12    8.61    2.12 
   2 -15 -12   14.78    1.58 
   2  15 -12    6.73    1.99 
  -2  15  12   15.34    2.32 
  -1 -15  12    1.14    0.94 
   1 -15 -12   -0.06    0.75 
  -1 -15  12    1.84    0.86 
  -1  15  12    2.76    1.47 
   1  15 -12    1.75    0.98 
   0 -15  12    3.78    1.44 
   0 -15 -12    2.43    1.04 
   0  15 -12    0.63    1.08 
   0  15  12    2.17    1.42 
   1 -15  12    0.73    0.93 
  -1 -15 -12    1.13    0.89 
   1  15  12    0.91    1.18 
  -1  15 -12    0.36    0.92 
  -2 -15 -12    1.63    1.12 
   2  15  12   -0.33    0.83 
  -2  15 -12   -1.14    0.86 
  -1 -16  12    9.08    1.48 
  -1 -16  12    8.51    2.01 
   1 -16 -12   10.46    1.64 
   1  16 -12    7.40    1.99 
  -1  16  12   13.09    2.30 
   0 -16  12    4.88    1.60 
   0 -16 -12    3.93    1.29 
   0  16 -12    2.48    1.12 
   0  16  12    2.38    1.40 
  -1 -16 -12   -0.70    0.88 
   1 -16  12    1.50    1.12 
  -1  16 -12    0.25    0.93 
   1  16  12    4.72    1.69 
   5   0 -13   -1.12    0.70 
  -5   0  13   -0.25    0.32 
   4   0 -13   -0.43    0.62 
  -4   0  13    0.03    0.34 
   3   0 -13   -0.04    0.41 
  -3   0  13   -0.08    0.35 
   2   0 -13   -0.71    0.25 
   2   0 -13    0.39    0.37 
   2   0 -13   -0.27    0.27 
  -2   0  13   -0.50    0.26 
   1   0 -13    0.05    0.29 
  -1   0  13    0.10    0.34 
   1   0 -13    0.18    0.29 
   1   0 -13    0.23    0.31 
   0   0 -13    1.65    0.50 
   0   0  13    1.29    0.47 
   0   0 -13    1.29    0.41 
   0   0 -13    2.95    0.63 
  -1   0 -13   -0.24    0.31 
  -1   0 -13   -0.12    0.32 
   1   0  13   -0.15    0.27 
   1   0  13   -0.14    0.23 
  -2   0 -13    0.23    0.32 
   2   0  13    0.36    0.50 
  -2   0 -13    0.27    0.51 
  -3   0 -13   -0.50    0.32 
   3   0  13   -0.07    0.60 
  -3   0 -13   -0.05    0.61 
  -4   0 -13   -0.43    0.67 
   4   0  13   -0.31    0.72 
  -5   0 -13    0.04    0.57 
  -5  -1  13    0.55    0.97 
  -5  -1  13    1.02    0.49 
   5  -1 -13    1.60    1.00 
  -5   1  13    1.11    0.46 
   5   1 -13    0.83    0.96 
  -4  -1  13    0.24    0.38 
   4  -1 -13   -0.04    0.66 
   4   1 -13    0.80    0.74 
  -4   1  13   -0.23    0.31 
   3  -1 -13    1.98    0.78 
  -3  -1  13    1.37    0.50 
   3   1 -13    1.05    0.77 
  -3   1  13    2.38    0.58 
   2  -1 -13    6.30    0.96 
   2  -1 -13    7.21    0.77 
   2  -1 -13    6.70    0.78 
  -2  -1  13    8.27    0.87 
  -2   1  13    6.15    0.81 
   2   1 -13    7.95    0.80 
   2   1 -13    8.37    0.80 
   2   1 -13    8.10    1.04 
   1  -1 -13    0.18    0.38 
  -1  -1  13    0.43    0.36 
   1  -1 -13    0.19    0.32 
  -1  -1  13   -0.06    0.38 
   1   1 -13   -0.07    0.39 
   1   1 -13    0.39    0.34 
   1   1 -13    0.09    0.28 
   1   1 -13    0.33    0.33 
  -1   1  13    0.15    0.28 
   0  -1  13    9.79    0.97 
   0  -1 -13    8.17    0.92 
   0  -1 -13    7.87    0.88 
   0  -1  13    9.81    0.97 
   0  -1 -13    9.04    0.88 
   0  -1 -13    9.07    1.01 
   0   1  13    9.54    1.01 
   0   1 -13    9.02    0.93 
   0   1 -13    8.38    1.02 
   0   1 -13    9.72    0.96 
   1  -1  13    0.31    0.41 
  -1  -1 -13    0.03    0.33 
  -1  -1 -13    0.85    0.37 
   1  -1  13    1.08    0.44 
  -1   1 -13    0.92    0.37 
   1   1  13    1.06    0.38 
  -1   1 -13    0.62    0.42 
  -1   1 -13    0.39    0.32 
   1   1  13    0.41    0.45 
   2  -1  13   -0.52    0.21 
  -2  -1 -13    0.71    0.44 
  -2  -1 -13    0.18    0.41 
  -2   1 -13    0.35    0.45 
  -2   1 -13    0.38    0.40 
   2   1  13   -0.77    0.38 
  -3  -1 -13   -0.39    0.31 
  -3  -1 -13   -0.45    0.35 
  -3   1 -13   -0.47    0.60 
   3   1  13   -0.58    0.52 
  -3   1 -13   -0.09    0.35 
   3   1  13   -0.71    0.41 
  -4  -1 -13    8.73    1.40 
   4  -1  13    8.07    1.36 
   4   1  13    8.11    1.50 
  -4   1 -13    6.28    1.33 
  -5  -1 -13    0.26    0.89 
  -5   1 -13    0.43    0.63 
  -5  -2  13    0.12    0.42 
   5  -2 -13    0.92    0.96 
  -5  -2  13    1.71    1.08 
  -5   2  13    0.31    0.40 
   5   2 -13    0.01    0.98 
  -4  -2  13    1.52    0.54 
   4  -2 -13    0.57    0.71 
  -4  -2  13    2.48    0.97 
   4   2 -13    2.76    1.10 
  -4   2  13    1.74    0.55 
  -3  -2  13    5.23    0.75 
   3  -2 -13    4.20    1.01 
   3   2 -13    5.27    1.20 
  -3   2  13    5.20    0.79 
   2  -2 -13    0.72    0.36 
  -2  -2  13    1.66    0.52 
   2  -2 -13    2.04    0.62 
   2  -2 -13    1.01    0.43 
   2   2 -13    1.75    0.44 
   2   2 -13    1.72    0.48 
   2   2 -13    1.46    0.63 
  -2   2  13    1.03    0.48 
  -1  -2  13    5.23    0.81 
  -1  -2  13    5.80    0.76 
   1  -2 -13    4.50    0.74 
   1  -2 -13    4.83    0.68 
   1   2 -13    6.33    0.85 
   1   2 -13    5.16    0.73 
  -1   2  13    4.88    0.77 
   1   2 -13    6.11    0.73 
   1   2 -13    6.02    0.72 
   0  -2  13    3.03    0.63 
   0  -2 -13    3.13    0.58 
   0  -2 -13    3.69    0.64 
   0  -2  13    3.64    0.56 
   0   2 -13    3.03    0.64 
   0   2 -13    2.50    0.55 
   0   2 -13    2.71    0.74 
   0   2  13    3.00    0.59 
   1  -2  13    0.72    0.42 
  -1  -2 -13    1.18    0.49 
  -1  -2 -13    0.53    0.38 
  -1   2 -13    0.47    0.31 
  -1   2 -13    0.81    0.43 
   1   2  13    0.95    0.33 
   1   2  13    0.24    0.34 
  -1   2 -13    0.10    0.48 
  -2  -2 -13    0.11    0.38 
   2  -2  13   -0.01    0.42 
  -2  -2 -13    0.15    0.39 
  -2   2 -13    0.00    0.27 
   2   2  13    0.27    0.44 
  -2   2 -13   -0.04    0.40 
   2   2  13    0.47    0.53 
  -3  -2 -13    3.41    0.77 
  -3  -2 -13    3.50    0.86 
   3  -2  13    3.65    0.49 
  -3   2 -13    3.50    0.87 
   3   2  13    3.80    0.94 
   3   2  13    3.73    1.12 
  -3   2 -13    3.99    0.77 
   4  -2  13    2.91    0.99 
  -4  -2 -13    2.87    1.00 
   4   2  13    2.92    1.01 
  -4   2 -13    2.29    0.90 
  -5   2 -13    0.62    0.90 
   5   2  13    1.26    1.10 
  -5  -3  13    0.10    0.40 
  -5  -3  13   -0.57    0.54 
   5   3 -13   -0.78    0.86 
  -5   3  13   -0.56    0.38 
   4  -3 -13   -0.28    0.57 
  -4  -3  13   -0.20    0.34 
  -4  -3  13    0.29    0.93 
   4   3 -13   -0.44    0.45 
  -4   3  13   -0.29    0.41 
   3  -3 -13    3.34    0.87 
  -3  -3  13    2.56    0.90 
  -3  -3  13    3.17    0.65 
   3   3 -13    3.38    1.15 
  -3   3  13    2.56    0.65 
  -2  -3  13    5.02    0.75 
  -2  -3  13    4.27    0.77 
   2  -3 -13    6.83    0.66 
   2  -3 -13    5.91    0.83 
   2  -3 -13    5.03    0.70 
   2   3 -13    4.45    0.63 
   2   3 -13    5.10    0.72 
   2   3 -13    4.73    0.62 
  -2   3  13    4.20    0.77 
   2   3 -13    3.31    0.94 
  -1  -3  13    7.16    0.93 
   1  -3 -13    8.51    0.93 
   1  -3 -13    8.73    0.91 
  -1  -3  13    8.19    0.87 
   1   3 -13    9.25    0.95 
  -1   3  13    7.52    0.98 
   1   3 -13    8.67    1.11 
   1   3 -13    9.03    0.94 
   0  -3 -13    7.46    0.89 
   0  -3  13    8.36    0.89 
   0  -3  13    6.86    0.91 
   0   3 -13    7.10    0.90 
   0   3 -13    7.01    0.86 
   0   3  13    7.78    0.98 
   0   3 -13    6.07    0.80 
   0   3 -13    6.57    0.91 
  -1  -3 -13    0.66    0.44 
   1  -3  13    0.71    0.35 
  -1  -3 -13    0.44    0.39 
  -1   3 -13    0.38    0.40 
  -1   3 -13    0.82    0.36 
  -1   3 -13    0.39    0.33 
   1   3  13    0.81    0.30 
   1   3  13    0.69    0.52 
  -2  -3 -13   46.37    2.95 
  -2  -3 -13   44.53    2.87 
   2  -3  13   45.16    2.74 
   2  -3  13   45.54    2.87 
  -2   3 -13   47.09    2.88 
   2   3  13   44.88    3.10 
  -2   3 -13   47.71    3.22 
  -2   3 -13   39.12    2.83 
   2   3  13   45.51    3.28 
  -3  -3 -13    3.75    0.84 
   3   3  13    2.41    0.93 
   3   3  13    1.96    0.78 
  -3   3 -13    2.17    0.86 
  -3   3 -13    4.03    0.89 
  -3   3 -13    1.98    0.51 
   4  -3  13    4.86    1.07 
   4   3  13    4.83    1.40 
  -4   3 -13    3.78    0.97 
  -5   3 -13    1.35    0.82 
   5   3  13    5.41    1.89 
  -5  -4  13    1.02    0.53 
  -5  -4  13    1.32    1.17 
  -5   4  13    0.96    0.58 
   5   4 -13    1.65    1.37 
   4  -4 -13   -0.37    0.59 
  -4  -4  13    0.20    0.43 
  -4  -4  13    0.96    0.97 
  -4   4  13    0.26    0.47 
   4   4 -13   -0.09    0.76 
  -3  -4  13    0.07    0.55 
  -3  -4  13    0.08    0.42 
   3  -4 -13   -0.46    0.42 
  -3   4  13   -0.03    0.43 
   3   4 -13   -0.30    0.45 
   2  -4 -13   13.88    1.23 
   2  -4 -13   14.65    1.30 
  -2  -4  13   12.63    1.53 
  -2  -4  13   13.33    1.25 
  -2  -4  13   14.45    1.43 
   2   4 -13   15.64    1.27 
  -2   4  13   14.69    1.39 
   2   4 -13   12.69    1.61 
   2   4 -13   15.55    1.17 
   2   4 -13   15.90    1.19 
  -1  -4  13    0.21    0.41 
  -1  -4  13    0.33    0.47 
  -1  -4  13    0.26    0.31 
   1  -4 -13    0.41    0.35 
   1  -4 -13   -0.19    0.32 
   1   4 -13    0.09    0.37 
   1   4 -13   -0.47    0.26 
  -1   4  13   -0.22    0.39 
   1   4 -13   -0.21    0.37 
   0  -4 -13    3.11    0.72 
   0  -4  13    3.49    0.70 
   0  -4  13    1.30    0.62 
   0  -4  13    1.81    0.53 
   0   4  13    1.38    0.62 
   0   4 -13    1.93    0.63 
   0   4 -13    1.72    0.49 
   0   4 -13    2.33    0.72 
  -1  -4 -13    2.07    0.58 
   1  -4  13    3.42    0.68 
  -1  -4 -13    1.95    0.63 
   1  -4  13    2.52    0.51 
   1   4  13    0.51    0.53 
   1   4  13    1.77    0.65 
  -1   4 -13    3.29    0.72 
  -1   4 -13    2.18    0.66 
  -1   4 -13    3.29    0.71 
  -1   4 -13    1.67    0.56 
  -2  -4 -13   -0.02    0.39 
  -2  -4 -13    0.03    0.38 
   2  -4  13    0.26    0.37 
   2  -4  13   -0.03    0.47 
  -2   4 -13    0.72    0.43 
  -2   4 -13    0.16    0.45 
  -2   4 -13    0.38    0.40 
   2   4  13    0.49    0.50 
  -2   4 -13    0.06    0.28 
   2   4  13    0.13    0.50 
   2   4  13   -0.27    0.66 
  -3  -4 -13    0.58    0.55 
  -3   4 -13    1.35    0.49 
   3   4  13    0.69    0.65 
   3   4  13    1.77    0.86 
  -3   4 -13    2.40    0.78 
  -4   4 -13   -0.82    0.61 
   4   4  13    0.01    0.74 
  -5   4 -13    0.94    0.88 
  -5  -5  13    1.89    1.09 
  -5  -5  13    1.87    0.61 
   5   5 -13    1.22    1.22 
  -5   5  13    0.81    0.61 
  -4  -5  13    1.50    1.15 
  -4  -5  13    3.00    0.69 
   4  -5 -13    4.79    1.03 
  -4   5  13    2.23    0.71 
   4   5 -13    2.67    1.08 
   3  -5 -13    2.80    0.72 
  -3  -5  13    2.50    0.65 
  -3  -5  13    3.22    1.06 
  -3   5  13    3.54    0.79 
   3   5 -13    1.03    0.75 
   2  -5 -13   10.21    1.05 
  -2  -5  13   11.01    1.44 
   2  -5 -13   11.11    1.06 
  -2  -5  13   10.98    1.12 
  -2  -5  13   11.07    1.27 
   2   5 -13    9.59    1.47 
  -2   5  13   10.59    1.21 
   2   5 -13   10.31    0.97 
   2   5 -13   11.65    1.12 
   1  -5 -13    0.21    0.24 
  -1  -5  13   -0.37    0.39 
   1  -5 -13    0.26    0.45 
  -1  -5  13    0.64    0.56 
  -1  -5  13    0.16    0.41 
   1   5 -13    0.04    0.37 
   1   5 -13    0.10    0.33 
  -1   5  13   -0.41    0.31 
   1   5 -13    0.50    0.58 
   0  -5  13    7.35    0.95 
   0  -5  13    7.03    1.06 
   0  -5 -13    7.12    0.88 
   0  -5  13    8.38    0.92 
   0   5  13    7.06    1.05 
   0   5 -13    7.04    0.94 
   0   5 -13    6.21    0.88 
   0   5 -13    7.21    0.95 
   0   5  13    6.06    1.16 
   1  -5  13   -0.02    0.33 
  -1  -5 -13    0.05    0.38 
   1  -5  13   -0.39    0.51 
  -1  -5 -13   -0.20    0.28 
   1   5  13    0.43    0.48 
   1   5  13    0.19    0.49 
  -1   5 -13    0.46    0.45 
  -1   5 -13   -0.25    0.25 
  -1   5 -13    0.11    0.37 
   1   5  13    0.27    0.61 
  -1   5 -13   -0.13    0.35 
  -2  -5 -13    0.65    0.52 
   2  -5  13    0.07    0.50 
   2   5  13    0.40    0.60 
  -2   5 -13    0.39    0.44 
  -2   5 -13    0.39    0.63 
   2   5  13    0.01    0.65 
  -2   5 -13    1.21    0.49 
  -3  -5 -13    5.52    0.94 
   3   5  13    4.16    1.34 
  -3   5 -13    6.48    1.25 
  -3   5 -13    6.50    0.83 
  -3   5 -13    5.61    0.87 
   3   5  13    5.49    1.11 
   4   5  13   -0.75    1.05 
  -4   5 -13    0.24    0.48 
  -5   5 -13    0.09    0.62 
  -5  -6  13    0.85    0.58 
  -5  -6  13    0.05    1.08 
   5   6 -13   -0.24    0.70 
  -5   6  13    0.14    0.63 
  -4  -6  13    1.11    0.92 
  -4  -6  13    1.63    0.63 
   4   6 -13    0.85    1.06 
  -4   6  13    0.35    0.57 
  -3  -6  13    1.74    0.87 
   3  -6 -13    1.22    0.62 
  -3  -6  13    1.05    0.55 
   3   6 -13    1.49    0.31 
   3   6 -13    1.22    1.04 
   3   6 -13    1.37    0.30 
  -3   6  13    1.68    0.72 
   2  -6 -13    0.47    0.45 
  -2  -6  13    0.49    0.40 
  -2  -6  13    0.32    0.77 
   2  -6 -13    0.38    0.41 
  -2   6  13   -0.16    0.49 
   2   6 -13    0.21    0.37 
  -2   6  13    0.30    0.59 
   2   6 -13    0.74    0.49 
   2   6 -13    0.53    0.59 
   1  -6 -13    3.37    0.57 
  -1  -6  13    3.69    0.88 
  -1  -6  13    2.98    1.03 
  -1  -6  13    3.90    0.72 
   1  -6 -13    2.87    0.76 
   1   6 -13    2.38    0.77 
  -1   6  13    3.29    0.88 
  -1   6  13    4.16    0.89 
   1   6 -13    3.15    0.76 
   1   6 -13    2.71    0.64 
   0  -6  13    2.84    0.57 
   0  -6 -13    3.24    0.73 
   0  -6  13    1.63    0.78 
   0   6  13    2.54    0.82 
   0   6 -13    3.70    0.73 
   0   6  13    2.35    0.83 
   0   6 -13    1.58    0.59 
   0   6 -13    2.13    0.71 
   1  -6  13   19.27    1.67 
   1  -6  13   17.93    1.48 
  -1  -6 -13   16.49    1.58 
   1   6  13   19.70    1.77 
   1   6  13   18.55    1.84 
  -1   6 -13   17.58    2.02 
  -1   6 -13   17.56    1.69 
  -1   6 -13   19.32    1.64 
   1   6  13   19.07    1.95 
  -1   6 -13   16.86    1.49 
  -2  -6 -13    0.00    0.46 
   2  -6  13    0.22    0.45 
   2   6  13   -0.27    0.58 
  -2   6 -13    0.09    0.46 
   2   6  13    0.16    0.67 
  -2   6 -13    0.25    0.43 
  -2   6 -13   -0.13    0.43 
  -3  -6 -13    0.81    0.58 
   3   6  13    2.30    1.06 
  -3   6 -13    1.22    0.57 
   3   6  13    1.14    0.83 
  -3   6 -13    1.17    0.69 
  -3   6 -13    1.72    0.62 
  -4   6 -13    1.49    0.75 
  -4   6 -13    0.03    0.46 
  -5   6 -13    1.99    0.87 
  -5  -7  13    1.22    0.68 
  -5  -7  13   -0.06    1.14 
  -5   7  13   -0.40    0.66 
   5   7 -13   -0.03    1.29 
  -4  -7  13    0.52    0.58 
  -4  -7  13    0.86    0.86 
  -4   7  13    0.33    0.60 
   4   7 -13   -0.71    0.62 
  -3  -7  13    0.16    0.66 
  -3  -7  13    0.02    0.44 
   3  -7 -13   -0.52    0.39 
   3   7 -13   -0.04    0.29 
  -3   7  13   -0.92    0.54 
   3   7 -13   -0.17    0.87 
  -3   7  13   -0.63    0.46 
   3   7 -13    0.19    0.27 
  -2  -7  13    1.26    0.58 
  -2  -7  13   -0.68    0.70 
   2  -7 -13    1.06    0.55 
   2  -7 -13    0.60    0.41 
  -2   7  13    1.06    0.67 
  -2   7  13    1.99    0.78 
   2   7 -13    1.22    0.43 
   2   7 -13   -0.24    0.49 
   2   7 -13    1.29    0.54 
  -1  -7  13    2.80    0.91 
  -1  -7  13    3.28    1.08 
   1  -7 -13    2.04    0.52 
  -1  -7  13    2.10    0.67 
   1  -7 -13    1.87    0.69 
   1   7 -13    1.94    0.78 
   1   7 -13    2.79    0.69 
  -1   7  13    1.57    0.77 
   1   7 -13    3.30    0.75 
  -1   7  13    1.14    0.79 
   0  -7  13   16.72    1.75 
   0  -7 -13   16.83    1.56 
   0  -7  13   14.63    1.41 
   0   7 -13   16.90    1.57 
   0   7 -13   14.63    1.49 
   0   7  13   17.51    1.82 
   0   7  13   17.26    1.83 
   0   7  13   20.12    1.83 
   0   7 -13   16.00    1.65 
  -1  -7 -13    3.11    0.81 
   1  -7  13    3.92    0.88 
  -1   7 -13    2.00    0.89 
   1   7  13    4.55    1.19 
  -1   7 -13    2.66    0.73 
   1   7  13    2.01    0.89 
  -1   7 -13    2.28    0.71 
   2  -7  13   21.99    1.80 
  -2  -7 -13   23.33    1.93 
  -2   7 -13   21.62    1.78 
  -2   7 -13   21.02    2.04 
   2   7  13   21.55    2.11 
   2   7  13   20.16    2.40 
  -2   7 -13   23.80    1.86 
   3   7  13    0.23    1.19 
   3   7  13   -0.02    0.71 
  -3   7 -13   -0.12    0.67 
  -3   7 -13    0.49    0.51 
  -3   7 -13    0.31    0.44 
  -4   7 -13    1.40    0.62 
  -4   7 -13    1.43    0.95 
  -5   7 -13    1.65    1.06 
  -5   7 -13   -0.59    0.44 
  -4  -8  13    0.80    0.68 
  -4  -8  13    2.58    1.40 
   4   8 -13    1.80    1.31 
  -4   8  13    1.46    0.82 
  -3  -8  13    0.60    0.75 
  -3  -8  13    0.55    0.52 
  -3   8  13    0.20    0.69 
   3   8 -13   -0.67    0.74 
  -3   8  13   -0.31    0.62 
   3   8 -13   -0.09    0.28 
   3   8 -13    0.40    0.37 
   2  -8 -13    0.31    0.39 
  -2  -8  13    0.13    0.50 
  -2  -8  13   -0.10    0.84 
  -2  -8  13    0.05    0.47 
   2  -8 -13    0.26    0.49 
  -2   8  13   -0.50    0.60 
  -2   8  13    0.93    0.63 
   2   8 -13    0.33    0.62 
   2   8 -13    0.00    0.41 
  -2   8  13    0.24    0.71 
  -1  -8  13   10.49    1.17 
   1  -8 -13   13.55    1.39 
  -1  -8  13   11.81    1.55 
  -1   8  13   12.78    1.57 
  -1   8  13   13.80    1.62 
  -1   8  13   11.87    1.51 
   1   8 -13   10.94    1.59 
   0  -8  13    2.18    0.94 
   0  -8 -13    1.65    0.67 
   0  -8  13    1.58    0.60 
   0   8  13    1.78    0.82 
   0   8  13    1.91    0.94 
   0   8 -13    2.45    0.75 
   0   8  13    0.81    0.72 
   0   8 -13    1.17    0.73 
   0   8 -13    1.78    0.68 
   1  -8  13   11.87    1.42 
  -1  -8 -13   13.84    1.43 
  -1   8 -13   12.11    1.33 
  -1   8 -13   14.36    1.53 
  -1   8 -13   12.45    1.41 
   1   8  13   11.16    1.66 
   1   8  13   10.30    1.54 
   2  -8  13   -0.69    0.50 
  -2  -8 -13    0.77    0.66 
  -2   8 -13    0.76    0.54 
  -2   8 -13    0.49    0.55 
   2   8  13    0.95    0.84 
  -2   8 -13    0.37    0.48 
   2   8  13    1.60    1.10 
  -3   8 -13    0.69    0.61 
   3   8  13    0.02    0.72 
  -3   8 -13    0.17    0.36 
  -3   8 -13   -0.31    0.62 
  -4   8 -13    0.67    0.53 
  -4   8 -13    0.21    0.80 
  -4  -9  13    2.49    0.86 
  -4  -9  13    1.81    1.14 
   4   9 -13    1.06    1.28 
  -4   9  13    1.07    0.86 
  -4   9  13    1.99    0.96 
  -3  -9  13    3.11    1.40 
  -3  -9  13    2.52    0.77 
  -3   9  13    2.49    0.99 
  -3   9  13    1.59    0.93 
   3   9 -13    1.76    1.18 
  -3   9  13    5.85    1.20 
  -2  -9  13    3.42    1.35 
   2  -9 -13    2.64    0.56 
   2  -9 -13    1.48    0.63 
  -2  -9  13    1.78    0.75 
  -2  -9  13    1.39    0.64 
   2   9 -13    2.31    0.97 
  -2   9  13    1.94    0.95 
  -2   9  13    4.01    1.18 
  -2   9  13    1.76    0.91 
  -1  -9  13    0.35    0.46 
  -1  -9  13    0.99    0.94 
   1  -9 -13    0.32    0.57 
  -1   9  13    1.29    0.90 
  -1   9  13    0.85    0.68 
  -1   9  13    0.51    0.84 
   1   9 -13    0.55    0.62 
   0  -9  13    9.14    1.43 
   0  -9 -13    7.18    1.12 
   0   9  13   10.12    1.69 
   0   9  13   10.16    1.49 
   0   9  13    5.45    1.76 
   0   9 -13    9.29    1.22 
   0   9 -13    6.39    1.11 
   1  -9  13   11.69    1.46 
  -1  -9 -13   10.62    1.38 
   1   9  13   11.41    1.71 
   1   9  13    7.07    1.45 
  -1   9 -13   10.64    1.32 
  -1   9 -13   12.82    1.44 
  -2  -9 -13    4.46    1.01 
   2  -9  13    6.01    1.01 
  -2   9 -13    3.20    0.73 
   2   9  13    2.36    1.04 
  -2   9 -13    4.16    1.00 
  -2   9 -13    1.53    0.73 
   3   9  13    2.40    1.13 
  -3   9 -13    3.66    0.91 
  -3   9 -13    1.88    0.72 
  -3   9 -13    3.20    1.21 
  -4   9 -13    0.81    0.60 
  -4   9 -13   -0.34    0.72 
  -4 -10  13    0.06    0.89 
  -4 -10  13    2.70    0.93 
  -4  10  13    2.24    1.03 
   4  10 -13    2.81    1.35 
  -4  10  13    1.55    1.11 
   3 -10 -13    0.19    0.23 
  -3 -10  13    1.08    0.76 
  -3 -10  13   -0.30    1.11 
   3 -10 -13    0.40    0.14 
   3  10 -13   -0.04    0.73 
  -3  10  13    0.92    0.90 
  -3  10  13   -1.23    0.68 
  -3  10  13    0.99    0.85 
  -2 -10  13    1.24    1.13 
   2 -10 -13    1.14    0.44 
  -2 -10  13    1.31    0.61 
   2 -10 -13    1.56    0.68 
   2  10 -13    1.32    1.06 
  -2  10  13    1.44    1.00 
  -2  10  13    1.07    0.69 
  -2  10  13    2.35    1.04 
  -1 -10  13    1.66    1.09 
   1 -10 -13    0.91    0.65 
  -1  10  13    2.48    1.02 
  -1  10  13   -0.11    0.56 
   1  10 -13   -0.36    0.70 
  -1  10  13    1.09    1.02 
   0 -10 -13    1.34    0.70 
   0 -10  13    1.07    0.88 
   0  10 -13    0.90    0.74 
   0  10  13    0.86    1.03 
   0  10 -13    0.20    0.67 
   0  10  13    1.19    0.95 
   1 -10  13    3.91    1.16 
  -1 -10 -13    5.02    1.08 
   1  10  13    4.75    1.37 
  -1  10 -13    7.33    1.09 
   1  10  13    5.49    1.71 
  -1  10 -13    6.03    1.01 
   2 -10  13    0.24    0.68 
  -2 -10 -13    0.74    0.66 
  -2  10 -13    1.39    0.58 
  -2  10 -13    2.25    0.84 
   2  10  13    1.38    1.00 
  -3  10 -13    4.21    0.99 
   3  10  13    7.65    1.55 
  -3  10 -13    5.61    1.38 
  -3  10 -13    4.30    1.08 
  -4  10 -13   -0.22    0.54 
  -4  10 -13   -0.60    0.72 
  -4 -11  13    0.42    0.74 
  -4 -11  13   -0.83    1.14 
   4  11 -13    0.40    1.34 
  -4  11  13   -0.22    0.88 
  -4  11  13    0.32    0.96 
  -3 -11  13    1.39    1.04 
  -3 -11  13    1.15    0.73 
   3 -11 -13    1.19    0.34 
   3  11 -13    0.06    0.80 
  -3  11  13    1.17    0.96 
  -3  11  13    1.63    1.01 
   2 -11 -13   13.36    1.41 
  -2 -11  13    8.90    1.90 
   2  11 -13   11.68    1.98 
  -2  11  13   13.99    1.85 
  -2  11  13   12.96    1.74 
  -2  11  13   14.74    2.00 
   1 -11 -13    3.26    0.99 
  -1 -11  13    3.94    1.39 
  -1  11  13    3.25    1.12 
  -1  11  13    3.48    1.38 
   1  11 -13    4.28    1.22 
   0 -11  13    0.05    0.84 
   0 -11 -13    0.51    0.67 
   0  11 -13    0.85    0.63 
   0  11  13    0.86    0.98 
   0  11  13    0.60    0.80 
   0  11 -13    1.92    1.02 
   1 -11  13    4.21    1.19 
  -1 -11 -13    2.23    0.88 
  -1  11 -13    2.72    0.92 
  -1  11 -13    2.70    0.87 
   1  11  13    2.93    1.07 
   2 -11  13    0.62    0.73 
  -2 -11 -13    1.66    0.83 
   2  11  13    1.10    1.02 
  -2  11 -13   -0.09    0.43 
  -2  11 -13    1.29    0.75 
   3  11  13    6.86    1.47 
  -3  11 -13    5.70    1.13 
  -4  11 -13    5.10    1.55 
  -3 -12  13    3.95    1.68 
   3 -12 -13    3.10    0.54 
  -3  12  13    2.43    1.20 
   3  12 -13    3.49    1.43 
  -3  12  13    5.27    1.51 
  -2 -12  13    6.92    1.55 
   2 -12 -13    8.46    1.18 
  -2  12  13    6.81    1.34 
  -2  12  13    5.73    1.52 
   2  12 -13    6.82    1.77 
  -1 -12  13   18.18    2.30 
   1 -12 -13   18.50    1.82 
  -1  12  13   12.62    1.96 
  -1  12  13   18.37    2.40 
   1  12 -13   17.60    2.25 
   0 -12 -13    8.19    1.38 
   0 -12  13    7.85    1.60 
   0  12 -13   11.28    1.57 
   0  12  13   11.30    1.82 
   1 -12  13    6.65    1.31 
  -1 -12 -13    4.55    1.23 
   1  12  13    4.41    1.41 
  -1  12 -13    4.72    1.06 
  -2 -12 -13    0.84    0.79 
  -2  12 -13    0.20    0.67 
   2  12  13   -0.56    0.91 
   3  12  13    1.46    1.19 
  -3  12 -13    0.83    0.72 
  -3 -13  13   -0.67    1.12 
   3 -13 -13   -0.58    0.39 
   3  13 -13    0.61    1.04 
  -3  13  13    0.28    1.11 
   2 -13 -13   -0.30    0.57 
  -2 -13  13    0.45    1.14 
   2  13 -13   -0.08    0.92 
  -2  13  13   -0.52    0.89 
  -2  13  13    0.75    1.07 
  -1 -13  13   -0.61    0.69 
  -1 -13  13    0.32    0.64 
   1 -13 -13    0.59    0.81 
  -1  13  13    1.77    1.13 
   1  13 -13    1.90    1.23 
   0 -13 -13   12.32    1.63 
   0 -13  13    9.66    1.77 
   0  13 -13   11.71    1.87 
   0  13  13   11.41    1.93 
  -1 -13 -13    2.01    0.92 
   1 -13  13    3.13    1.25 
   1  13  13    2.11    1.31 
  -1  13 -13    2.31    1.07 
  -2 -13 -13    2.43    1.10 
  -2  13 -13    2.00    1.04 
   2  13  13    3.24    1.39 
   3  13  13   -0.30    0.95 
  -3  13 -13    0.23    0.75 
  -2 -14  13    0.16    1.32 
   2 -14 -13    1.15    0.79 
  -2  14  13    4.03    1.53 
   2  14 -13    0.27    0.86 
   1 -14 -13    6.03    1.26 
  -1 -14  13    7.85    1.33 
  -1 -14  13    5.28    1.70 
  -1  14  13   12.99    2.07 
   1  14 -13    8.42    1.62 
   0 -14  13    0.43    0.73 
   0 -14 -13    0.36    0.77 
   0  14 -13    0.76    1.00 
   0  14  13   -0.64    0.95 
  -1 -14 -13    2.55    1.06 
   1 -14  13    1.53    1.01 
   1  14  13    1.75    1.11 
  -1  14 -13    2.19    1.14 
  -2 -14 -13   -0.85    0.76 
   2  14  13    0.80    1.16 
  -2  14 -13    0.76    0.96 
  -1 -15  13    0.41    1.23 
  -1 -15  13    0.29    0.82 
   1 -15 -13    0.03    0.79 
  -1  15  13    0.63    1.05 
   1  15 -13    0.60    1.16 
   0 -15 -13    0.50    0.91 
   0 -15  13    0.99    1.15 
   0  15  13    0.34    1.15 
   0  15 -13    0.09    0.96 
  -1 -15 -13    2.03    1.12 
   1 -15  13    3.18    1.33 
   1  15  13    3.46    1.52 
  -1  15 -13    3.60    1.38 
  -5   0  14    1.75    0.57 
   5   0 -14    0.44    0.84 
  -4   0  14    1.59    0.53 
   4   0 -14    1.68    0.80 
   3   0 -14    3.46    0.98 
  -3   0  14    1.67    0.54 
   2   0 -14    7.23    0.81 
   2   0 -14    6.78    0.80 
   2   0 -14    6.11    1.04 
  -2   0  14    9.19    0.94 
  -1   0  14    5.28    0.77 
   1   0 -14    4.91    0.71 
   1   0 -14    5.03    0.76 
   1   0 -14    5.25    0.70 
   0   0  14    1.28    0.51 
   0   0 -14    2.38    0.52 
   0   0 -14    1.95    0.57 
   0   0  14    1.76    0.54 
   0   0 -14    1.77    0.56 
  -1   0 -14    0.66    0.47 
   1   0  14    0.95    0.52 
  -1   0 -14    1.50    0.53 
   1   0  14    0.75    0.39 
  -2   0 -14   52.91    3.52 
  -2   0 -14   47.79    3.16 
   3   0  14    3.16    1.03 
  -3   0 -14    3.15    0.93 
  -4   0 -14    1.33    0.77 
   4   0  14    0.40    0.88 
  -5   0 -14    1.83    1.03 
   5  -1 -14    2.82    1.14 
  -5  -1  14    1.62    0.56 
  -5  -1  14    0.17    0.94 
  -5   1  14    0.85    0.48 
   5   1 -14    2.03    1.14 
   4  -1 -14    0.30    0.72 
  -4  -1  14   -0.19    0.34 
  -4   1  14    0.30    0.38 
   4   1 -14    0.49    0.81 
  -3  -1  14   -0.05    0.35 
   3  -1 -14   -0.31    0.55 
   3   1 -14    0.16    0.51 
  -3   1  14    0.24    0.37 
  -2  -1  14    0.53    0.43 
   2  -1 -14    0.50    0.37 
   2  -1 -14    0.32    0.51 
   2  -1 -14   -0.11    0.34 
   2   1 -14    0.42    0.59 
   2   1 -14   -0.08    0.34 
  -2   1  14    0.55    0.42 
   2   1 -14    0.01    0.34 
   1  -1 -14    5.08    0.71 
  -1  -1  14    3.97    0.68 
  -1  -1  14    3.76    0.67 
   1  -1 -14    3.22    0.71 
   1   1 -14    4.05    0.70 
  -1   1  14    3.37    0.69 
   1   1 -14    3.67    0.81 
   1   1 -14    3.87    0.68 
   1   1 -14    2.85    0.64 
   0  -1 -14   46.09    3.09 
   0  -1  14   52.05    3.15 
   0  -1  14   52.89    3.16 
   0  -1 -14   48.34    3.12 
   0   1  14   51.47    3.22 
   0   1  14   50.69    3.08 
   0   1 -14   55.02    3.25 
   0   1 -14   51.48    3.31 
   1  -1  14   24.28    1.85 
  -1  -1 -14   23.88    1.82 
   1  -1  14   25.64    1.75 
  -1  -1 -14   21.79    1.99 
  -1  -1 -14   24.35    1.77 
   1   1  14   27.92    1.66 
   1   1  14   24.66    1.92 
  -1   1 -14   19.39    1.93 
  -1   1 -14   24.53    1.81 
  -1   1 -14   24.27    1.79 
  -2  -1 -14    4.44    0.99 
  -2  -1 -14    6.15    0.90 
  -2   1 -14    4.05    0.90 
  -2   1 -14    3.68    0.85 
  -3  -1 -14    0.11    0.47 
   3   1  14    0.97    0.83 
   3   1  14   -0.05    0.61 
  -3   1 -14    0.27    0.65 
   4  -1  14   -0.54    0.69 
  -4  -1 -14    0.56    0.61 
  -4   1 -14    0.67    0.87 
   4   1  14    0.84    0.77 
  -5  -1 -14    1.47    0.86 
  -5   1 -14    0.54    0.78 
  -5  -2  14   -0.16    0.63 
   5  -2 -14    1.90    1.05 
  -5  -2  14   -0.22    0.40 
  -5   2  14   -0.10    0.44 
   5   2 -14   -0.52    0.89 
   4  -2 -14    7.68    1.32 
  -4  -2  14    7.72    0.92 
  -4  -2  14    7.06    1.31 
   4   2 -14    6.73    1.61 
  -4   2  14    6.72    0.90 
  -3  -2  14    1.72    0.56 
   3  -2 -14    1.19    0.73 
  -3   2  14    1.44    0.55 
   3   2 -14    1.12    0.82 
   2  -2 -14    0.06    0.39 
   2  -2 -14    0.54    0.49 
  -2  -2  14    0.27    0.32 
   2  -2 -14    0.22    0.33 
  -2  -2  14   -0.17    0.49 
   2   2 -14    0.13    0.34 
  -2   2  14    0.20    0.39 
   2   2 -14    0.54    0.37 
   2   2 -14    0.13    0.53 
  -1  -2  14    4.13    0.74 
  -1  -2  14    3.68    0.80 
   1  -2 -14    6.08    0.83 
   1  -2 -14    4.09    0.74 
   1   2 -14    5.34    0.73 
   1   2 -14    4.59    0.70 
   1   2 -14    3.77    0.74 
   1   2 -14    5.82    0.78 
  -1   2  14    3.92    0.78 
   0  -2  14    1.21    0.45 
   0  -2 -14    2.15    0.54 
   0  -2 -14    2.36    0.64 
   0  -2  14    1.98    0.60 
   0   2  14    3.25    0.72 
   0   2 -14    1.83    0.65 
   0   2 -14    1.52    0.60 
   0   2 -14    2.67    0.63 
   1  -2  14   26.41    2.00 
  -1  -2 -14   30.61    2.13 
  -1  -2 -14   27.79    1.99 
   1   2  14   32.61    2.23 
   1   2  14   29.07    1.83 
  -1   2 -14   30.01    2.33 
  -1   2 -14   27.21    2.04 
  -1   2 -14   30.03    2.06 
  -2  -2 -14    5.06    1.05 
  -2  -2 -14    3.48    0.74 
  -2   2 -14    4.13    0.88 
   2   2  14    2.27    0.81 
  -3  -2 -14    2.71    0.90 
   3   2  14    4.46    1.06 
   3   2  14    3.77    1.07 
  -3   2 -14    5.41    1.16 
   4  -2  14    5.14    1.21 
  -4  -2 -14    2.69    1.03 
  -4   2 -14    3.04    1.04 
   4   2  14    2.94    1.23 
  -5   2 -14    2.24    0.96 
  -5  -3  14   -0.31    0.39 
  -5  -3  14    1.05    1.05 
   5   3 -14    1.32    1.07 
  -5   3  14    1.15    0.57 
   4  -3 -14    0.96    0.77 
  -4  -3  14    2.17    1.15 
  -4  -3  14    0.87    0.48 
   4   3 -14    1.96    0.94 
  -4   3  14    0.74    0.52 
   3  -3 -14    4.16    0.94 
  -3  -3  14    4.51    1.03 
  -3  -3  14    4.17    0.74 
   3   3 -14    3.63    1.20 
  -3   3  14    4.10    0.79 
  -2  -3  14    5.82    1.01 
   2   3 -14    3.15    0.88 
  -1  -3  14    1.26    0.63 
  -1  -3  14    1.39    0.54 
   1  -3 -14    0.84    0.50 
   1  -3 -14    0.75    0.37 
   1   3 -14    1.83    0.58 
   1   3 -14    0.83    0.48 
   1   3 -14    0.93    0.48 
  -1   3  14    0.48    0.42 
   0  -3  14    2.43    0.63 
   0  -3 -14    1.42    0.44 
   0  -3  14    2.51    0.69 
   0  -3 -14    3.79    0.69 
   0   3  14    2.00    0.66 
   0   3 -14    2.29    0.61 
   0   3 -14    2.38    0.69 
   0   3 -14    1.48    0.51 
  -1  -3 -14    9.68    1.08 
   1  -3  14    7.78    0.92 
  -1  -3 -14   10.77    1.02 
  -1   3 -14   10.13    1.09 
  -1   3 -14   11.47    1.14 
   1   3  14    9.17    1.20 
   1   3  14    9.76    0.83 
  -1   3 -14    6.75    1.06 
  -2  -3 -14   77.82    4.62 
   2  -3  14   78.61    4.43 
   2   3  14   79.35    5.04 
  -2   3 -14   73.01    4.53 
  -2   3 -14   78.12    4.92 
  -3  -3 -14    0.63    0.57 
   3   3  14    1.04    1.03 
   3   3  14    1.50    0.84 
  -3   3 -14    0.52    0.54 
   4  -3  14   11.05    1.67 
  -4   3 -14   14.83    1.72 
   4   3  14   13.85    2.02 
  -5   3 -14    2.09    1.06 
  -5  -4  14    0.01    1.04 
  -5  -4  14    0.40    0.51 
  -5   4  14    0.56    0.58 
   5   4 -14    0.81    1.19 
  -4  -4  14    0.70    0.99 
   4  -4 -14    0.85    0.72 
  -4  -4  14    0.07    0.43 
   4   4 -14    0.95    0.94 
  -4   4  14   -0.42    0.42 
  -3  -4  14    6.56    1.22 
   3  -4 -14    5.22    1.09 
  -3  -4  14    7.87    0.96 
  -3   4  14    7.20    1.01 
   3   4 -14    4.70    1.35 
   2  -4 -14   19.20    1.63 
   2  -4 -14   21.05    1.60 
   2  -4 -14   21.37    1.44 
  -2  -4  14   23.05    1.66 
  -2  -4  14   16.68    1.96 
  -2  -4  14   21.34    2.22 
   2   4 -14   19.24    1.57 
   2   4 -14   24.02    2.09 
   2   4 -14   20.78    1.48 
  -2   4  14   16.32    1.65 
   2   4 -14   21.91    1.54 
  -1  -4  14    3.10    0.67 
  -1  -4  14    4.46    0.75 
  -1  -4  14    3.70    0.83 
   1  -4 -14    1.69    0.63 
   1  -4 -14    2.27    0.55 
   1   4 -14    2.80    0.67 
  -1   4  14    1.59    0.70 
   1   4 -14    1.74    0.58 
   1   4 -14    2.09    0.76 
   0  -4 -14    8.50    1.02 
   0  -4  14    9.17    1.18 
   0  -4  14    8.04    0.98 
   0  -4  14    8.29    0.91 
   0   4 -14    7.95    1.07 
   0   4  14    7.87    1.04 
   0   4 -14   10.37    0.99 
   0   4 -14    6.45    1.01 
   1  -4  14    0.17    0.30 
   1  -4  14   -0.14    0.47 
  -1  -4 -14    0.32    0.44 
  -1  -4 -14    0.15    0.41 
  -1   4 -14    0.45    0.46 
   1   4  14   -0.16    0.52 
  -1   4 -14    0.00    0.31 
  -1   4 -14    0.92    0.79 
   1   4  14    0.09    0.66 
  -2  -4 -14    4.74    0.84 
   2  -4  14    4.29    0.76 
   2   4  14    3.72    1.05 
   2   4  14    4.64    1.02 
  -2   4 -14    3.07    0.72 
  -2   4 -14    5.18    1.09 
  -3  -4 -14    5.95    0.97 
   3   4  14    3.95    1.36 
  -3   4 -14    6.06    0.79 
  -3   4 -14    6.36    1.12 
   3   4  14    4.45    1.14 
  -4   4 -14    4.06    1.28 
  -5   4 -14    4.55    1.15 
  -5  -5  14    0.33    0.52 
  -5  -5  14   -1.06    0.60 
  -5   5  14   -0.40    0.54 
   5   5 -14   -0.41    0.70 
  -4  -5  14    4.00    0.78 
  -4  -5  14    2.01    0.97 
  -4   5  14    2.10    0.75 
   4   5 -14    1.51    0.95 
  -3  -5  14   40.68    2.54 
   3  -5 -14   32.10    2.50 
  -3  -5  14   34.88    3.03 
  -3   5  14   35.73    2.60 
   3   5 -14   36.54    1.92 
   3   5 -14   36.36    3.08 
   3   5 -14   34.45    1.92 
   2  -5 -14    1.32    0.55 
   2  -5 -14    0.57    0.42 
  -2  -5  14    1.03    0.53 
  -2  -5  14    1.29    0.74 
  -2   5  14    1.24    0.65 
   2   5 -14    0.65    0.64 
   2   5 -14    1.41    0.47 
   2   5 -14    0.69    0.53 
   2   5 -14    1.31    0.48 
  -1  -5  14   14.27    1.29 
   1  -5 -14   12.57    1.16 
   1  -5 -14   12.55    1.29 
  -1  -5  14   12.71    1.58 
  -1  -5  14   12.92    1.36 
   1   5 -14   13.36    1.31 
   1   5 -14   14.13    1.29 
   1   5 -14   12.04    1.40 
  -1   5  14   13.41    1.38 
   0  -5  14   14.35    1.55 
   0  -5 -14   14.02    1.38 
   0  -5  14   12.80    1.23 
   0  -5  14   16.75    1.48 
   0   5 -14   14.91    1.44 
   0   5 -14   13.89    1.47 
   0   5  14   16.30    1.77 
   0   5 -14   14.76    1.39 
   0   5  14   13.91    1.53 
   1  -5  14    0.46    0.57 
  -1  -5 -14    0.73    0.43 
   1  -5  14    0.92    0.58 
  -1   5 -14   -0.12    0.32 
   1   5  14    0.89    0.65 
   1   5  14    0.71    0.81 
  -1   5 -14    1.23    0.57 
  -2  -5 -14    2.57    0.75 
   2  -5  14    2.93    0.77 
   2   5  14    3.10    1.00 
  -2   5 -14    2.67    1.03 
   2   5  14    3.07    1.15 
  -2   5 -14    1.73    0.57 
  -2   5 -14    2.83    0.68 
  -3  -5 -14    8.72    1.34 
  -3   5 -14    9.60    1.51 
  -3   5 -14    9.50    1.03 
  -3   5 -14    9.89    1.14 
   3   5  14   10.37    1.62 
   3   5  14    8.49    1.33 
  -4   5 -14    0.86    0.70 
  -5   5 -14    0.05    0.60 
  -5  -6  14   -1.90    0.84 
  -5  -6  14    0.38    0.52 
   5   6 -14    0.22    1.14 
  -5   6  14    1.58    0.79 
  -4  -6  14    7.61    1.52 
  -4  -6  14    7.02    1.00 
   4   6 -14    2.45    1.29 
  -4   6  14    7.13    1.15 
  -3  -6  14   10.51    1.16 
  -3  -6  14    6.88    1.55 
   3  -6 -14   11.69    1.20 
   3   6 -14    9.20    0.71 
   3   6 -14    9.18    1.52 
  -3   6  14    7.39    1.21 
   3   6 -14    8.66    0.74 
  -2  -6  14    0.86    0.54 
   2  -6 -14    2.04    0.63 
  -2  -6  14    0.83    0.75 
   2  -6 -14    1.91    0.59 
   2   6 -14    1.53    0.62 
  -2   6  14    2.05    0.78 
  -2   6  14    3.89    0.89 
   2   6 -14    2.84    0.61 
   2   6 -14    1.58    0.75 
   1  -6 -14    4.77    0.85 
  -1  -6  14    4.91    0.99 
  -1  -6  14    4.63    0.81 
  -1  -6  14    3.86    0.82 
   1  -6 -14    3.95    0.65 
   1   6 -14    5.52    0.82 
  -1   6  14    3.39    0.94 
  -1   6  14    3.43    0.94 
   1   6 -14    3.69    0.85 
   1   6 -14    5.16    1.11 
   0  -6  14   67.51    4.01 
   0  -6 -14   66.98    4.11 
   0  -6  14   65.63    4.30 
   0   6 -14   63.98    4.20 
   0   6 -14   65.05    4.17 
   0   6  14   71.60    4.36 
   0   6 -14   68.71    4.12 
   0   6  14   61.05    4.42 
   1  -6  14    7.28    1.06 
  -1  -6 -14    6.71    1.00 
  -1   6 -14    6.58    1.11 
   1   6  14    2.25    1.07 
  -1   6 -14    5.08    0.86 
  -1   6 -14    5.20    0.93 
   1   6  14    5.21    1.22 
  -2  -6 -14    8.77    1.16 
   2  -6  14    8.54    1.06 
   2   6  14    7.72    1.61 
  -2   6 -14    8.14    1.23 
  -2   6 -14    9.47    1.07 
   2   6  14    9.40    1.41 
  -2   6 -14    9.63    1.08 
  -3   6 -14   13.74    1.31 
  -3   6 -14   14.39    1.68 
  -3   6 -14   13.10    1.37 
   3   6  14   10.42    1.57 
  -4   6 -14   -0.87    0.67 
  -4   6 -14   -0.42    0.42 
  -4  -7  14   -0.64    0.94 
  -4  -7  14   -0.26    0.50 
  -4   7  14   -0.09    0.63 
   4   7 -14    0.40    1.01 
  -3  -7  14    3.37    0.78 
   3  -7 -14    2.77    0.74 
  -3  -7  14    2.58    1.25 
   3   7 -14    2.43    0.51 
  -3   7  14    3.29    0.96 
   3   7 -14    3.26    1.13 
   3   7 -14    2.11    0.45 
  -3   7  14    1.96    0.80 
  -2  -7  14    0.34    0.52 
   2  -7 -14    0.02    0.41 
  -2  -7  14    0.42    0.67 
   2  -7 -14   -0.01    0.47 
   2   7 -14    0.27    0.35 
  -2   7  14   -0.96    0.49 
  -2   7  14   -0.56    0.60 
   2   7 -14    0.25    0.75 
  -1  -7  14    5.99    0.86 
   1  -7 -14    7.20    0.81 
  -1  -7  14    5.75    1.27 
   1  -7 -14    6.59    1.03 
   1   7 -14    7.28    1.00 
   1   7 -14    9.20    1.28 
  -1   7  14    7.20    1.32 
  -1   7  14    6.79    1.09 
   0  -7  14    0.61    0.75 
   0  -7 -14   -0.26    0.45 
   0  -7  14    0.09    0.35 
   0   7 -14    0.41    0.58 
   0   7  14   -0.30    0.59 
   0   7 -14    0.57    0.64 
   0   7 -14    0.68    0.57 
   0   7  14   -0.29    0.48 
   0   7  14    0.62    0.82 
   1  -7  14    4.16    0.95 
  -1  -7 -14    5.27    0.97 
  -1   7 -14    4.50    0.92 
  -1   7 -14    4.23    0.81 
   1   7  14    4.96    1.42 
   1   7  14    2.98    1.08 
  -1   7 -14    5.42    0.97 
   2  -7  14   -0.15    0.54 
  -2  -7 -14    0.25    0.51 
   2   7  14    1.06    0.84 
  -2   7 -14    1.16    0.63 
  -2   7 -14    0.62    0.72 
  -2   7 -14    0.33    0.38 
   2   7  14    1.78    0.93 
   3   7  14    1.34    0.85 
  -3   7 -14    0.65    0.52 
  -3   7 -14    0.01    0.43 
  -3   7 -14   -0.24    0.47 
  -4   7 -14   -0.18    0.76 
  -4   7 -14   -0.04    0.51 
  -4  -8  14   -0.17    0.55 
  -4  -8  14   -0.82    0.60 
  -4   8  14   -0.98    0.57 
   4   8 -14    0.86    0.86 
  -3  -8  14   17.70    2.25 
  -3  -8  14   14.25    1.47 
   3   8 -14   10.79    1.96 
   3   8 -14   10.68    0.94 
   3   8 -14   12.93    1.32 
  -3   8  14   11.95    1.63 
  -3   8  14   13.98    1.70 
   2  -8 -14    8.41    1.11 
   2  -8 -14    8.38    0.92 
  -2  -8  14   11.00    1.23 
  -2  -8  14    4.48    1.34 
   2   8 -14    8.71    1.02 
  -2   8  14   11.34    1.48 
  -2   8  14    7.09    1.37 
   2   8 -14    8.82    1.64 
   1  -8 -14    6.86    0.82 
  -1  -8  14    9.26    1.52 
  -1  -8  14    8.01    1.07 
   1  -8 -14    7.59    1.12 
   1   8 -14    7.61    1.07 
   1   8 -14    6.48    1.20 
  -1   8  14    7.21    1.34 
  -1   8  14    7.76    1.45 
  -1   8  14    6.34    1.10 
   0  -8  14   29.04    2.39 
   0  -8 -14   21.51    1.97 
   0   8  14   21.43    2.09 
   0   8 -14   26.29    2.08 
   0   8 -14   18.95    1.96 
   0   8  14   21.86    2.39 
   1  -8  14    1.98    0.80 
  -1  -8 -14    1.82    0.72 
   1   8  14    3.43    1.29 
  -1   8 -14    1.90    0.76 
   1   8  14    2.45    1.03 
  -1   8 -14    1.26    0.69 
  -1   8 -14    2.10    0.90 
  -2  -8 -14    8.24    1.26 
   2  -8  14    9.63    1.21 
  -2   8 -14    6.87    1.04 
   2   8  14   10.57    1.56 
  -2   8 -14    8.33    1.31 
  -2   8 -14   10.88    1.23 
  -3   8 -14    3.64    0.87 
   3   8  14    2.20    1.09 
  -3   8 -14    4.16    1.22 
  -3   8 -14    1.66    0.74 
  -4   8 -14    0.39    0.90 
  -4   8 -14    0.49    0.63 
  -4  -9  14   -0.05    0.57 
  -4  -9  14    2.09    1.22 
  -4   9  14    1.45    0.96 
   4   9 -14    0.20    1.06 
  -4   9  14    2.13    1.12 
  -3  -9  14    0.09    0.76 
  -3  -9  14    0.81    0.66 
  -3   9  14    0.31    0.81 
  -3   9  14    1.80    0.96 
   3   9 -14    1.22    1.15 
   3   9 -14    0.35    0.39 
  -3   9  14    1.50    0.91 
  -2  -9  14    8.53    1.20 
  -2  -9  14    9.02    1.56 
   2  -9 -14    9.48    1.17 
   2  -9 -14    6.97    0.90 
  -2   9  14    7.43    1.24 
   2   9 -14    7.98    1.61 
  -2   9  14   11.06    1.57 
   2   9 -14    8.08    1.09 
  -2   9  14    9.79    1.59 
   1  -9 -14   10.16    1.28 
  -1  -9  14    9.23    1.62 
  -1   9  14    9.62    1.66 
  -1   9  14    7.66    1.50 
   1   9 -14   10.01    1.23 
  -1   9  14    6.40    1.36 
   1   9 -14    7.97    1.49 
   0  -9  14    2.12    1.02 
   0  -9 -14    4.35    0.98 
   0   9 -14    3.64    1.04 
   0   9  14    1.95    0.88 
   0   9 -14    4.54    1.03 
   0   9  14    4.59    1.37 
  -1  -9 -14    4.64    0.90 
   1  -9  14    5.03    1.24 
   1   9  14    4.73    1.36 
  -1   9 -14    4.93    0.98 
  -1   9 -14    1.64    0.67 
  -1   9 -14    4.25    0.95 
   1   9  14    4.21    1.66 
  -2  -9 -14   15.75    1.68 
   2  -9  14   16.08    1.60 
  -2   9 -14   15.09    1.53 
  -2   9 -14   13.17    1.51 
  -2   9 -14   17.36    1.86 
   2   9  14   12.00    1.80 
   3   9  14    0.95    1.01 
  -3   9 -14   -0.44    0.79 
  -3   9 -14    0.94    0.71 
  -3   9 -14    1.12    0.70 
  -4   9 -14    3.27    0.94 
  -4   9 -14    3.67    1.29 
  -4 -10  14    1.73    0.87 
  -4 -10  14    1.68    1.49 
   4  10 -14    1.76    1.45 
  -4  10  14    0.95    1.00 
  -4  10  14    6.32    1.44 
  -3 -10  14    2.09    0.78 
  -3 -10  14    0.24    0.87 
  -3  10  14    2.06    0.99 
  -3  10  14    2.04    1.02 
   3  10 -14    2.46    1.30 
  -2 -10  14    0.50    0.84 
   2 -10 -14    1.09    0.65 
  -2 -10  14    1.40    0.88 
  -2  10  14    1.79    1.03 
   2  10 -14    1.25    1.05 
  -2  10  14    2.86    1.12 
  -2  10  14    2.06    1.07 
   1 -10 -14    1.09    0.71 
  -1 -10  14   -0.10    0.65 
   1  10 -14    1.01    0.76 
  -1  10  14    0.35    0.86 
  -1  10  14    0.24    0.91 
   0 -10  14    1.89    1.01 
   0 -10 -14    1.91    0.86 
   0  10 -14    2.27    0.75 
   0  10 -14    2.36    1.01 
   0  10  14    3.81    1.38 
   0  10  14    1.78    0.91 
   1 -10  14    2.13    0.93 
  -1 -10 -14    3.87    0.89 
  -1  10 -14    3.65    1.00 
  -1  10 -14    3.81    0.89 
   1  10  14    2.94    1.26 
   2 -10  14    1.21    0.75 
  -2 -10 -14    2.37    0.92 
  -2  10 -14    1.00    0.67 
   2  10  14    2.16    1.15 
  -2  10 -14    2.50    0.76 
  -2  10 -14    1.85    0.81 
   3  10  14   39.26    3.52 
  -3  10 -14   38.23    3.51 
  -3  10 -14   45.56    3.23 
  -3  10 -14   52.03    3.31 
  -4  10 -14   -0.87    0.50 
  -4  10 -14    0.10    0.91 
   3 -11 -14    0.30    0.31 
  -3 -11  14   -0.82    1.11 
  -3  11  14    0.71    0.93 
   3  11 -14    0.59    1.18 
  -3  11  14    0.60    0.90 
   2 -11 -14    1.01    0.70 
  -2 -11  14    1.16    0.93 
   2  11 -14    1.42    0.93 
  -2  11  14    1.56    1.02 
  -2  11  14    0.87    1.01 
   1 -11 -14   10.19    1.38 
  -1 -11  14    9.80    1.77 
  -1  11  14    8.73    1.82 
   1  11 -14    9.38    1.70 
  -1  11  14    8.93    1.62 
   0 -11 -14    0.13    0.70 
   0 -11  14    0.11    0.87 
   0  11  14   -0.95    0.48 
   0  11 -14   -0.62    0.51 
  -1 -11 -14    0.03    0.65 
   1 -11  14    0.58    0.80 
  -1  11 -14    0.72    0.80 
  -1  11 -14    0.16    0.60 
   1  11  14    1.06    1.06 
  -2 -11 -14   19.09    2.10 
  -2  11 -14   22.70    2.12 
   2  11  14   21.26    2.44 
  -3  11 -14   20.60    2.41 
  -3  11 -14   18.73    1.95 
   3  11  14   21.15    2.34 
   3 -12 -14    1.22    0.44 
  -3 -12  14    0.90    1.10 
   3  12 -14    1.75    1.36 
  -3  12  14    0.84    1.05 
  -2 -12  14   -0.24    1.10 
   2 -12 -14    2.18    0.85 
  -2  12  14   -0.16    0.71 
  -2  12  14    1.10    1.05 
   2  12 -14    0.95    0.95 
  -1 -12  14   -0.26    0.95 
   1 -12 -14    1.33    0.86 
   1  12 -14    0.30    0.93 
  -1  12  14   -0.30    0.84 
   0 -12 -14   12.78    1.63 
   0 -12  14   13.15    1.91 
   0  12  14   12.75    1.98 
   0  12 -14   10.81    1.79 
  -1 -12 -14   -0.15    0.66 
   1 -12  14    1.40    0.95 
  -1  12 -14   -0.55    0.71 
   1  12  14    1.11    0.93 
  -2 -12 -14    0.45    0.78 
  -2  12 -14    0.63    0.77 
   2  12  14    0.56    0.84 
   3  12  14    3.25    1.39 
  -3  12 -14    3.05    1.08 
  -3  12 -14    2.55    0.97 
   2 -13 -14   -0.79    0.58 
  -2 -13  14   -1.16    1.03 
   2  13 -14    0.19    0.82 
  -2  13  14    1.67    1.25 
   1 -13 -14    7.95    1.34 
  -1 -13  14    8.72    1.86 
   1  13 -14    7.01    1.49 
  -1  13  14    3.70    1.28 
   0 -13 -14    1.09    0.83 
   0 -13  14   -0.16    0.95 
   0  13 -14    2.05    0.98 
   0  13  14    1.25    1.26 
  -1 -13 -14    2.08    1.04 
   1 -13  14    3.93    1.25 
  -1  13 -14    2.43    1.13 
   1  13  14    5.36    1.78 
  -2 -13 -14    0.70    0.80 
  -2  13 -14    0.41    0.84 
   2  13  14   -0.97    1.05 
  -2 -14  14    0.24    1.03 
   2 -14 -14    2.61    0.92 
  -2  14  14    0.83    1.01 
   2  14 -14    1.38    1.39 
  -1 -14  14    1.08    1.27 
   1 -14 -14    2.25    1.05 
   1  14 -14    1.17    1.22 
  -1  14  14    2.83    1.47 
   0 -14  14    7.18    1.66 
   0 -14 -14    4.03    1.25 
   0  14  14    4.59    1.63 
   0  14 -14    5.49    1.57 
   1 -14  14    3.22    1.39 
  -1 -14 -14    2.48    1.12 
   1  14  14    0.42    1.19 
  -1  14 -14    1.50    0.96 
  -2 -14 -14   -0.35    0.66 
  -2  14 -14    0.22    0.94 
   2  14  14    0.20    0.82 
   1 -15 -14    2.75    1.07 
  -1 -15  14    1.97    1.39 
  -1  15  14    4.09    1.75 
   1  15 -14    2.65    1.38 
   0 -15  14    0.06    1.03 
   0 -15 -14    0.36    0.91 
   0  15  14   -0.57    1.24 
   0  15 -14   -1.74    0.79 
   5   0 -15    0.18    0.92 
  -5   0  15   -0.38    0.36 
  -4   0  15   -0.22    0.40 
   4   0 -15   -0.18    0.74 
   3   0 -15    0.16    0.67 
  -3   0  15   -0.20    0.41 
   2   0 -15   -0.54    0.34 
   2   0 -15   -0.20    0.49 
   2   0 -15   -0.47    0.36 
  -2   0  15    0.04    0.38 
   1   0 -15   -0.40    0.35 
   1   0 -15   -0.36    0.40 
  -1   0  15   -0.37    0.25 
   1   0 -15   -0.36    0.35 
   0   0  15    0.09    0.33 
   0   0 -15    0.57    0.35 
   0   0  15    0.00    0.35 
   0   0 -15    0.33    0.33 
   0   0 -15    0.95    0.57 
   1   0  15    0.53    0.40 
  -1   0 -15    0.20    0.30 
   1   0  15   -0.07    0.42 
  -1   0 -15   -0.09    0.49 
  -2   0 -15    0.20    0.50 
   3   0  15    0.96    0.83 
  -3   0 -15   -0.34    0.38 
   4   0  15   -0.24    0.83 
  -4   0 -15   -0.50    0.73 
  -5   0 -15    0.85    0.95 
  -5  -1  15    2.62    0.69 
  -5  -1  15    3.27    1.41 
   5  -1 -15    3.59    1.19 
   5   1 -15    2.99    1.27 
  -5   1  15    1.24    0.57 
  -4  -1  15    1.26    0.55 
   4  -1 -15   -0.72    0.56 
   4   1 -15    1.16    0.91 
  -4   1  15    1.59    0.61 
   3  -1 -15    0.61    0.73 
  -3  -1  15    0.56    0.45 
  -3   1  15   -0.08    0.41 
   3   1 -15    1.25    0.83 
  -2  -1  15    0.46    0.46 
   2  -1 -15    2.05    0.59 
   2  -1 -15    2.06    0.56 
   2  -1 -15    3.83    0.87 
  -2   1  15    0.08    0.45 
   2   1 -15    1.74    0.77 
   2   1 -15    1.88    0.54 
   2   1 -15    2.28    0.57 
  -1  -1  15    9.81    1.03 
   1  -1 -15    8.32    0.97 
   1  -1 -15    9.25    1.03 
  -1  -1  15    8.42    1.06 
  -1   1  15    8.33    1.05 
   1   1 -15    9.88    1.00 
   1   1 -15    8.73    1.04 
   1   1 -15    9.89    1.03 
   1   1 -15    7.63    1.10 
   0  -1  15    1.70    0.53 
   0  -1 -15    2.89    0.69 
   0  -1 -15    1.72    0.59 
   0  -1  15    2.10    0.59 
   0   1 -15    1.42    0.54 
   0   1  15    2.18    0.59 
   0   1  15    1.54    0.65 
   0   1 -15    3.19    0.62 
  -1  -1 -15    0.66    0.47 
   1  -1  15    1.39    0.59 
  -1  -1 -15    0.36    0.45 
   1  -1  15    1.49    0.54 
  -1   1 -15    0.99    0.68 
  -1   1 -15    0.83    0.49 
   1   1  15    0.94    0.49 
   1   1  15    1.12    0.48 
  -2  -1 -15   10.45    1.33 
  -2   1 -15    9.96    1.32 
  -3  -1 -15    0.65    0.61 
   3   1  15    1.31    0.69 
   3   1  15    1.29    0.75 
  -3   1 -15    0.13    0.54 
   4  -1  15   -0.56    0.79 
  -4  -1 -15    0.62    0.87 
  -4   1 -15   -0.48    0.48 
   4   1  15    2.43    1.21 
  -5  -1 -15    2.17    1.19 
  -5   1 -15    3.05    1.06 
  -5  -2  15    0.08    0.46 
  -5  -2  15   -1.12    0.50 
   5   2 -15    0.64    1.09 
  -5   2  15   -0.28    0.47 
  -4  -2  15    0.33    0.65 
   4  -2 -15    0.36    0.72 
  -4  -2  15    0.27    0.45 
  -4   2  15    0.01    0.44 
   4   2 -15    1.13    0.80 
   3  -2 -15    3.28    0.94 
  -3  -2  15    3.54    0.72 
  -3   2  15    3.31    0.78 
   3   2 -15    3.75    1.13 
   2  -2 -15    8.66    1.19 
  -2  -2  15   12.23    1.18 
   2  -2 -15   10.87    0.99 
   2  -2 -15   12.62    1.13 
  -2  -2  15   14.20    1.63 
   2   2 -15   10.10    1.43 
   2   2 -15    9.88    0.99 
   2   2 -15    9.89    1.06 
  -2   2  15   11.32    1.20 
  -1  -2  15    3.26    0.67 
   1  -2 -15    1.33    0.56 
  -1  -2  15    3.74    0.73 
   1   2 -15    3.07    0.71 
   1   2 -15    2.01    0.60 
   1   2 -15    4.15    0.71 
  -1   2  15    3.42    0.77 
   1   2 -15    3.02    0.65 
   0  -2 -15    9.71    1.04 
   0  -2  15   13.31    1.25 
   0  -2 -15   11.58    1.17 
   0  -2  15   10.04    1.12 
   0   2 -15   11.36    1.25 
   0   2  15   13.04    1.34 
   0   2 -15   13.94    1.22 
   0   2 -15   11.11    1.29 
  -1  -2 -15   64.82    3.76 
   1  -2  15   56.99    3.72 
  -1   2 -15   59.55    3.70 
   1   2  15   59.07    3.41 
  -1   2 -15   58.40    3.95 
   1   2  15   61.15    3.84 
  -2  -2 -15    1.96    0.74 
  -2  -2 -15    1.86    0.62 
  -2   2 -15    1.17    0.70 
   2   2  15    1.90    0.81 
  -3  -2 -15    8.06    1.38 
   3   2  15    4.64    1.05 
   3   2  15    5.83    1.44 
  -3   2 -15    5.88    1.31 
  -4  -2 -15    1.74    0.85 
   4  -2  15    0.90    0.84 
  -4   2 -15    0.07    0.83 
  -5   2 -15    0.38    0.93 
  -5  -3  15    2.02    1.31 
  -5  -3  15    1.94    0.65 
  -5   3  15    1.58    0.70 
   5   3 -15    3.04    1.43 
  -4  -3  15    3.29    0.78 
   4  -3 -15    3.18    1.01 
  -4  -3  15    4.71    1.41 
   4   3 -15    3.15    1.32 
  -4   3  15    3.69    0.86 
  -3  -3  15    5.07    0.82 
   3  -3 -15    4.97    1.03 
  -3  -3  15    5.96    1.16 
   3   3 -15    4.78    1.11 
  -3   3  15    2.97    0.79 
   2  -3 -15    7.57    0.97 
  -2  -3  15   10.75    1.10 
   2  -3 -15    8.78    0.90 
   2  -3 -15    9.48    1.15 
   2   3 -15    8.34    1.00 
   2   3 -15    9.48    0.93 
   2   3 -15    8.69    1.39 
   2   3 -15    8.64    0.95 
  -2   3  15    8.35    1.11 
   1  -3 -15   -0.33    0.38 
  -1  -3  15   -0.09    0.38 
  -1  -3  15    0.00    0.40 
   1  -3 -15    0.03    0.40 
   1   3 -15    0.38    0.45 
   1   3 -15    0.89    0.52 
  -1   3  15   -0.32    0.45 
   1   3 -15    0.18    0.38 
   0  -3  15   21.61    1.72 
   0  -3 -15   20.60    1.59 
   0  -3  15   22.86    1.67 
   0  -3 -15   20.38    1.65 
   0   3 -15   17.79    1.71 
   0   3 -15   19.80    1.69 
   0   3  15   18.75    1.69 
   0   3 -15   17.63    1.57 
  -1  -3 -15    0.21    0.47 
  -1   3 -15    0.26    0.38 
  -1   3 -15    0.00    0.55 
   1   3  15    0.02    0.35 
   2  -3  15   19.19    1.54 
  -2  -3 -15   19.57    1.69 
  -2   3 -15   21.76    1.70 
   2   3  15   16.56    2.01 
  -2   3 -15   18.08    1.84 
  -3   3 -15   19.33    2.12 
   3   3  15   22.33    2.04 
   3   3  15   23.36    2.43 
   4  -3  15    2.39    0.96 
  -4   3 -15    3.70    1.09 
  -5   3 -15    1.73    1.10 
  -5  -4  15    1.13    0.57 
  -5  -4  15    1.37    1.04 
   5   4 -15    1.66    1.08 
  -5   4  15    1.61    0.74 
   4  -4 -15    0.29    0.77 
  -4  -4  15    0.45    0.80 
  -4  -4  15    0.16    0.49 
  -4   4  15   -0.11    0.50 
   4   4 -15   -0.26    0.60 
  -3  -4  15   -0.34    0.43 
  -3  -4  15    0.36    0.83 
   3  -4 -15   -0.03    0.51 
   3   4 -15    0.74    0.73 
   3   4 -15    1.41    0.27 
  -3   4  15    0.29    0.56 
   3   4 -15    0.92    0.21 
  -2  -4  15    6.53    1.35 
   2  -4 -15    7.17    0.95 
  -2  -4  15   10.04    1.10 
   2  -4 -15    8.30    0.88 
   2  -4 -15    8.54    1.08 
   2   4 -15    8.23    0.93 
   2   4 -15    7.37    0.87 
  -2   4  15    9.93    1.19 
   2   4 -15    9.58    1.05 
   2   4 -15   10.39    1.51 
  -1  -4  15    3.38    0.82 
  -1  -4  15    4.40    0.92 
  -1   4  15    2.17    0.75 
   1   4 -15    2.56    0.65 
   1   4 -15    1.87    0.73 
   1   4 -15    3.32    0.74 
   0  -4  15    0.15    0.51 
   0  -4  15    0.24    0.37 
   0  -4  15   -0.59    0.44 
   0  -4 -15    0.00    0.41 
   0   4  15    0.30    0.54 
   0   4 -15   -0.14    0.46 
   0   4 -15    0.35    0.45 
   0   4 -15    0.26    0.48 
  -1  -4 -15   72.78    4.44 
   1  -4  15   76.09    4.49 
   1   4  15   74.84    4.05 
  -1   4 -15   72.86    4.46 
  -1   4 -15   73.77    4.67 
   1   4  15   66.11    4.78 
   2  -4  15    0.49    0.46 
  -2  -4 -15    0.46    0.54 
  -2   4 -15    0.14    0.69 
   2   4  15    0.13    0.63 
   2   4  15    0.13    0.78 
  -2   4 -15   -0.21    0.27 
   3   4  15    2.93    1.00 
  -3   4 -15    3.69    0.82 
  -3   4 -15    2.79    0.96 
   3   4  15    2.86    1.07 
  -4   4 -15    3.07    1.17 
  -4  -5  15    0.54    0.50 
  -4  -5  15    0.70    0.80 
   4   5 -15   -0.60    0.83 
  -4   5  15    1.34    0.69 
  -3  -5  15   26.75    2.03 
   3  -5 -15   28.74    2.18 
  -3  -5  15   28.22    2.73 
   3   5 -15   21.96    2.57 
   3   5 -15   25.51    1.53 
   3   5 -15   26.05    1.56 
  -3   5  15   30.06    2.26 
   2  -5 -15    3.66    0.78 
  -2  -5  15    4.73    1.31 
  -2  -5  15    3.86    0.76 
   2  -5 -15    4.48    0.80 
   2   5 -15    2.74    1.09 
   2   5 -15    2.53    0.64 
  -2   5  15    4.04    1.00 
   2   5 -15    2.88    0.66 
   1  -5 -15    0.32    0.52 
  -1  -5  15    0.08    0.45 
  -1  -5  15    0.78    0.69 
   1  -5 -15    0.78    0.45 
  -1  -5  15    0.88    0.81 
   1   5 -15    0.39    0.51 
   1   5 -15   -0.08    0.41 
  -1   5  15    0.43    0.45 
   0  -5  15   24.58    1.91 
   0  -5  15   22.47    1.98 
   0  -5 -15   27.83    2.06 
   0  -5  15   22.59    2.06 
   0   5 -15   27.86    2.04 
   0   5  15   26.14    2.20 
   0   5 -15   26.21    2.09 
   0   5  15   23.57    2.24 
   0   5 -15   25.81    2.06 
  -1  -5 -15    7.81    1.08 
   1  -5  15    9.01    1.23 
  -1   5 -15    9.08    1.09 
  -1   5 -15    7.83    1.25 
   1   5  15    9.05    1.50 
   2  -5  15    0.87    0.60 
  -2  -5 -15    1.35    0.66 
   2   5  15    1.30    0.86 
  -2   5 -15    2.68    0.96 
  -2   5 -15    1.27    0.57 
   2   5  15    0.78    0.78 
  -3   5 -15    1.39    0.54 
  -3   5 -15    1.07    0.80 
   3   5  15    0.58    0.79 
  -4   5 -15    0.88    0.78 
  -4   5 -15    0.72    0.58 
  -4  -6  15    5.61    1.72 
  -4  -6  15    6.78    1.03 
   4   6 -15    4.37    1.38 
  -4   6  15    6.03    1.19 
  -3  -6  15    1.38    1.06 
  -3  -6  15    0.99    0.53 
   3  -6 -15    0.31    0.56 
   3   6 -15    0.52    0.32 
   3   6 -15    0.79    0.34 
  -3   6  15    0.18    0.65 
   3   6 -15   -0.06    0.90 
   2  -6 -15    0.58    0.51 
  -2  -6  15    0.15    0.62 
   2  -6 -15    0.67    0.53 
  -2  -6  15    0.94    0.55 
   2   6 -15   -0.06    0.53 
  -2   6  15    0.66    0.68 
   2   6 -15    1.03    0.47 
   1  -6 -15    4.48    0.96 
  -1  -6  15    3.11    1.10 
  -1  -6  15    5.33    0.88 
   1  -6 -15    4.33    0.72 
   1   6 -15    4.35    0.95 
  -1   6  15    6.28    1.15 
   1   6 -15    5.00    0.87 
  -1   6  15    4.28    1.16 
   0  -6 -15    7.18    1.07 
   0  -6  15    9.59    1.37 
   0   6  15    8.65    1.34 
   0   6 -15    9.54    1.20 
   0   6  15    9.19    1.36 
   0   6 -15    7.00    1.02 
   1  -6  15    2.96    0.92 
  -1  -6 -15    1.70    0.73 
   1   6  15    2.44    1.09 
  -1   6 -15    2.23    0.75 
  -1   6 -15    2.01    0.65 
   1   6  15    0.53    0.77 
  -2  -6 -15    4.54    0.86 
   2  -6  15    5.01    0.92 
   2   6  15    3.98    1.29 
  -2   6 -15    6.33    1.01 
  -2   6 -15    5.15    0.82 
  -2   6 -15    4.64    0.99 
   2   6  15    6.13    1.22 
   3   6  15    3.02    1.09 
  -3   6 -15    5.35    0.86 
  -3   6 -15    6.15    1.19 
  -4   6 -15    0.94    0.51 
  -4   6 -15    0.51    0.88 
  -4  -7  15   -0.26    0.53 
  -4  -7  15    0.63    0.94 
  -4   7  15    0.63    0.73 
   4   7 -15    0.88    1.14 
  -3  -7  15    1.94    1.22 
  -3  -7  15    0.98    0.63 
   3  -7 -15    0.62    0.60 
  -3   7  15    1.29    0.79 
   3   7 -15    1.32    0.50 
   3   7 -15    2.32    1.25 
   3   7 -15    1.24    0.39 
  -3   7  15    0.95    0.88 
  -2  -7  15    0.07    0.47 
   2  -7 -15    0.13    0.51 
   2  -7 -15    0.79    0.47 
  -2  -7  15    0.62    0.75 
  -2   7  15   -0.09    0.62 
   2   7 -15    0.64    0.44 
  -2   7  15    0.40    0.75 
   2   7 -15    0.31    0.57 
   1  -7 -15   27.16    2.20 
   1  -7 -15   30.02    2.02 
  -1  -7  15   29.26    2.57 
  -1  -7  15   27.07    2.15 
  -1   7  15   28.95    2.50 
   1   7 -15   27.04    2.53 
   1   7 -15   27.96    2.18 
  -1   7  15   30.80    2.58 
   0  -7  15   -0.08    0.67 
   0  -7 -15   -0.17    0.46 
   0   7  15    0.86    0.80 
   0   7  15    0.16    0.87 
   0   7 -15   -0.72    0.43 
   0   7 -15   -0.02    0.55 
  -1  -7 -15   17.65    1.67 
   1  -7  15   14.93    1.70 
   1   7  15   14.93    1.90 
  -1   7 -15   19.70    1.85 
  -1   7 -15   13.62    1.56 
   1   7  15   11.80    1.71 
  -2  -7 -15   18.03    1.74 
   2  -7  15   17.17    1.59 
  -2   7 -15   14.96    1.76 
  -2   7 -15   17.20    1.61 
   2   7  15   16.56    1.81 
  -2   7 -15   15.35    1.61 
  -3   7 -15    3.78    1.09 
  -3   7 -15    5.20    0.99 
   3   7  15    4.84    1.32 
  -4   7 -15    0.13    0.54 
  -4   7 -15    0.88    0.95 
  -4  -8  15    1.11    0.64 
  -4  -8  15    0.31    0.87 
   4   8 -15   -1.34    0.87 
  -4   8  15    0.57    0.81 
  -3  -8  15    1.34    0.96 
  -3  -8  15    1.26    0.68 
   3   8 -15    1.20    0.97 
   3   8 -15    2.53    0.54 
  -3   8  15    0.91    0.84 
  -3   8  15    1.63    0.93 
  -2  -8  15    6.21    1.30 
   2  -8 -15    3.76    0.89 
   2  -8 -15    3.46    0.74 
  -2  -8  15    2.29    0.76 
   2   8 -15    1.42    0.84 
   2   8 -15    3.99    0.79 
  -2   8  15    1.94    1.06 
  -2   8  15    3.73    1.08 
   1  -8 -15   25.08    1.83 
   1  -8 -15   27.84    2.18 
  -1  -8  15   20.80    2.41 
   1   8 -15   27.46    2.11 
   1   8 -15   27.67    2.47 
  -1   8  15   28.25    2.42 
  -1   8  15   25.50    2.46 
  -1   8  15   24.15    2.33 
   0  -8  15   41.58    3.36 
   0  -8 -15   47.81    3.23 
   0   8  15   42.31    3.61 
   0   8 -15   46.44    3.25 
   0   8  15   45.81    3.45 
   0   8 -15   43.83    3.29 
   1  -8  15    2.16    0.88 
  -1  -8 -15    1.46    0.72 
  -1   8 -15    0.16    0.51 
  -1   8 -15    1.30    0.66 
  -1   8 -15    1.51    0.75 
   1   8  15    0.86    0.91 
  -2  -8 -15    2.11    0.84 
   2  -8  15    0.69    0.69 
   2   8  15    1.78    1.01 
  -2   8 -15    1.17    0.57 
  -2   8 -15    0.63    0.82 
  -2   8 -15    2.17    0.78 
  -3   8 -15    1.97    0.81 
   3   8  15    6.49    1.38 
  -3   8 -15    4.15    1.24 
  -4   8 -15    0.63    0.92 
  -4   8 -15    0.70    0.64 
  -4  -9  15   -0.31    1.18 
  -4  -9  15    0.28    0.64 
  -4   9  15   -0.21    0.76 
  -4   9  15    1.29    1.00 
   4   9 -15    0.97    1.04 
  -3  -9  15    7.09    1.61 
  -3  -9  15    8.68    1.23 
   3   9 -15    8.14    1.63 
  -3   9  15    8.97    1.58 
   3   9 -15    6.74    0.78 
  -3   9  15    9.36    1.62 
  -3   9  15    6.72    1.37 
   2  -9 -15    0.34    0.58 
  -2  -9  15    1.74    1.09 
   2  -9 -15   -0.25    0.40 
  -2  -9  15    0.07    0.97 
   2   9 -15    0.08    0.62 
  -2   9  15    1.80    1.07 
  -2   9  15    0.79    0.83 
   2   9 -15    0.65    0.51 
  -2   9  15    0.75    0.87 
   1  -9 -15    0.60    0.45 
   1  -9 -15    0.27    0.68 
  -1  -9  15    0.41    0.96 
  -1   9  15    0.52    0.86 
   1   9 -15    0.44    0.56 
   1   9 -15    0.90    0.74 
  -1   9  15   -0.22    0.95 
   0  -9  15    3.69    1.07 
   0  -9 -15    5.82    1.09 
   0   9  15    3.29    1.21 
   0   9 -15    3.93    1.15 
   0   9 -15    4.39    1.05 
  -1  -9 -15    0.23    0.63 
   1  -9  15    1.42    0.84 
   1   9  15    0.71    0.91 
  -1   9 -15    0.84    0.57 
  -1   9 -15    1.26    0.66 
  -1   9 -15    0.72    0.75 
  -2  -9 -15    3.86    1.06 
   2   9  15    2.30    1.24 
  -2   9 -15    1.53    0.96 
  -2   9 -15    2.85    0.89 
  -2   9 -15    1.70    0.66 
   3   9  15    0.45    0.96 
  -3   9 -15    0.44    0.61 
  -3   9 -15   -0.35    0.78 
  -4   9 -15    2.77    1.16 
  -3 -10  15    0.73    1.19 
   3 -10 -15    0.25    0.27 
   3  10 -15   -0.71    0.58 
   3  10 -15   -0.24    0.41 
  -3  10  15    0.10    0.88 
  -3  10  15    1.50    1.03 
   2 -10 -15    0.05    0.62 
  -2 -10  15    0.59    1.10 
  -2  10  15    0.63    1.01 
   2  10 -15    0.14    0.73 
   2  10 -15    0.92    0.55 
  -2  10  15    0.00    0.77 
   1 -10 -15    0.21    0.41 
  -1 -10  15    0.21    0.96 
   1 -10 -15   -0.36    0.62 
  -1  10  15   -0.18    0.76 
   1  10 -15    0.02    0.84 
  -1  10  15    0.80    1.29 
   1  10 -15    0.64    0.62 
   0 -10  15    2.99    1.18 
   0 -10 -15    3.39    1.01 
   0  10 -15    5.10    1.00 
   0  10  15    4.96    1.41 
   0  10 -15    5.85    1.16 
  -1 -10 -15    0.67    0.77 
   1 -10  15    1.12    0.86 
  -1  10 -15    0.09    0.69 
  -1  10 -15    0.97    0.82 
  -1  10 -15    0.22    0.64 
   1  10  15    2.01    0.97 
  -2 -10 -15    1.73    0.87 
   2  10  15    1.39    1.05 
  -2  10 -15    1.12    0.93 
  -2  10 -15    0.62    0.73 
  -2  10 -15    1.14    0.81 
  -3  10 -15   10.00    1.40 
  -3  10 -15    7.55    1.63 
   3  10  15    7.20    1.66 
  -3 -11  15   -0.07    0.90 
   3 -11 -15    0.41    0.33 
   3  11 -15    1.50    1.04 
  -3  11  15    1.64    1.17 
   2 -11 -15   -0.44    0.58 
  -2 -11  15   -0.04    1.06 
  -2  11  15    1.16    1.03 
   2  11 -15    0.52    1.10 
   2  11 -15    0.18    0.54 
   1 -11 -15    4.07    1.04 
  -1 -11  15    2.74    1.33 
   1  11 -15    3.51    1.19 
  -1  11  15    1.23    1.05 
   0 -11 -15    0.54    0.76 
   0 -11  15   -1.13    0.76 
   0  11  15   -0.26    0.93 
   0  11 -15   -0.14    0.79 
   1 -11  15    0.39    0.82 
  -1 -11 -15    0.17    0.69 
   1  11  15    0.42    1.03 
  -1  11 -15    0.31    0.82 
  -2 -11 -15   -0.12    0.73 
  -2  11 -15    0.40    0.81 
   2  11  15    1.37    1.17 
  -2  11 -15    0.65    0.75 
  -3  11 -15    3.70    1.21 
  -3  11 -15    2.78    1.01 
   3  11  15    1.32    1.19 
   3 -12 -15    0.59    0.44 
  -3  12  15    0.84    1.14 
   3  12 -15    1.25    1.03 
   2 -12 -15    0.31    0.69 
  -2 -12  15    1.64    1.13 
   2  12 -15    1.62    1.34 
  -2  12  15   -0.06    1.02 
   1 -12 -15    1.96    0.92 
  -1 -12  15    5.94    1.68 
   1  12 -15    2.33    1.10 
  -1  12  15    1.92    1.11 
   0 -12 -15    3.46    1.14 
   0 -12  15    5.99    1.60 
   0  12  15    5.02    1.58 
   0  12 -15    5.42    1.36 
   1 -12  15    3.88    1.27 
  -1 -12 -15    5.46    1.34 
  -1  12 -15    3.73    1.27 
   1  12  15    6.81    1.78 
  -2 -12 -15    3.32    1.11 
  -2  12 -15    3.21    1.09 
   2  12  15   -0.68    1.06 
  -2 -13  15    1.01    1.12 
   2 -13 -15    1.73    0.88 
   2  13 -15    1.95    1.30 
  -2  13  15    1.40    1.32 
   1 -13 -15    4.43    1.22 
  -1 -13  15    4.62    1.47 
  -1  13  15    4.24    1.64 
   1  13 -15    5.27    1.64 
   0 -13 -15    3.47    1.09 
   0 -13  15    0.33    1.07 
   0  13 -15    1.30    1.10 
   0  13  15    1.21    0.87 
   1 -13  15    3.49    1.25 
  -1 -13 -15    3.46    1.27 
  -1  13 -15    2.88    1.08 
   1  13  15    2.54    1.20 
  -2 -13 -15   -0.69    0.64 
  -2  13 -15   -0.28    0.84 
   2  13  15    1.14    1.32 
   1 -14 -15    4.40    1.25 
  -1 -14  15    1.28    1.36 
  -1  14  15    3.62    1.63 
   1  14 -15    5.29    1.54 
   0 -14  15   14.72    2.20 
   0 -14 -15   12.57    1.86 
   0  14  15   14.78    2.32 
   0  14 -15   15.14    2.08 
   1 -14  15    1.59    1.07 
  -1 -14 -15    0.44    0.87 
   1  14  15    1.43    1.40 
  -1  14 -15   -0.77    0.81 
   4   0 -16    1.94    1.07 
  -4   0  16    1.05    0.54 
   3   0 -16    0.83    0.80 
  -3   0  16    2.31    0.69 
   2   0 -16   10.21    1.31 
   2   0 -16    8.60    0.94 
  -2   0  16    7.02    0.98 
   2   0 -16    6.49    0.91 
  -1   0  16   17.53    1.55 
   1   0 -16   15.30    1.36 
  -1   0  16   14.51    1.37 
   1   0 -16   14.75    1.52 
   0   0  16    1.49    0.56 
   0   0 -16    1.94    0.63 
   0   0  16    1.58    0.64 
   0   0 -16    0.85    0.57 
   0   0 -16    2.19    0.68 
   1   0  16   48.88    3.08 
  -1   0 -16   54.73    3.59 
  -1   0 -16   50.67    3.25 
  -2   0 -16    6.84    1.25 
   3   0  16    1.65    0.98 
  -3   0 -16    1.31    0.87 
  -4   0 -16    3.41    1.07 
  -4  -1  16    0.34    0.53 
   4  -1 -16    0.55    0.81 
  -4   1  16    0.14    0.48 
   4   1 -16    0.23    0.68 
   3  -1 -16    0.51    0.69 
  -3  -1  16    1.71    0.63 
  -3   1  16    1.14    0.58 
   3   1 -16    2.37    0.84 
   2  -1 -16    1.59    0.58 
  -2  -1  16    2.66    0.71 
   2  -1 -16    1.32    0.70 
   2  -1 -16    1.58    0.56 
   2   1 -16    1.93    0.69 
   2   1 -16    1.70    0.57 
  -2   1  16    2.94    0.76 
   2   1 -16    1.73    0.82 
  -1  -1  16   10.86    1.20 
   1  -1 -16   13.28    1.37 
  -1  -1  16   13.53    1.38 
   1  -1 -16   10.79    1.17 
   1   1 -16   13.23    1.22 
   1   1 -16   14.61    1.47 
  -1   1  16   13.08    1.27 
   0  -1 -16    1.24    0.53 
   0  -1  16    0.40    0.50 
   0  -1 -16    1.04    0.45 
   0  -1  16    0.78    0.49 
   0   1 -16    0.33    0.47 
   0   1  16    0.44    0.42 
   0   1 -16    0.42    0.47 
   0   1  16    0.54    0.53 
   0   1 -16    0.45    0.45 
  -1  -1 -16    1.97    0.83 
  -1  -1 -16    2.31    0.68 
   1  -1  16    2.12    0.60 
  -1   1 -16    1.31    0.75 
  -1   1 -16    2.11    0.67 
   1   1  16    2.49    0.58 
  -2  -1 -16    1.19    0.78 
  -2   1 -16    1.95    0.86 
  -3  -1 -16   -0.46    0.58 
   3   1  16    0.75    0.73 
   3   1  16   -1.09    0.44 
  -3   1 -16   -0.41    0.42 
  -4  -1 -16    1.88    0.84 
   4  -1  16    1.19    1.09 
  -4   1 -16    2.18    1.02 
  -4  -2  16   -0.21    0.61 
  -4  -2  16   -0.24    0.42 
   4  -2 -16    0.49    0.81 
  -4   2  16    0.20    0.47 
   4   2 -16   -0.70    0.83 
  -3  -2  16    8.81    1.09 
   3  -2 -16   11.85    1.51 
  -3   2  16    8.91    1.15 
   3   2 -16   10.84    1.63 
   2  -2 -16    3.30    0.76 
   2  -2 -16    2.30    0.63 
   2  -2 -16    1.99    0.74 
  -2  -2  16    1.33    0.59 
   2   2 -16    2.10    0.59 
   2   2 -16    2.50    0.95 
  -2   2  16    2.09    0.73 
  -1  -2  16    1.51    0.57 
  -1  -2  16    0.77    0.64 
   1  -2 -16    0.19    0.48 
   1  -2 -16    1.56    0.64 
  -1   2  16    0.51    0.51 
   1   2 -16    0.91    0.53 
   1   2 -16    1.42    0.61 
   1   2 -16    0.80    0.50 
   0  -2  16    5.80    0.91 
   0  -2  16    5.51    0.89 
   0  -2 -16    5.67    0.89 
   0  -2 -16    6.06    0.89 
   0   2  16    5.52    0.80 
   0   2 -16    6.20    0.90 
   0   2 -16    6.12    0.90 
   0   2  16    6.05    0.93 
   0   2 -16    5.16    0.98 
  -1  -2 -16   10.16    1.16 
  -1   2 -16   10.15    1.38 
  -1   2 -16    9.94    1.10 
   1   2  16    8.98    0.92 
  -2  -2 -16    7.76    1.09 
  -2   2 -16    4.74    1.02 
   2   2  16    8.13    1.29 
  -2   2 -16    5.14    0.90 
  -3  -2 -16    6.70    1.24 
  -3   2 -16    6.13    1.19 
   3   2  16    5.64    1.13 
   3   2  16    9.77    2.00 
   4  -2  16   -0.11    0.86 
  -4   2 -16    0.06    0.56 
  -4  -3  16    0.19    0.46 
  -4  -3  16    1.17    1.04 
   4  -3 -16    0.26    0.84 
   4   3 -16    0.16    0.75 
  -4   3  16    0.65    0.58 
  -3  -3  16    4.18    0.82 
  -3  -3  16    4.52    1.23 
   3  -3 -16    2.97    0.92 
   3   3 -16    2.12    1.07 
  -3   3  16    3.58    0.86 
   3   3 -16    2.96    0.29 
   3   3 -16    3.43    0.34 
   2  -3 -16   -0.04    0.43 
  -2  -3  16    0.82    0.52 
   2  -3 -16    1.13    0.60 
  -2   3  16    0.54    0.59 
   2   3 -16    0.15    0.40 
   2   3 -16    0.29    0.68 
  -1  -3  16    2.11    0.78 
   1  -3 -16    1.83    0.64 
  -1  -3  16    1.45    0.53 
   1  -3 -16    1.57    0.54 
   1   3 -16    2.60    0.71 
   1   3 -16    1.93    0.59 
   1   3 -16    0.86    0.53 
  -1   3  16    1.01    0.61 
   0  -3  16    4.36    0.89 
   0  -3  16    5.63    0.86 
   0  -3 -16    6.43    0.87 
   0  -3 -16    5.53    0.91 
   0   3 -16    3.50    0.91 
   0   3  16    6.41    0.97 
   0   3 -16    5.49    0.98 
  -1  -3 -16    0.61    0.44 
  -1   3 -16    0.80    0.69 
   1   3  16    0.70    0.41 
  -1   3 -16    0.91    0.57 
   2  -3  16   10.45    1.13 
  -2  -3 -16    8.66    1.18 
  -2   3 -16    8.55    1.28 
  -2   3 -16   11.41    1.16 
   2   3  16   10.76    1.67 
  -3   3 -16   17.28    2.00 
   3   3  16   16.41    1.86 
   4  -3  16    1.78    1.04 
  -4   3 -16    0.11    0.84 
   4  -4 -16    2.69    1.09 
  -4  -4  16    3.00    1.18 
  -4  -4  16    1.29    0.66 
   4   4 -16    1.47    1.13 
  -4   4  16    2.60    0.86 
  -3  -4  16    0.98    0.96 
  -3  -4  16    0.62    0.57 
   3  -4 -16    0.11    0.58 
  -3   4  16    0.90    0.69 
   3   4 -16    0.90    0.29 
   3   4 -16    0.03    0.91 
   3   4 -16    0.98    0.31 
  -2  -4  16    2.96    0.64 
   2  -4 -16    1.85    0.65 
  -2  -4  16    3.52    1.18 
   2  -4 -16    2.30    0.73 
  -2   4  16    2.49    0.81 
   2   4 -16    1.76    0.56 
   2   4 -16    2.75    1.02 
   2   4 -16    3.29    0.66 
  -1  -4  16    1.84    0.79 
  -1  -4  16    1.61    0.60 
  -1  -4  16    2.94    0.85 
   1  -4 -16    1.52    0.54 
   1  -4 -16    2.41    0.72 
   1   4 -16    1.95    0.67 
   1   4 -16    0.06    0.59 
  -1   4  16    1.23    0.68 
   0  -4  16    2.58    0.83 
   0  -4 -16    2.48    0.66 
   0  -4 -16    2.50    0.75 
   0  -4  16    4.38    1.00 
   0   4 -16    2.17    0.71 
   0   4 -16    2.46    0.79 
   0   4  16    1.40    0.77 
  -1  -4 -16    5.29    0.95 
   1  -4  16    4.85    0.93 
   1   4  16    5.74    0.70 
  -1   4 -16    5.90    0.90 
   1   4  16    6.02    1.34 
  -1   4 -16    6.14    1.14 
   2  -4  16    0.78    0.59 
  -2  -4 -16    0.26    0.53 
  -2   4 -16   -0.08    0.64 
   2   4  16    0.37    0.97 
   2   4  16    0.50    0.69 
  -2   4 -16    0.54    0.53 
  -3   4 -16    0.24    0.37 
  -3   4 -16    1.64    0.82 
   3   4  16    0.70    0.85 
  -4   4 -16    1.11    0.82 
  -4  -5  16    5.41    0.96 
  -4  -5  16    5.69    1.39 
  -4   5  16    5.92    1.17 
   4   5 -16    7.00    1.70 
  -3  -5  16    2.69    0.75 
   3  -5 -16    1.77    0.85 
  -3  -5  16    1.42    1.09 
   3   5 -16    1.67    0.41 
  -3   5  16    2.13    0.79 
   3   5 -16    2.16    0.44 
   3   5 -16    1.36    0.87 
  -2  -5  16   17.69    2.06 
   2  -5 -16   14.52    1.43 
   2  -5 -16   15.28    1.53 
  -2  -5  16   16.96    1.54 
  -2   5  16   15.77    1.68 
   2   5 -16   16.93    1.39 
   2   5 -16   14.31    1.91 
   2   5 -16   15.90    1.34 
  -1  -5  16    7.21    1.38 
  -1  -5  16   10.71    1.21 
   1  -5 -16    9.23    1.07 
   1  -5 -16   10.51    1.22 
   1   5 -16   12.68    1.27 
  -1   5  16   10.73    1.40 
   1   5 -16   10.64    1.48 
   0  -5  16    2.45    0.81 
   0  -5 -16    1.61    0.67 
   0  -5  16    2.18    0.81 
   0   5  16    1.20    0.74 
   0   5 -16    1.16    0.66 
   0   5 -16    0.88    0.68 
  -1  -5 -16    1.94    0.76 
   1  -5  16    1.89    0.77 
  -1   5 -16    1.94    0.76 
   1   5  16    4.07    1.22 
  -1   5 -16    2.43    0.88 
  -2  -5 -16    6.58    0.98 
   2  -5  16    5.49    0.96 
  -2   5 -16    4.45    0.90 
  -2   5 -16    4.74    1.19 
   2   5  16    4.19    1.20 
  -3   5 -16    3.02    1.15 
  -3   5 -16    3.14    0.86 
   3   5  16    1.17    0.91 
  -4   5 -16    2.04    0.69 
  -4   5 -16    3.52    1.13 
  -4  -6  16    4.05    1.52 
  -4  -6  16    5.02    1.00 
   4   6 -16    5.47    1.72 
  -4   6  16    4.53    1.16 
  -3  -6  16    7.10    1.07 
   3  -6 -16    8.04    1.16 
  -3  -6  16    7.12    1.63 
   3   6 -16    8.08    1.54 
   3   6 -16    7.66    1.09 
   3   6 -16    7.75    0.74 
  -3   6  16    8.53    1.36 
  -2  -6  16    3.47    0.73 
  -2  -6  16    3.02    1.17 
   2  -6 -16    4.64    0.89 
   2  -6 -16    4.46    0.82 
   2   6 -16    4.30    1.33 
  -2   6  16    2.60    0.83 
   2   6 -16    3.16    0.71 
   2   6 -16    3.67    0.75 
  -1  -6  16    1.76    0.66 
  -1  -6  16    1.90    0.97 
   1  -6 -16    1.23    0.52 
   1  -6 -16    1.78    0.72 
   1   6 -16    1.84    0.64 
  -1   6  16    0.59    0.76 
  -1   6  16    2.36    1.02 
   1   6 -16    2.28    0.83 
   0  -6  16    1.76    0.88 
   0  -6 -16    1.41    0.67 
   0   6 -16    2.01    0.73 
   0   6  16    2.60    0.94 
   0   6 -16    1.62    0.74 
  -1  -6 -16    5.24    1.04 
   1  -6  16    6.72    1.16 
  -1   6 -16    4.44    0.98 
   1   6  16   10.18    1.31 
  -1   6 -16    6.58    1.01 
   1   6  16    8.77    1.74 
   2  -6  16   12.49    1.42 
  -2  -6 -16   10.34    1.39 
  -2   6 -16   15.26    1.47 
  -2   6 -16   13.51    1.80 
   2   6  16   14.37    1.80 
   3   6  16    2.51    1.12 
  -3   6 -16    3.09    0.87 
  -3   6 -16    2.27    0.92 
  -4   6 -16    1.76    1.09 
  -4   6 -16    0.91    0.65 
  -4  -7  16   -0.50    0.68 
  -4  -7  16    1.50    0.72 
   4   7 -16   -0.11    0.74 
  -4   7  16   -0.24    0.78 
  -3  -7  16    0.44    0.56 
  -3  -7  16    1.47    0.99 
  -3   7  16    2.76    1.01 
   3   7 -16    1.04    0.43 
   3   7 -16    1.39    1.00 
  -3   7  16    3.17    1.03 
  -2  -7  16    7.91    1.61 
   2  -7 -16    6.01    0.91 
  -2  -7  16    5.89    0.99 
   2  -7 -16    7.27    1.04 
   2   7 -16    5.77    1.48 
   2   7 -16    4.26    0.80 
  -2   7  16    6.52    1.27 
  -2   7  16    6.96    1.23 
   1  -7 -16    0.65    0.46 
  -1  -7  16    2.31    1.08 
   1  -7 -16    2.27    0.82 
  -1   7  16    1.16    1.02 
   1   7 -16    2.92    0.80 
  -1   7  16    1.51    0.97 
   1   7 -16    2.31    0.99 
   0  -7 -16    5.41    1.01 
   0  -7  16    4.18    0.98 
   0   7 -16    5.27    0.93 
   0   7 -16    5.84    1.17 
   0   7  16    4.19    1.16 
   0   7  16    6.96    1.32 
  -1  -7 -16    7.12    1.19 
   1  -7  16    7.77    1.27 
   1   7  16    6.24    1.21 
  -1   7 -16   10.77    1.37 
  -1   7 -16    7.64    1.30 
  -2  -7 -16   -0.05    0.59 
   2  -7  16    2.68    1.53 
  -2   7 -16    0.03    0.54 
  -2   7 -16    0.47    0.60 
   2   7  16    0.74    0.87 
  -2   7 -16    0.41    0.56 
  -3   7 -16    2.05    0.91 
  -3   7 -16    3.08    0.92 
   3   7  16    2.37    1.11 
  -4   7 -16   -0.70    0.87 
  -4   7 -16    0.01    0.58 
  -4  -8  16    1.02    1.39 
  -4  -8  16    1.00    0.75 
  -4   8  16    0.10    0.75 
   4   8 -16   -0.30    0.89 
  -3  -8  16    2.20    0.82 
  -3  -8  16    3.73    1.35 
   3   8 -16    1.92    0.51 
  -3   8  16    3.06    1.01 
   3   8 -16    0.39    1.14 
  -3   8  16    1.77    1.06 
   2  -8 -16    2.50    0.80 
  -2  -8  16    3.59    1.43 
   2  -8 -16    1.77    0.64 
  -2   8  16    2.71    1.20 
   2   8 -16    2.04    1.12 
   2   8 -16    2.45    0.71 
  -2   8  16    3.09    1.12 
  -1  -8  16   24.79    2.37 
   1  -8 -16   21.21    1.95 
   1  -8 -16   20.71    1.63 
  -1   8  16   21.43    2.16 
  -1   8  16   17.80    2.25 
   1   8 -16   21.23    2.27 
   1   8 -16   18.63    1.80 
   0  -8  16    0.29    0.85 
   0  -8 -16    1.07    0.65 
   0   8 -16    0.30    0.59 
   0   8  16    1.42    0.98 
   0   8 -16    0.45    0.53 
  -1  -8 -16    1.12    0.74 
   1  -8  16    0.80    0.80 
  -1   8 -16    1.43    0.81 
  -1   8 -16    0.99    0.69 
   1   8  16    2.28    0.94 
  -2  -8 -16    1.86    0.86 
  -2   8 -16    0.94    0.62 
   2   8  16    1.04    0.94 
  -2   8 -16    1.54    0.71 
  -2   8 -16    0.91    0.69 
   3   8  16    0.58    0.91 
  -3   8 -16    0.28    0.51 
  -3   8 -16    0.97    0.72 
   3  -9 -16    0.24    0.21 
   3  -9 -16    0.91    0.28 
  -3  -9  16   -0.24    1.15 
   3   9 -16   -0.22    0.40 
   3   9 -16    0.41    1.27 
  -3   9  16    0.11    0.87 
  -3   9  16    0.83    0.83 
   2  -9 -16    2.05    0.64 
  -2  -9  16    0.71    1.21 
   2  -9 -16    0.45    0.67 
  -2   9  16    2.74    1.07 
   2   9 -16    2.12    1.14 
  -2   9  16    2.87    1.27 
   2   9 -16    2.24    0.72 
  -1  -9  16    6.30    1.31 
   1  -9 -16    7.33    0.87 
   1  -9 -16    4.19    1.07 
   1   9 -16    4.91    0.99 
  -1   9  16    4.84    1.41 
   1   9 -16    3.92    1.20 
   0  -9  16    2.17    1.08 
   0  -9 -16    2.89    0.98 
   0   9 -16    2.70    1.01 
   0   9 -16    1.69    0.71 
   0   9  16    1.68    1.10 
   1  -9  16    0.45    0.72 
  -1  -9 -16    0.27    0.70 
  -1   9 -16   -0.16    0.47 
   1   9  16   -0.23    0.91 
  -1   9 -16   -0.65    0.56 
  -1   9 -16    0.39    0.57 
  -2  -9 -16    0.98    0.72 
  -2   9 -16    0.13    0.45 
   2   9  16    0.08    0.77 
  -2   9 -16    0.45    0.73 
  -2   9 -16    0.29    0.63 
  -3   9 -16    5.92    1.27 
  -3   9 -16    4.24    1.08 
   3   9  16    6.35    1.64 
  -3 -10  16   -0.30    1.11 
   3 -10 -16   -0.12    0.30 
   3  10 -16    1.25    1.19 
  -3  10  16    1.45    1.04 
   3  10 -16   -0.41    0.40 
   2 -10 -16    6.08    1.08 
  -2 -10  16    4.22    1.56 
  -2  10  16    5.30    1.53 
   2  10 -16    6.44    1.64 
   2  10 -16    3.55    0.81 
   1 -10 -16   10.18    1.06 
   1 -10 -16   10.70    1.44 
  -1 -10  16   10.25    1.65 
  -1  10  16   10.22    1.76 
   1  10 -16   11.18    1.66 
   1  10 -16    7.91    1.27 
   0 -10  16    0.02    0.89 
   0 -10 -16   -0.01    0.61 
   0  10 -16   -0.13    0.61 
   0  10  16   -0.14    0.69 
   0  10 -16   -0.46    0.51 
   1 -10  16    1.86    1.02 
  -1 -10 -16    0.83    0.77 
  -1  10 -16    1.57    0.77 
  -1  10 -16    0.84    0.77 
   1  10  16    1.47    1.17 
  -2 -10 -16    0.99    0.82 
  -2  10 -16    1.20    0.93 
   2  10  16   -0.07    0.92 
  -2  10 -16    0.88    0.76 
  -2  10 -16    0.06    0.47 
  -3  10 -16    1.25    0.82 
   3  10  16    1.51    1.15 
  -3  10 -16   -0.65    0.48 
  -3 -11  16   -0.38    0.82 
   3 -11 -16   -0.29    0.32 
  -3  11  16    0.75    1.00 
   3  11 -16    2.58    1.48 
   2 -11 -16    2.99    0.91 
  -2 -11  16    3.61    1.42 
  -2  11  16    4.05    1.42 
   2  11 -16    3.19    1.23 
   1 -11 -16    0.68    0.74 
  -1 -11  16   -0.67    0.63 
   1 -11 -16    0.40    0.46 
  -1  11  16    0.89    0.96 
   1  11 -16    0.62    0.98 
   1  11 -16   -0.72    0.51 
   0 -11 -16   -1.46    0.57 
   0 -11  16    0.93    1.09 
   0  11 -16   -0.03    0.79 
   0  11 -16    0.21    0.62 
   0  11  16    0.66    0.83 
   1 -11  16    5.06    1.43 
  -1 -11 -16    6.56    1.43 
   1  11  16    6.85    1.79 
  -1  11 -16    5.70    1.19 
  -1  11 -16    5.97    1.45 
  -2 -11 -16    0.13    0.75 
  -2  11 -16    0.13    0.79 
  -2  11 -16    0.71    0.82 
   2  11  16   -0.46    0.96 
   2 -12 -16   -0.60    0.61 
  -2 -12  16   -0.09    1.19 
   2  12 -16   -0.59    0.63 
  -2  12  16    0.18    1.11 
   1 -12 -16    3.83    1.18 
  -1 -12  16    5.09    1.69 
  -1  12  16    7.35    1.71 
   1  12 -16    5.70    1.50 
   1  12 -16    7.28    1.24 
   0 -12  16    4.28    1.47 
   0 -12 -16    3.79    1.17 
   0  12 -16    4.15    1.43 
   0  12  16    2.95    1.39 
  -1 -12 -16    0.93    0.92 
   1 -12  16    2.50    1.26 
  -1  12 -16   -0.23    0.56 
  -1  12 -16    0.82    0.74 
   1  12  16    0.86    0.88 
  -2 -12 -16    2.09    0.97 
   2  12  16    4.16    1.63 
  -2  12 -16    1.62    0.97 
  -2  12 -16    2.07    1.01 
  -1 -13  16    1.84    1.45 
   1 -13 -16    3.22    1.13 
  -1  13  16    1.59    1.09 
   1  13 -16    4.28    1.51 
   0 -13 -16   -0.75    0.68 
   0 -13  16   -0.49    0.99 
   0  13 -16    0.26    1.01 
   0  13  16   -0.26    1.04 
  -1 -13 -16    0.74    0.89 
   1 -13  16    2.97    1.29 
   1  13  16    0.46    1.15 
  -1  13 -16    0.45    0.98 
   4   0 -17    0.38    0.93 
  -4   0  17    0.30    0.53 
   3   0 -17    0.26    0.75 
  -3   0  17   -0.92    0.40 
   2   0 -17   -0.13    0.42 
  -2   0  17   -0.31    0.39 
   2   0 -17   -0.16    0.58 
  -1   0  17   -0.37    0.42 
  -1   0  17    0.03    0.50 
   1   0 -17    0.42    0.48 
   1   0 -17   -0.14    0.35 
   0   0  17   -0.06    0.48 
   0   0 -17    0.58    0.49 
   0   0 -17    0.17    0.42 
   0   0 -17    0.40    0.39 
  -1   0 -17   -0.32    0.39 
  -1   0 -17   -0.23    0.43 
   1   0  17    0.14    0.41 
  -1   0 -17    0.03    0.31 
  -2   0 -17   -0.21    0.40 
  -3   0 -17   -0.08    0.54 
  -4   0 -17    0.76    0.94 
  -4  -1  17    1.71    0.67 
   4  -1 -17    2.62    1.11 
  -4   1  17    1.45    0.69 
   4   1 -17    2.05    1.15 
  -3  -1  17    2.26    0.75 
   3  -1 -17    1.22    0.87 
  -3   1  17    1.18    0.62 
   3   1 -17    1.99    1.02 
   2  -1 -17    0.12    0.42 
   2  -1 -17    0.00    0.51 
  -2  -1  17    0.44    0.49 
   2   1 -17   -0.21    0.40 
  -2   1  17   -0.50    0.28 
   2   1 -17    0.59    0.67 
  -1  -1  17    0.04    0.52 
   1  -1 -17    0.54    0.56 
  -1  -1  17    0.15    0.50 
   1  -1 -17    0.35    0.49 
   1   1 -17    0.28    0.46 
  -1   1  17    0.25    0.53 
   1   1 -17    0.68    0.53 
   0  -1  17    3.68    0.76 
   0  -1 -17    2.54    0.73 
   0  -1 -17    1.99    0.69 
   0   1  17    3.26    0.75 
   0   1 -17    3.41    0.73 
   0   1 -17    1.76    0.77 
   0   1 -17    3.09    0.76 
  -1  -1 -17    0.32    0.52 
  -1  -1 -17    0.10    0.53 
  -1  -1 -17    0.78    0.54 
  -1   1 -17    0.46    0.59 
  -1   1 -17    0.85    0.45 
   1   1  17    1.11    0.50 
  -2  -1 -17    0.37    0.53 
  -2  -1 -17   -0.51    0.41 
  -2   1 -17   -0.17    0.27 
  -2   1 -17    0.72    0.82 
  -3  -1 -17    4.07    1.15 
   3   1  17    1.53    0.83 
  -3   1 -17    2.88    1.08 
  -4  -1 -17    0.75    0.77 
  -4   1 -17    0.95    0.75 
   4  -2 -17    0.36    0.87 
  -4  -2  17    1.68    0.68 
  -4  -2  17    1.80    0.96 
  -4   2  17    1.09    0.69 
   4   2 -17    1.65    0.98 
   3  -2 -17    0.53    0.66 
  -3  -2  17   -0.20    0.50 
   3   2 -17   -0.09    0.23 
  -3   2  17    0.18    0.53 
   3   2 -17    0.80    0.89 
   3   2 -17    0.16    0.20 
   2  -2 -17    1.75    0.64 
   2  -2 -17    1.96    0.77 
  -2  -2  17    2.80    0.76 
  -2   2  17    2.47    0.77 
   2   2 -17    2.61    0.65 
   2   2 -17    1.74    0.77 
  -1  -2  17    9.07    1.22 
  -1  -2  17    7.50    1.02 
   1  -2 -17    7.81    1.10 
   1  -2 -17    7.77    1.05 
  -1   2  17    8.98    1.19 
   1   2 -17    9.45    1.03 
   1   2 -17    7.17    1.05 
   1   2 -17    7.89    1.12 
   0  -2 -17    0.07    0.45 
   0  -2 -17    0.66    0.51 
   0  -2  17   -0.23    0.45 
   0   2  17   -0.22    0.38 
   0   2 -17    0.56    0.59 
   0   2 -17    0.17    0.53 
  -1  -2 -17    0.33    0.51 
   1   2  17    0.17    0.40 
  -1   2 -17    0.63    0.57 
  -1   2 -17    0.01    0.47 
  -2  -2 -17   12.18    1.39 
  -2   2 -17   10.83    1.26 
  -2   2 -17    9.68    1.55 
   3   2  17    3.84    1.15 
  -3   2 -17    1.25    0.70 
  -4   2 -17   -0.19    0.89 
   4  -3 -17   -0.28    0.75 
  -4  -3  17    0.14    0.54 
  -4  -3  17    1.44    1.11 
   4   3 -17    0.75    1.08 
  -4   3  17   -0.49    0.55 
  -3  -3  17    2.93    1.05 
  -3  -3  17    3.51    0.83 
   3  -3 -17    5.36    1.12 
   3   3 -17    3.53    0.44 
   3   3 -17    3.09    0.44 
   3   3 -17    1.57    1.01 
  -3   3  17    3.56    0.93 
   2  -3 -17    1.41    0.68 
   2  -3 -17    1.23    0.57 
  -2  -3  17    0.88    0.48 
   2   3 -17    0.71    0.47 
   2   3 -17    1.60    0.78 
  -2   3  17    0.38    0.63 
   1  -3 -17   10.99    1.27 
   1  -3 -17   11.27    1.30 
  -1  -3  17   11.36    1.20 
  -1  -3  17   11.48    1.63 
   1   3 -17   13.38    1.34 
   1   3 -17   14.65    1.31 
   1   3 -17   11.14    1.39 
  -1   3  17   13.76    1.42 
   0  -3  17    0.39    0.52 
   0  -3 -17    0.35    0.46 
   0  -3 -17    0.55    0.51 
   0   3 -17    1.25    0.67 
   0   3 -17    0.97    0.52 
  -1  -3 -17    1.15    0.63 
  -1   3 -17    0.88    0.48 
  -1   3 -17    1.18    0.78 
  -2  -3 -17   48.64    3.26 
   2  -3  17   47.33    3.09 
  -2   3 -17   47.80    3.56 
  -2   3 -17   45.32    3.16 
  -3   3 -17    0.72    0.90 
  -3   3 -17    2.93    0.86 
   3   3  17    0.42    0.93 
  -4   3 -17    0.64    0.70 
  -4  -4  17    5.60    0.97 
  -4  -4  17    3.11    1.25 
   4   4 -17    3.98    1.32 
  -4   4  17    3.01    0.92 
  -3  -4  17    1.17    0.57 
  -3  -4  17    1.44    1.04 
   3  -4 -17    1.34    0.85 
  -3   4  17    0.92    0.71 
   3   4 -17    0.55    0.35 
   3   4 -17    0.27    0.32 
   3   4 -17    0.57    0.75 
  -2  -4  17    5.99    1.38 
  -2  -4  17    4.58    0.90 
   2  -4 -17    5.29    0.91 
   2  -4 -17    4.59    0.95 
   2   4 -17    3.71    1.06 
   2   4 -17    4.94    0.77 
  -2   4  17    5.10    1.07 
   2   4 -17    4.75    0.79 
   1  -4 -17    2.19    0.69 
  -1  -4  17    2.91    0.92 
  -1  -4  17    2.43    0.74 
   1  -4 -17    2.43    0.70 
  -1   4  17    3.20    0.92 
   1   4 -17    1.05    0.66 
   1   4 -17    3.24    1.01 
   0  -4  17    0.11    0.53 
   0  -4 -17    0.11    0.46 
   0  -4 -17    0.24    0.44 
   0  -4  17   -0.16    0.60 
   0   4 -17   -0.61    0.28 
   0   4 -17    0.32    0.55 
  -1  -4 -17   18.65    1.80 
   1  -4  17   20.85    1.93 
  -1   4 -17   22.15    1.94 
  -1   4 -17   22.74    2.10 
   2  -4  17   15.80    1.53 
  -2  -4 -17   14.80    1.61 
   2   4  17   14.66    1.76 
  -2   4 -17   18.01    1.61 
  -2   4 -17   17.15    1.94 
  -3   4 -17    9.19    1.12 
  -3   4 -17    7.47    1.34 
   3   4  17    7.20    1.40 
  -4   4 -17   -0.31    0.61 
  -4   4 -17   -0.42    0.50 
  -4  -5  17    1.51    0.70 
  -4  -5  17    1.81    1.28 
  -4   5  17    1.07    0.81 
   4   5 -17    2.07    1.26 
  -3  -5  17    9.42    1.78 
   3  -5 -17    8.43    1.28 
  -3  -5  17    8.51    1.17 
   3   5 -17    8.83    0.79 
  -3   5  17    7.96    1.30 
   3   5 -17    9.20    1.59 
   2  -5 -17    2.02    0.74 
   2  -5 -17    3.01    0.84 
  -2  -5  17    3.01    1.20 
  -2  -5  17    2.51    0.76 
   2   5 -17    3.43    0.72 
  -2   5  17    2.39    0.88 
   2   5 -17    4.80    1.12 
   2   5 -17    2.96    0.72 
  -1  -5  17    0.76    0.83 
   1  -5 -17    1.27    0.58 
   1  -5 -17    1.33    0.67 
   1   5 -17    1.91    0.71 
   1   5 -17    1.30    0.78 
  -1   5  17    0.99    0.97 
   0  -5  17    2.14    0.76 
   0  -5 -17    1.04    0.63 
   0  -5 -17    0.58    0.49 
   0  -5  17    0.24    0.65 
   0   5  17    0.86    0.80 
   0   5 -17    1.29    0.72 
   0   5 -17    0.64    0.68 
   1  -5  17    4.07    1.04 
  -1  -5 -17    4.80    0.99 
  -1   5 -17    4.72    0.97 
  -1   5 -17    2.94    0.81 
  -2  -5 -17   -0.08    0.60 
   2  -5  17   -1.06    0.55 
  -2   5 -17    0.69    0.63 
  -2   5 -17    0.30    0.40 
   2   5  17    1.05    0.89 
   3   5  17    2.15    1.02 
  -3   5 -17    0.79    0.66 
  -3   5 -17    0.57    0.92 
  -4   5 -17    0.71    0.98 
  -4   5 -17    0.63    0.65 
  -4  -6  17    0.97    0.69 
  -4  -6  17   -0.33    1.08 
  -4   6  17    0.94    0.89 
   4   6 -17    0.90    0.95 
  -3  -6  17    0.12    0.78 
  -3  -6  17    1.39    0.67 
   3  -6 -17    2.37    0.83 
   3   6 -17    1.90    0.47 
  -3   6  17    3.16    1.08 
   3   6 -17    3.21    1.40 
   2  -6 -17    6.13    1.01 
   2  -6 -17    8.94    1.13 
  -2  -6  17    3.71    1.34 
  -2  -6  17    7.28    1.11 
   2   6 -17    7.25    1.39 
   2   6 -17    6.49    0.92 
  -2   6  17    7.55    1.22 
   2   6 -17    8.00    1.00 
   1  -6 -17    8.32    1.20 
   1  -6 -17    8.08    1.04 
  -1  -6  17    8.59    1.53 
  -1   6  17    8.07    1.61 
   1   6 -17    9.14    1.17 
   1   6 -17    9.40    1.38 
   0  -6 -17   -0.04    0.47 
   0  -6  17    0.25    0.78 
   0   6 -17    0.50    0.52 
   0   6 -17   -0.19    0.36 
   1  -6  17    0.67    0.69 
  -1  -6 -17    1.43    0.73 
  -1   6 -17    1.63    0.78 
  -1   6 -17    0.61    0.68 
   1   6  17    2.31    1.00 
  -2  -6 -17    7.02    1.19 
  -2   6 -17    5.47    1.08 
  -2   6 -17    7.68    1.41 
   2   6  17    4.94    1.43 
  -3   6 -17    1.04    0.55 
   3   6  17    1.33    0.99 
  -3   6 -17    0.80    0.76 
  -3  -7  17    2.22    1.15 
  -3  -7  17    2.42    0.78 
   3   7 -17    2.01    0.51 
  -3   7  17    0.77    0.88 
   3   7 -17    3.00    1.45 
  -3   7  17    2.09    1.07 
   2  -7 -17    0.28    0.60 
  -2  -7  17    0.44    1.00 
   2  -7 -17   -0.17    0.50 
  -2   7  17    0.39    0.82 
   2   7 -17   -0.43    0.40 
  -2   7  17   -0.51    0.73 
   2   7 -17    0.06    0.66 
   1  -7 -17    0.92    0.54 
  -1  -7  17    0.87    0.99 
   1  -7 -17    1.44    0.72 
   1   7 -17    1.53    0.72 
   1   7 -17    0.44    0.64 
   0  -7  17   -0.36    0.73 
   0  -7 -17    0.40    0.63 
   0   7 -17   -0.44    0.50 
   0   7  17   -0.01    0.59 
   0   7 -17    0.82    0.75 
  -1  -7 -17    1.49    0.78 
   1  -7  17    1.83    0.87 
  -1   7 -17    0.61    0.56 
  -1   7 -17    0.72    0.62 
   1   7  17    1.00    0.94 
  -2  -7 -17    1.83    0.90 
   2   7  17    4.55    1.35 
  -2   7 -17    2.48    0.95 
  -2   7 -17    2.53    0.79 
  -3   7 -17   -1.04    0.45 
  -3   7 -17    0.57    0.65 
   3   7  17   -0.33    0.83 
  -3  -8  17    1.36    1.30 
   3  -8 -17    1.80    0.31 
   3   8 -17    1.86    0.53 
   3   8 -17    0.89    1.21 
  -3   8  17    2.20    1.06 
   2  -8 -17    1.54    0.61 
  -2  -8  17    0.99    1.07 
   2  -8 -17    0.66    0.70 
   2   8 -17   -0.31    0.84 
   2   8 -17    1.44    0.69 
   1  -8 -17   -0.50    0.51 
   1  -8 -17   -0.41    0.37 
  -1  -8  17    0.64    0.94 
  -1   8  17    0.54    0.86 
   1   8 -17    0.38    0.57 
   1   8 -17    0.56    0.89 
   0  -8 -17   18.87    1.91 
   0  -8  17   20.62    2.19 
   0   8  17   18.69    2.05 
   0   8 -17   18.63    1.92 
   0   8 -17   20.17    2.05 
  -1  -8 -17    0.08    0.62 
   1  -8  17    0.63    0.76 
  -1   8 -17   -0.40    0.60 
   1   8  17    0.03    0.83 
  -1   8 -17    1.52    0.83 
  -2  -8 -17    2.56    1.01 
  -2   8 -17    1.76    0.79 
   2   8  17    2.83    1.23 
  -2   8 -17    1.51    0.78 
  -2   8 -17    2.22    0.90 
  -3   8 -17    5.20    1.24 
   3   8  17    3.52    1.36 
  -3   8 -17    5.80    1.18 
  -3  -9  17    3.87    1.59 
   3  -9 -17    2.23    0.36 
   3   9 -17    0.19    0.84 
  -3   9  17    1.92    1.03 
   3   9 -17    1.27    0.55 
  -2  -9  17    3.33    1.44 
   2  -9 -17    1.59    0.78 
   2   9 -17    2.81    1.29 
  -2   9  17    0.47    0.91 
  -1  -9  17    1.25    1.02 
   1  -9 -17    0.81    0.76 
   1  -9 -17    0.75    0.50 
   1   9 -17    1.78    1.14 
  -1   9  17    0.88    1.01 
   1   9 -17    1.85    0.75 
   0  -9 -17   31.13    2.61 
   0  -9  17   28.37    2.84 
   0   9 -17   37.12    2.78 
   0   9 -17   31.82    2.81 
   0   9  17   31.87    2.90 
  -1  -9 -17    0.60    0.71 
   1  -9  17   -0.52    0.65 
  -1   9 -17   -0.10    0.47 
  -1   9 -17   -0.24    0.60 
   1   9  17   -0.35    0.90 
  -2  -9 -17    1.26    0.79 
   2   9  17    1.44    1.08 
  -2   9 -17    0.65    0.72 
  -2   9 -17   -0.58    0.55 
  -2   9 -17   -0.04    0.48 
  -3   9 -17    3.38    1.02 
   3   9  17    3.49    1.34 
  -3   9 -17    2.98    1.10 
  -3  10  17    0.77    0.98 
   2 -10 -17    0.45    0.68 
  -2 -10  17    1.94    1.10 
   2  10 -17    0.15    1.07 
  -2  10  17   -0.17    0.88 
  -1 -10  17    0.85    1.12 
   1 -10 -17    1.22    0.87 
   1 -10 -17    1.02    0.52 
  -1  10  17    2.81    1.20 
   1  10 -17    0.81    0.78 
   1  10 -17    1.55    0.73 
   0 -10  17   -0.88    0.77 
   0 -10 -17    1.19    0.84 
   0  10 -17    0.73    0.98 
   0  10  17    1.31    1.09 
   0  10 -17    0.70    0.71 
  -1 -10 -17    1.31    0.86 
   1 -10  17    0.51    0.87 
  -1  10 -17    0.87    0.82 
   1  10  17   -0.35    0.94 
  -1  10 -17    1.08    0.88 
  -2 -10 -17    0.07    0.84 
  -2  10 -17    0.80    0.66 
  -2  10 -17    0.46    0.64 
   2  10  17    0.46    1.09 
  -2 -11  17   -0.86    1.16 
   2 -11 -17    1.34    0.78 
  -2  11  17    0.87    1.12 
   2  11 -17    1.06    1.23 
   1 -11 -17   -0.03    0.52 
   1 -11 -17   -0.38    0.72 
  -1 -11  17   -0.31    0.96 
   1  11 -17    0.27    0.67 
   1  11 -17   -0.15    0.63 
  -1  11  17    0.82    0.90 
   0 -11  17   -0.55    0.90 
   0 -11 -17    1.31    0.96 
   0  11 -17    0.71    0.79 
   0  11  17    0.61    1.10 
   0  11 -17   -1.01    0.55 
   1 -11  17   -0.32    0.83 
  -1 -11 -17    0.51    0.79 
  -1  11 -17    0.71    0.89 
   1  11  17   -0.40    0.90 
  -1  11 -17   -0.33    0.71 
  -2 -11 -17    0.92    0.83 
   2  11  17    1.07    1.29 
  -2  11 -17    0.57    0.70 
  -2  11 -17    0.50    0.85 
  -1 -12  17    1.30    1.35 
   1 -12 -17    0.47    0.85 
   1  12 -17    0.04    0.72 
  -1  12  17   -0.48    0.71 
   1  12 -17    2.00    1.28 
   0 -12  17    0.74    1.15 
   0 -12 -17    2.19    1.04 
   0  12  17    1.58    1.34 
   0  12 -17    0.31    0.80 
   0  12 -17    2.84    1.27 
   1 -12  17    5.49    1.53 
  -1 -12 -17    7.59    1.48 
  -1  12 -17    8.78    1.70 
   1  12  17    6.63    1.86 
  -1  12 -17    4.38    1.38 
   4   0 -18    0.75    1.01 
  -4   0  18    0.98    0.68 
  -3   0  18    2.95    0.84 
   3   0 -18    4.30    1.14 
   3   0 -18    2.36    0.23 
   2   0 -18    5.83    0.89 
   2   0 -18    5.63    1.20 
  -2   0  18    6.08    1.04 
   1   0 -18    0.19    0.44 
  -1   0  18    0.55    0.62 
   1   0 -18    0.50    0.48 
   0   0 -18    8.99    1.09 
   0   0 -18    6.14    1.07 
   0   0  18    7.08    1.03 
  -1   0 -18    1.30    0.81 
  -1   0 -18    1.26    0.60 
  -1   0 -18    2.56    0.78 
  -2   0 -18    0.52    0.64 
  -3   0 -18    1.12    0.78 
  -4   0 -18    0.68    0.82 
   4  -1 -18    0.39    0.94 
  -4  -1  18    0.80    0.64 
  -4   1  18    0.30    0.62 
   4   1 -18    1.21    0.93 
   3  -1 -18    0.45    0.81 
  -3  -1  18   -0.53    0.44 
   3   1 -18    0.52    0.23 
   3   1 -18    0.15    0.28 
   3   1 -18    0.22    0.80 
  -3   1  18    1.11    0.67 
  -2  -1  18    2.98    0.80 
   2  -1 -18    2.40    0.89 
   2  -1 -18    4.08    0.84 
  -2   1  18    2.24    0.78 
   2   1 -18    0.97    0.57 
   2   1 -18    5.08    1.15 
   1  -1 -18    0.83    0.56 
   1  -1 -18    0.41    0.46 
  -1  -1  18    0.87    0.69 
  -1   1  18    0.72    0.61 
   1   1 -18    0.72    0.51 
   1   1 -18    0.16    0.48 
   0  -1 -18    0.73    0.58 
   0  -1  18    0.57    0.65 
   0  -1 -18    1.41    0.63 
   0   1  18    1.12    0.61 
   0   1 -18    1.12    0.59 
   0   1 -18    1.32    0.69 
   0   1 -18    0.64    0.63 
  -1  -1 -18    3.60    0.84 
  -1  -1 -18    3.85    0.78 
  -1   1 -18    4.07    0.93 
  -1   1 -18    6.69    0.93 
  -2  -1 -18   -0.05    0.70 
  -2  -1 -18    0.12    0.46 
  -2   1 -18    0.21    0.40 
  -2   1 -18    0.36    0.63 
  -3  -1 -18    3.38    1.23 
  -3   1 -18    1.20    0.80 
  -4  -1 -18   -0.24    0.62 
  -4   1 -18    0.17    0.73 
   4  -2 -18    1.83    1.11 
  -4  -2  18   -0.47    0.67 
  -4  -2  18    0.52    0.61 
  -4   2  18   -0.38    0.59 
   4   2 -18   -0.03    1.12 
  -3  -2  18    1.06    0.61 
   3  -2 -18    1.35    0.89 
   3   2 -18    1.11    0.95 
   3   2 -18    1.21    0.35 
   3   2 -18    1.02    0.35 
  -3   2  18    1.58    0.75 
   2  -2 -18    3.78    1.02 
   2  -2 -18    1.31    0.65 
  -2  -2  18    3.76    0.74 
  -2   2  18    2.97    0.86 
   2   2 -18    2.66    0.92 
   2   2 -18    3.47    0.74 
   1  -2 -18    0.13    0.53 
   1  -2 -18    0.73    0.51 
   1   2 -18    0.76    0.70 
   1   2 -18    0.39    0.52 
   1   2 -18    0.84    0.53 
   0  -2  18    1.02    0.62 
   0  -2 -18    1.07    0.60 
   0  -2 -18    1.58    0.63 
   0   2 -18    1.09    0.57 
   0   2 -18    0.83    0.56 
   0   2 -18    0.08    0.54 
   0   2  18    1.83    0.58 
  -1  -2 -18    0.78    0.49 
  -1  -2 -18    1.00    0.56 
  -1   2 -18    0.79    0.51 
  -1   2 -18    0.73    0.62 
  -2  -2 -18    1.30    0.69 
  -2   2 -18    0.70    0.81 
  -2   2 -18    1.21    0.59 
  -3   2 -18    4.19    1.29 
   3   2  18    4.26    1.21 
  -3   2 -18    3.54    0.79 
  -4   2 -18   -0.84    0.84 
  -4  -3  18    0.09    0.99 
   4  -3 -18   -1.64    0.80 
  -4  -3  18    0.31    0.59 
   4   3 -18    0.64    0.87 
  -4   3  18    0.76    0.72 
   3  -3 -18    1.46    0.84 
  -3  -3  18    0.81    0.61 
  -3  -3  18    0.61    0.78 
  -3   3  18    1.64    0.75 
   3   3 -18    1.24    0.81 
   3   3 -18    1.03    0.39 
   2  -3 -18    0.92    0.61 
   2  -3 -18    0.88    0.63 
  -2  -3  18    0.85    0.62 
   2   3 -18    1.59    0.81 
  -2   3  18    1.31    0.71 
   2   3 -18   -0.17    0.43 
   1  -3 -18    0.58    0.60 
   1  -3 -18    0.73    0.51 
   1   3 -18    0.71    0.56 
   1   3 -18    0.68    0.57 
   1   3 -18    1.79    0.84 
   0  -3  18    1.23    0.70 
   0  -3 -18    1.37    0.65 
   0  -3 -18    0.30    0.40 
   0   3  18    2.08    0.63 
   0   3 -18    0.51    0.62 
   0   3 -18    1.02    0.57 
  -1  -3 -18    1.40    0.60 
  -1   3 -18    1.77    0.76 
  -1   3 -18    0.48    0.66 
  -2  -3 -18   -0.24    0.51 
   2  -3  18    0.40    0.60 
  -2   3 -18    0.56    0.62 
  -2   3 -18    0.33    0.59 
  -3   3 -18    1.11    0.56 
  -3   3 -18    2.19    0.93 
   3   3  18    1.44    0.99 
  -4   3 -18    2.95    1.10 
  -4  -4  18    1.57    0.77 
  -4  -4  18    1.98    1.12 
   4   4 -18    1.01    1.18 
  -4   4  18    1.38    0.82 
  -3  -4  18   -0.19    0.92 
  -3  -4  18    1.02    0.66 
   3  -4 -18   -0.69    0.60 
  -3   4  18    0.40    0.69 
   3   4 -18    0.21    0.35 
   3   4 -18   -0.17    0.91 
   2  -4 -18   -0.32    0.47 
  -2  -4  18    0.32    0.55 
   2  -4 -18    0.15    0.56 
  -2  -4  18   -0.23    0.79 
   2   4 -18    0.19    0.60 
  -2   4  18    0.60    0.56 
   2   4 -18    0.51    0.49 
   2   4 -18   -0.13    0.40 
   1  -4 -18    4.85    0.93 
  -1  -4  18    2.92    1.11 
   1  -4 -18    3.28    0.84 
   1   4 -18    2.09    0.90 
   1   4 -18    2.37    0.75 
   1   4 -18    3.84    0.80 
   0  -4  18    1.50    0.88 
   0  -4 -18    0.76    0.62 
   0  -4 -18    0.04    0.43 
   0  -4  18    1.87    0.78 
   0   4 -18    1.35    0.77 
   0   4 -18    0.74    0.67 
   1  -4  18    0.02    0.64 
  -1  -4 -18   -0.03    0.51 
  -1   4 -18    0.01    0.39 
  -1   4 -18    0.54    0.68 
  -2  -4 -18   10.11    1.33 
  -2   4 -18    9.22    1.54 
   2   4  18    8.23    1.42 
  -2   4 -18    7.91    1.12 
   3   4  18   -0.19    0.82 
  -3   4 -18    0.13    0.60 
  -3   4 -18   -0.06    0.57 
   3  -5 -18    5.94    1.21 
  -3  -5  18    6.49    1.06 
  -3  -5  18    4.02    1.50 
  -3   5  18    7.10    1.32 
   3   5 -18    7.67    0.76 
   3   5 -18    7.79    1.74 
   2  -5 -18    0.76    0.66 
  -2  -5  18    1.10    1.05 
   2  -5 -18    0.93    0.66 
   2   5 -18    1.22    0.77 
  -2   5  18    0.00    0.68 
   2   5 -18    0.79    0.54 
   2   5 -18   -0.23    0.45 
   1  -5 -18    3.37    0.91 
  -1  -5  18    3.36    1.23 
   1  -5 -18    3.29    0.82 
   1   5 -18    2.51    0.96 
   1   5 -18    2.91    0.83 
   0  -5  18    9.80    1.36 
   0  -5 -18   10.23    1.32 
   0  -5 -18   11.94    1.24 
   0   5 -18    9.17    1.24 
   0   5 -18    8.16    1.25 
  -1  -5 -18    0.93    0.63 
   1  -5  18    2.02    0.82 
  -1   5 -18    1.02    0.59 
  -1   5 -18    1.09    0.62 
  -2  -5 -18    2.33    0.86 
   2   5  18    4.98    1.35 
  -2   5 -18    4.18    1.04 
  -2   5 -18    4.80    1.05 
  -3   5 -18    3.87    0.87 
   3   5  18    4.04    1.29 
  -3   5 -18    4.92    1.45 
   3  -6 -18    0.25    0.74 
  -3  -6  18    0.35    0.66 
  -3  -6  18    0.71    0.90 
   3   6 -18    0.57    0.41 
   3   6 -18    0.15    1.11 
  -3   6  18   -0.35    0.79 
   2  -6 -18    0.37    0.65 
   2  -6 -18    1.08    0.63 
  -2  -6  18    0.62    1.03 
   2   6 -18    0.70    0.53 
   2   6 -18   -0.03    0.64 
   1  -6 -18   -0.02    0.45 
   1  -6 -18    0.30    0.56 
  -1  -6  18    0.17    0.82 
   1   6 -18   -0.31    0.41 
   1   6 -18   -0.07    0.48 
   0  -6  18    5.14    1.25 
   0  -6 -18    5.36    1.05 
   0  -6 -18    5.07    0.89 
   0   6 -18    5.04    1.09 
   0   6 -18    4.45    1.10 
  -1  -6 -18    2.99    0.95 
   1  -6  18    2.52    0.97 
  -1   6 -18    2.60    1.00 
   1   6  18    2.55    1.10 
  -1   6 -18    4.00    1.09 
  -2  -6 -18    3.79    1.08 
  -2   6 -18    2.98    0.88 
   2   6  18    3.81    1.30 
  -2   6 -18    2.97    1.16 
  -3   6 -18    1.40    0.85 
   3   6  18    2.77    1.29 
  -3   6 -18    0.23    0.62 
   3  -7 -18    0.48    0.23 
  -3  -7  18    0.46    0.88 
   3   7 -18    0.30    0.88 
   3   7 -18    0.01    0.41 
  -3   7  18    0.06    0.85 
   2  -7 -18    6.95    1.11 
   2  -7 -18    6.13    1.03 
  -2  -7  18    7.83    1.72 
   2   7 -18    5.62    0.93 
   2   7 -18    5.44    1.46 
  -1  -7  18    9.42    1.69 
   1  -7 -18    7.73    1.23 
   1  -7 -18    9.95    1.15 
   1   7 -18    8.93    1.46 
   1   7 -18    7.81    1.20 
   0  -7 -18   -0.23    0.58 
   0  -7  18   -0.27    0.82 
   0   7 -18    0.84    0.73 
   0   7  18    0.09    0.67 
   0   7 -18   -0.43    0.57 
   1  -7  18    1.06    0.93 
  -1  -7 -18    1.35    0.73 
  -1   7 -18    0.32    0.53 
   1   7  18    1.09    1.05 
  -1   7 -18    0.57    0.60 
  -2  -7 -18    0.08    0.68 
  -2   7 -18   -0.52    0.58 
  -2   7 -18    0.06    0.81 
   2   7  18    1.10    1.00 
   3   7  18    0.12    1.04 
  -3   7 -18   -0.27    0.63 
  -3   7 -18   -0.35    0.59 
   3  -8 -18    6.32    0.50 
  -3  -8  18   10.18    2.09 
   3   8 -18    7.40    0.84 
   3   8 -18    7.64    1.62 
   2  -8 -18    1.48    0.79 
  -2  -8  18    2.19    1.34 
   2  -8 -18    1.62    0.74 
   2   8 -18    1.77    0.98 
   1  -8 -18    1.75    0.84 
  -1  -8  18    2.04    1.15 
   1  -8 -18    2.57    0.74 
   1   8 -18    2.62    1.14 
   1   8 -18    1.53    0.78 
  -1   8  18    3.00    1.22 
   0  -8  18    6.25    1.50 
   0  -8 -18    6.05    1.21 
   0   8 -18    6.57    1.26 
   0   8  18    3.60    1.19 
   0   8 -18    4.47    1.20 
  -1  -8 -18    2.05    0.86 
   1  -8  18    2.39    1.03 
  -1   8 -18    1.18    0.85 
  -1   8 -18    0.95    0.66 
   1   8  18    2.83    1.24 
  -2  -8 -18    1.59    0.91 
  -2   8 -18    0.33    0.60 
  -2   8 -18    0.02    0.48 
   2   8  18   -0.27    0.97 
  -3   8 -18    0.43    0.70 
  -3   8 -18   -0.65    0.53 
   3   8  18    0.26    1.11 
  -2  -9  18    3.00    1.23 
   2  -9 -18    2.77    0.87 
  -2   9  18    3.18    1.14 
   2   9 -18    3.16    1.25 
  -1  -9  18    2.14    1.28 
   1  -9 -18    1.04    0.60 
   1  -9 -18    1.14    0.89 
   1   9 -18    2.69    1.24 
   1   9 -18    1.75    0.78 
  -1   9  18    3.23    1.11 
   0  -9  18    1.36    1.05 
   0  -9 -18    1.87    0.89 
   0   9 -18    1.34    0.81 
   0   9  18    0.89    1.21 
   0   9 -18    1.85    0.76 
  -1  -9 -18    0.69    0.75 
   1  -9  18   -0.56    0.68 
  -1   9 -18    0.22    0.69 
  -1   9 -18    0.46    0.64 
   1   9  18    0.79    1.10 
  -2  -9 -18    4.23    1.18 
  -2   9 -18    1.21    0.83 
   2   9  18    2.31    1.27 
  -2   9 -18    0.98    0.88 
   2 -10 -18    1.65    0.82 
  -2 -10  18    1.05    0.98 
   2  10 -18   -0.56    0.72 
  -2  10  18    1.14    0.93 
  -1 -10  18    9.91    1.96 
   1 -10 -18    9.82    1.58 
   1 -10 -18   12.87    1.29 
   1  10 -18   11.46    1.47 
  -1  10  18   10.04    1.70 
   1  10 -18   11.11    1.99 
   0 -10 -18   -0.74    0.64 
   0 -10  18    0.33    0.95 
   0  10 -18    0.37    0.73 
   0  10  18    1.29    1.19 
   0  10 -18    0.81    0.96 
  -1 -10 -18    0.28    0.85 
   1 -10  18   -0.19    0.99 
  -1  10 -18   -0.16    0.73 
   1  10  18   -0.43    0.92 
  -1  10 -18    1.53    0.87 
  -2 -10 -18    2.41    1.13 
   2  10  18    0.65    1.14 
  -2  10 -18    1.48    0.89 
  -2  10 -18    1.74    0.89 
  -1 -11  18   -1.13    0.97 
   1 -11 -18    0.33    0.79 
  -1  11  18   -0.69    0.98 
   1  11 -18    0.34    0.66 
   1  11 -18    0.22    0.81 
   0 -11  18    2.10    1.25 
   0 -11 -18   -0.39    0.75 
   0  11 -18    0.04    0.73 
   0  11 -18    1.01    0.88 
   0  11  18    0.23    1.15 
   1 -11  18    1.23    1.27 
  -1 -11 -18    1.52    0.96 
  -1  11 -18    0.08    0.86 
   1  11  18    0.54    1.08 
  -1  11 -18    0.52    0.82 
  -3   0  19   -0.12    0.56 
   3   0 -19   -0.25    0.23 
   3   0 -19    0.00    0.80 
   3   0 -19   -0.40    0.26 
   2   0 -19    0.03    0.54 
  -2   0  19    0.13    0.76 
   2   0 -19    0.11    0.72 
   1   0 -19    0.25    0.52 
   1   0 -19    0.24    0.59 
   0   0 -19   -0.23    0.47 
   0   0  19   -0.03    0.46 
   0   0 -19   -0.05    0.37 
  -1   0 -19   -0.06    0.50 
  -1   0 -19   -0.01    0.67 
  -1   0 -19   -0.18    0.50 
  -2   0 -19   -0.74    0.41 
  -2   0 -19   -1.04    0.64 
  -2   0 -19    0.35    0.48 
  -3   0 -19   -0.51    0.81 
  -3  -1  19    0.55    0.60 
   3  -1 -19   -0.40    0.21 
   3  -1 -19   -0.04    0.26 
   3  -1 -19   -0.82    0.69 
   3   1 -19    0.41    0.35 
  -3   1  19   -0.26    0.59 
   3   1 -19   -0.13    0.85 
   2  -1 -19    1.48    0.67 
   2  -1 -19    1.86    0.88 
   2   1 -19    1.97    0.69 
   2   1 -19    1.89    0.93 
  -2   1  19    1.04    0.99 
   1  -1 -19    0.26    0.55 
   1  -1 -19   -0.16    0.57 
   1   1 -19    0.69    0.66 
   1   1 -19    0.11    0.52 
   0  -1 -19    1.01    0.64 
   0  -1  19    1.92    0.70 
   0  -1 -19    1.19    0.56 
   0   1  19    2.10    0.74 
   0   1 -19    0.73    0.70 
   0   1 -19    2.55    0.80 
   0   1 -19    1.00    0.66 
  -1  -1 -19    0.26    0.58 
  -1  -1 -19   -0.07    0.35 
  -1   1 -19   -0.16    0.61 
  -1   1 -19    0.21    0.53 
  -1   1 -19    0.51    0.61 
  -2  -1 -19    1.91    0.82 
  -2  -1 -19    2.28    0.91 
  -2   1 -19    2.98    0.82 
  -2   1 -19    1.50    0.76 
  -3  -1 -19   -0.19    0.59 
   3   1  19    0.01    0.75 
  -3   1 -19    0.08    0.60 
   3  -2 -19    0.19    0.21 
  -3  -2  19   -0.63    0.41 
   3  -2 -19   -0.47    0.73 
   3   2 -19   -0.51    0.53 
   3   2 -19   -0.13    0.34 
  -3   2  19    0.34    0.74 
   2  -2 -19    0.69    0.64 
   2  -2 -19    1.25    0.80 
   2   2 -19    1.15    0.73 
   2   2 -19    0.06    0.48 
   1  -2 -19    0.49    0.60 
   1  -2 -19    0.33    0.61 
   1   2 -19   -0.88    0.54 
   1   2 -19    0.24    0.50 
   0  -2 -19    3.22    0.76 
   0  -2  19    4.81    0.97 
   0  -2 -19    4.35    0.94 
   0   2 -19    2.68    0.95 
   0   2 -19    5.22    1.08 
   0   2  19    6.10    1.49 
   0   2 -19    5.01    0.95 
  -1  -2 -19    1.23    0.73 
  -1  -2 -19    1.65    0.61 
  -1   2 -19    1.09    0.58 
  -1   2 -19    1.16    0.68 
  -2  -2 -19    1.57    0.77 
  -2   2 -19    1.42    0.91 
  -2   2 -19    2.42    0.77 
  -3   2 -19    9.11    1.71 
   3   2  19    7.93    1.48 
  -3   2 -19    7.97    1.26 
   3  -3 -19    0.19    0.20 
  -3  -3  19    0.40    0.62 
  -3  -3  19    0.77    0.90 
   3  -3 -19    1.38    0.91 
  -3   3  19   -0.33    0.70 
   3   3 -19   -0.17    0.35 
   3   3 -19    0.30    0.93 
   2  -3 -19    0.24    0.60 
   2  -3 -19    1.30    0.71 
   2   3 -19    0.36    0.51 
   2   3 -19   -0.37    0.47 
   1  -3 -19    1.44    0.70 
   1  -3 -19   -0.34    0.54 
   1   3 -19    1.20    0.63 
   1   3 -19    0.78    0.73 
   1   3 -19    0.34    0.56 
   0  -3  19    0.72    0.65 
   0  -3 -19    0.73    0.46 
   0  -3 -19    0.29    0.59 
   0   3 -19    0.21    0.62 
   0   3 -19    0.18    0.60 
  -1  -3 -19    2.27    0.83 
  -1  -3 -19    2.13    0.66 
  -1   3 -19    1.77    0.72 
  -1   3 -19    3.56    1.14 
  -2  -3 -19    2.69    0.95 
  -2   3 -19    2.45    0.93 
  -2   3 -19    1.94    0.74 
   3   3  19    4.21    1.33 
  -3   3 -19    2.90    0.81 
  -3   3 -19    3.20    1.10 
  -3  -4  19    2.32    1.12 
   3  -4 -19    2.86    1.08 
  -3  -4  19    3.10    1.05 
  -3   4  19    5.78    1.25 
   3   4 -19    3.46    1.40 
   3   4 -19    3.84    0.63 
   2  -4 -19    3.04    0.93 
   2  -4 -19    2.91    0.84 
  -2  -4  19    3.77    1.16 
   2   4 -19    2.39    0.71 
   2   4 -19    3.02    1.10 
   1  -4 -19    1.79    0.77 
  -1  -4  19    0.98    0.94 
   1  -4 -19    0.63    0.61 
   1   4 -19    0.93    0.80 
   1   4 -19    1.34    0.63 
   1   4 -19    0.72    0.57 
   0  -4 -19    0.13    0.61 
   0  -4 -19    0.75    0.46 
   0  -4  19    0.47    0.81 
   0   4 -19    0.91    0.76 
   0   4 -19    0.37    0.49 
   1  -4  19    2.53    0.92 
  -1  -4 -19    1.38    0.73 
  -1   4 -19    1.49    0.85 
  -1   4 -19    2.77    0.94 
  -2  -4 -19   22.86    2.11 
   2   4  19   24.51    2.34 
  -2   4 -19   22.68    2.09 
  -2   4 -19   19.78    2.31 
   3   4  19    1.46    1.18 
  -3   4 -19    1.08    0.75 
  -3   4 -19    1.02    1.09 
   3  -5 -19    8.68    1.45 
  -3  -5  19    7.78    1.86 
  -3   5  19   12.64    1.76 
   3   5 -19   10.72    0.95 
   3   5 -19   10.73    1.99 
  -2  -5  19    3.39    1.16 
   2  -5 -19    2.78    0.93 
   2  -5 -19    1.69    0.75 
   2   5 -19    1.02    0.81 
   2   5 -19    2.02    0.68 
   1  -5 -19   13.59    1.63 
  -1  -5  19   17.10    2.06 
   1  -5 -19   21.30    1.70 
   1   5 -19   17.54    1.93 
   1   5 -19   12.79    1.55 
   0  -5 -19    0.13    0.49 
   0  -5 -19    0.96    0.73 
   0  -5  19    1.12    0.92 
   0   5 -19    0.34    0.49 
   0   5 -19   -0.11    0.68 
  -1  -5 -19    7.79    1.24 
   1  -5  19    6.07    1.18 
  -1   5 -19    7.03    1.19 
  -1   5 -19    5.66    1.19 
  -2  -5 -19    0.60    0.70 
  -2   5 -19    1.11    0.60 
   2   5  19    2.08    1.11 
  -2   5 -19    1.72    0.83 
  -3   5 -19    0.79    0.74 
   3   5  19    1.19    1.00 
  -3   5 -19    1.24    1.09 
   3  -6 -19    0.18    0.18 
  -3  -6  19    0.79    0.97 
   3   6 -19    0.64    0.46 
   3   6 -19    0.48    0.94 
   2  -6 -19    0.00    0.54 
   2  -6 -19    0.55    0.65 
  -2  -6  19    1.32    1.16 
   2   6 -19    0.89    0.86 
   2   6 -19   -0.45    0.43 
   1  -6 -19    1.79    0.81 
   1  -6 -19    1.00    0.64 
  -1  -6  19    2.03    1.10 
   1   6 -19    1.27    0.85 
   1   6 -19    0.86    0.66 
   0  -6 -19    0.40    0.55 
   0  -6 -19    0.88    0.67 
   0  -6  19    1.09    0.88 
   0   6 -19    1.18    0.80 
   0   6 -19    0.41    0.67 
   1  -6  19    1.05    0.85 
  -1  -6 -19    0.56    0.73 
  -1   6 -19    0.11    0.49 
   1   6  19    1.56    1.05 
  -1   6 -19    0.31    0.74 
  -2  -6 -19    3.30    0.98 
  -2   6 -19    2.81    1.11 
   2   6  19    2.35    1.06 
  -2   6 -19    1.02    0.80 
   3   6  19   -0.11    0.93 
  -3   6 -19   -0.07    0.48 
  -3   6 -19    0.46    0.73 
   2  -7 -19    7.25    1.15 
   2  -7 -19    4.60    1.03 
  -2  -7  19    6.16    1.82 
   2   7 -19    6.81    1.05 
   2   7 -19    6.68    1.45 
  -1  -7  19    4.14    1.44 
   1  -7 -19    5.12    0.97 
   1  -7 -19    4.92    1.10 
   1   7 -19    5.73    1.08 
   1   7 -19    5.07    1.35 
   0  -7 -19    0.52    0.54 
   0  -7  19   -0.10    0.84 
   0  -7 -19    1.10    0.77 
   0   7 -19    0.51    0.83 
   0   7  19    0.24    0.65 
   0   7 -19    0.66    0.54 
   1  -7  19    0.47    0.91 
  -1  -7 -19    2.13    0.83 
  -1   7 -19   -0.33    0.64 
  -1   7 -19    0.88    0.85 
   1   7  19    1.54    1.16 
  -2  -7 -19    0.97    0.86 
  -2   7 -19    1.00    0.88 
  -2   7 -19    0.41    0.71 
   2   7  19   -1.11    0.85 
   2  -8 -19    1.26    0.70 
  -2  -8  19    2.35    1.46 
   2  -8 -19    1.55    0.79 
   2   8 -19    0.67    0.82 
   2   8 -19    0.49    0.60 
  -1  -8  19    4.95    1.60 
   1  -8 -19    5.49    0.99 
   1  -8 -19    6.58    1.23 
  -1   8  19    6.61    1.58 
   1   8 -19    7.56    1.65 
   1   8 -19    5.78    1.12 
   0  -8  19    1.43    1.05 
   0  -8 -19    0.70    0.82 
   0  -8 -19    0.33    0.54 
   0   8 -19    0.95    0.72 
   0   8 -19    1.94    0.91 
   0   8  19    1.18    0.86 
  -1  -8 -19    2.93    1.03 
   1  -8  19    1.93    1.07 
   1   8  19    0.96    1.10 
  -1   8 -19    4.24    1.03 
  -1   8 -19    1.21    0.70 
  -2  -8 -19    0.56    0.82 
   2   8  19    1.45    1.23 
  -2   8 -19    0.34    0.75 
  -2   8 -19    2.06    1.12 
   2  -9 -19    0.20    0.72 
  -2  -9  19    0.61    0.98 
   2   9 -19    0.74    1.00 
  -2   9  19    0.98    0.91 
  -1  -9  19   -0.60    0.93 
   1  -9 -19   -0.33    0.47 
   1  -9 -19    0.17    0.83 
   1   9 -19   -0.38    0.88 
   1   9 -19    0.62    0.71 
  -1   9  19    0.14    0.73 
   0  -9 -19    1.11    0.84 
   0  -9  19    2.40    1.20 
   0   9  19    1.58    1.30 
   0   9 -19    1.10    0.83 
   0   9 -19    0.52    0.70 
  -1  -9 -19    0.38    0.81 
   1  -9  19    0.43    0.96 
  -1   9 -19    0.38    0.81 
   1   9  19   -0.14    0.76 
  -1   9 -19    0.18    0.56 
  -1 -10  19    0.58    1.24 
   1 -10 -19   -0.44    0.45 
   1 -10 -19    0.09    0.82 
   1  10 -19    0.79    0.72 
  -1  10  19   -0.07    0.75 
   1  10 -19   -1.18    0.93 
   0 -10 -19   -0.20    0.76 
   0 -10  19   -0.18    0.98 
   0  10 -19   -0.29    0.70 
   0  10  19    2.22    1.33 
   0  10 -19    0.87    1.05 
  -1 -10 -19   -0.16    0.84 
  -1  10 -19    0.44    0.88 
  -1  10 -19    0.05    0.65 
   1  10  19    0.51    1.14 
   3   0 -20   -0.71    0.83 
   3   0 -20   -0.25    0.32 
   2   0 -20    0.39    0.76 
   2   0 -20    1.87    0.71 
   1   0 -20   11.60    1.42 
   1   0 -20    9.38    1.23 
   0   0 -20    2.18    0.76 
   0   0 -20    2.46    0.92 
  -1   0 -20    2.60    0.76 
  -1   0 -20    1.64    0.81 
  -1   0 -20    2.19    0.82 
  -2   0 -20    1.41    0.76 
  -2   0 -20    1.83    0.83 
  -2   0 -20    1.88    1.08 
  -3   0 -20    2.56    1.08 
   3  -1 -20   -0.10    0.85 
   3  -1 -20    0.39    0.31 
   3   1 -20    1.48    1.12 
   3   1 -20   -0.01    0.42 
   2  -1 -20    0.04    0.68 
   2  -1 -20   -0.03    0.52 
   2   1 -20    0.73    0.62 
   2   1 -20    0.03    0.75 
   1  -1 -20    1.77    0.71 
   1  -1 -20    0.70    0.63 
   1   1 -20    1.00    0.67 
   1   1 -20    1.65    0.78 
   0  -1 -20   -0.73    0.48 
   0  -1 -20   -0.58    0.46 
   0   1 -20   -0.23    0.48 
   0   1 -20   -0.95    0.47 
  -1  -1 -20    1.99    0.78 
  -1  -1 -20    2.64    0.76 
  -1   1 -20    1.90    0.71 
  -1   1 -20    1.86    0.77 
  -1   1 -20    2.26    1.00 
  -2  -1 -20    0.60    0.73 
  -2  -1 -20    1.10    0.66 
  -2   1 -20    1.54    0.97 
  -2   1 -20    2.09    0.82 
   3   1  20    4.82    1.30 
  -3   1 -20    4.37    1.41 
  -3   1 -20    3.35    0.99 
   3  -2 -20    3.42    0.43 
   3  -2 -20    2.81    1.17 
   3   2 -20    3.34    0.59 
   3   2 -20    3.33    1.15 
   2  -2 -20    0.30    0.60 
   2  -2 -20   -0.39    0.41 
   2   2 -20    0.27    0.86 
   2   2 -20   -0.28    0.50 
   1  -2 -20    0.29    0.60 
   1  -2 -20    0.23    0.51 
   1   2 -20   -0.04    0.60 
   1   2 -20   -0.18    0.45 
   0  -2  20    2.34    1.22 
   0  -2 -20    0.22    0.60 
   0  -2 -20    0.30    0.58 
   0   2 -20    0.57    0.58 
   0   2 -20    0.17    0.63 
   0   2 -20    0.28    0.49 
  -1  -2 -20   -0.01    0.39 
  -1  -2 -20   -0.49    0.53 
  -1   2 -20    0.39    0.50 
  -1   2 -20   -0.71    0.51 
  -2  -2 -20    0.87    0.74 
  -2   2 -20    0.47    0.65 
  -2   2 -20    0.24    0.61 
  -3   2 -20    3.40    1.02 
  -3   2 -20    1.66    0.97 
   3   2  20    3.96    1.31 
   3  -3 -20    0.28    0.27 
  -3  -3  20   -0.35    1.00 
   3  -3 -20    0.69    0.87 
   3   3 -20    1.09    0.46 
   3   3 -20   -0.69    0.90 
   2  -3 -20   -0.17    0.53 
   2  -3 -20   -0.76    0.59 
   2   3 -20    0.71    0.75 
   2   3 -20   -0.08    0.48 
   1  -3 -20    2.33    0.81 
   1  -3 -20    2.11    0.82 
   1   3 -20    2.52    0.78 
   1   3 -20    2.19    0.84 
   1   3 -20    1.22    0.70 
   0  -3 -20   -0.30    0.50 
   0  -3 -20   -0.18    0.58 
   0   3 -20   -0.43    0.45 
   0   3 -20    0.65    0.71 
   0   3 -20   -0.36    0.39 
  -1  -3 -20    0.83    0.53 
  -1  -3 -20    1.00    0.69 
  -1   3 -20    0.20    0.67 
  -1   3 -20    2.34    0.96 
  -2  -3 -20    3.26    0.99 
  -2   3 -20    2.70    1.12 
  -2   3 -20    2.91    0.86 
   3   3  20    2.02    1.17 
  -3   3 -20    2.13    0.88 
  -3   3 -20    2.45    1.08 
   3  -4 -20    0.85    0.28 
   3  -4 -20    1.12    0.95 
  -3  -4  20    0.26    0.81 
   3   4 -20    1.06    1.18 
   3   4 -20    0.42    0.47 
   2  -4 -20    1.34    0.81 
   2  -4 -20    0.46    0.64 
  -2  -4  20    0.85    0.88 
   2   4 -20    1.58    0.70 
   2   4 -20    1.39    0.90 
  -1  -4  20    2.17    1.09 
   1  -4 -20    1.14    0.73 
   1  -4 -20    0.49    0.65 
   1   4 -20    0.60    0.67 
   1   4 -20    0.49    0.60 
   1   4 -20    0.00    0.54 
   0  -4 -20    0.32    0.62 
   0  -4  20   -0.27    0.72 
   0  -4 -20   -0.29    0.33 
   0   4 -20    0.16    0.47 
   0   4 -20    0.31    0.56 
  -1  -4 -20    0.21    0.53 
   1  -4  20    0.51    0.73 
  -1  -4 -20   -0.39    0.54 
  -1   4 -20   -0.10    0.44 
  -1   4 -20   -0.41    0.66 
  -2  -4 -20    8.83    1.41 
  -2   4 -20    8.69    1.25 
  -2   4 -20    8.36    1.63 
   2   4  20    7.81    1.56 
   2  -5 -20    6.69    1.17 
  -2  -5  20    7.36    1.49 
   2  -5 -20    4.50    1.14 
   2   5 -20    8.35    1.55 
   2   5 -20    6.73    1.01 
   1  -5 -20    1.57    0.83 
  -1  -5  20    0.00    0.92 
   1  -5 -20    1.53    0.80 
   1   5 -20    1.15    0.70 
   1   5 -20    0.32    0.61 
   1   5 -20    1.08    0.67 
   0  -5  20    7.19    1.47 
   0  -5 -20    8.76    1.13 
   0  -5 -20    9.24    1.38 
   0   5 -20    9.94    1.44 
   0   5 -20    8.98    1.48 
   1  -5  20    0.03    0.80 
  -1  -5 -20    1.33    0.73 
  -1   5 -20   -0.26    0.45 
  -1   5 -20    1.73    0.95 
  -2  -5 -20    0.47    0.76 
  -2   5 -20   -0.39    0.65 
  -2   5 -20   -0.43    0.56 
   2   5  20   -0.09    0.92 
  -2  -6  20    9.26    1.89 
   2  -6 -20    6.58    1.22 
   2  -6 -20    9.61    1.37 
   2   6 -20   10.09    1.22 
   2   6 -20    9.16    1.68 
   1  -6 -20    1.74    0.76 
   1  -6 -20    1.28    0.83 
  -1  -6  20    1.15    1.11 
   1   6 -20    1.46    0.75 
   1   6 -20    0.54    0.70 
   0  -6 -20    2.02    0.89 
   0  -6 -20    1.44    0.69 
   0  -6  20    2.64    1.20 
   0   6 -20    0.31    0.76 
   0   6 -20    1.08    0.81 
   1  -6  20    0.21    0.81 
  -1  -6 -20   -0.57    0.70 
   1   6  20   -0.78    0.78 
  -1   6 -20    0.34    0.65 
  -1   6 -20    0.44    0.62 
  -2  -6 -20    2.24    1.01 
  -2   6 -20    0.56    0.65 
   2   6  20   -0.26    0.78 
  -2   6 -20    0.54    0.90 
   2  -7 -20    8.30    1.28 
   2  -7 -20    6.10    1.18 
  -2  -7  20    7.70    1.94 
   2   7 -20    5.35    1.49 
   2   7 -20    7.41    1.06 
  -1  -7  20    0.20    1.02 
   1  -7 -20    0.06    0.57 
   1  -7 -20   -0.01    0.67 
   1   7 -20    0.58    0.66 
   1   7 -20    0.31    0.73 
   0  -7 -20    4.59    1.17 
   0  -7 -20    2.54    0.84 
   0  -7  20    2.50    1.19 
   0   7 -20    3.04    1.06 
   0   7  20    3.63    1.22 
   0   7 -20    2.75    1.09 
  -1  -7 -20    2.27    0.97 
   1  -7  20    1.65    1.13 
  -1   7 -20    1.39    0.95 
  -1   7 -20    0.63    0.85 
   1   7  20    0.19    1.03 
  -2  -7 -20   -0.97    0.63 
  -2   7 -20    0.73    0.95 
  -2   7 -20    0.12    0.72 
   2   7  20    1.01    1.15 
  -1  -8  20    5.81    1.73 
   1  -8 -20    5.53    1.05 
   1  -8 -20    5.28    1.18 
   1   8 -20    5.24    1.59 
  -1   8  20    5.56    1.55 
   1   8 -20    6.80    1.18 
   0  -8 -20   -0.37    0.45 
   0  -8  20    0.20    1.01 
   0  -8 -20    0.84    0.83 
   0   8 -20   -0.36    0.43 
   0   8  20    0.83    0.84 
   0   8 -20    0.67    0.65 
  -1  -8 -20    1.02    0.80 
  -1   8 -20    1.42    0.98 
   1   8  20    1.76    1.14 
  -1   8 -20    1.42    0.86 
  -1   9  20    1.72    0.98 
   0  -9 -20    1.31    0.86 
   0  -9  20   -1.05    0.89 
   0  -9 -20    0.60    0.60 
   0   9 -20    0.71    1.04 
   0   9 -20    0.19    0.74 
   0   9  20    2.28    1.39 
   2   0 -21   -0.18    0.76 
   2   0 -21    0.70    0.59 
   1   0 -21    0.78    0.79 
   1   0 -21   -0.74    0.48 
   0   0 -21   -0.62    0.60 
   0   0 -21    0.17    0.66 
  -1   0 -21   -0.01    0.45 
  -1   0 -21    0.16    0.63 
  -2   0 -21    1.27    0.88 
  -2   0 -21   -0.20    0.36 
  -2   0 -21    0.08    0.63 
   2  -1 -21   -0.43    0.48 
   2  -1 -21    0.69    0.59 
   2   1 -21   -0.03    0.55 
   2   1 -21    0.93    0.93 
   1  -1 -21   -0.22    0.62 
   1  -1 -21    0.16    0.64 
   1   1 -21    0.36    0.58 
   1   1 -21    0.36    0.58 
   0  -1 -21   -0.19    0.64 
   0  -1 -21    0.76    0.75 
   0   1 -21    0.32    0.62 
   0   1 -21    0.26    0.71 
  -1  -1 -21    0.04    0.44 
  -1  -1 -21    1.50    0.81 
  -1   1 -21    1.85    0.97 
  -1   1 -21    0.26    0.49 
  -1   1 -21    0.71    0.67 
  -2  -1 -21    0.72    0.58 
  -2  -1 -21    0.60    0.76 
  -2   1 -21    1.40    0.81 
  -2   1 -21    0.34    0.66 
  -2   1 -21    0.02    0.86 
   2  -2 -21    0.86    0.80 
   2  -2 -21   -0.38    0.56 
   2   2 -21    0.80    0.62 
   2   2 -21    1.81    1.10 
   1  -2 -21    0.53    0.75 
   1  -2 -21    0.51    0.72 
   1   2 -21    1.82    0.83 
   1   2 -21    0.20    0.61 
   0  -2 -21   -0.07    0.59 
   0  -2 -21   -0.09    0.59 
   0   2 -21   -0.42    0.58 
   0   2 -21   -0.35    0.66 
   0   2 -21    0.13    0.59 
  -1  -2 -21    0.06    0.42 
  -1  -2 -21   -0.49    0.53 
  -1   2 -21    0.36    0.52 
  -1   2 -21    0.31    0.65 
  -1   2 -21    0.34    0.77 
  -2  -2 -21    1.11    0.79 
  -2  -2 -21    0.55    0.51 
  -2   2 -21   -0.26    0.62 
  -2   2 -21   -0.02    0.62 
   2  -3 -21    1.58    0.76 
   2  -3 -21    1.64    0.90 
   2   3 -21    1.92    0.70 
   2   3 -21    2.52    1.18 
   1  -3 -21    0.28    0.64 
   1  -3 -21    0.00    0.65 
   1   3 -21    0.14    0.55 
   1   3 -21    1.27    0.72 
   0  -3 -21    1.24    0.79 
   0  -3 -21    1.79    0.80 
   0   3 -21    1.68    0.85 
   0   3 -21    3.75    0.99 
   0   3 -21    1.88    0.94 
   1  -3  21    0.36    0.73 
  -1  -3 -21   -0.66    0.59 
  -1  -3 -21   -0.21    0.39 
  -1   3 -21    0.59    0.60 
  -1   3 -21    0.89    0.78 
  -2  -3 -21    7.72    1.36 
  -2   3 -21    7.44    1.34 
  -2   3 -21    6.68    1.53 
   2  -4 -21   12.50    1.62 
   2  -4 -21    8.93    1.33 
  -2  -4  21   10.89    1.94 
   2   4 -21    7.07    1.55 
   2   4 -21   12.70    1.32 
  -1  -4  21    0.84    0.96 
   1  -4 -21    0.41    0.57 
   1  -4 -21   -0.16    0.58 
   1   4 -21    0.38    0.57 
   1   4 -21    0.16    0.67 
   1   4 -21    0.37    0.64 
   0  -4  21    0.84    0.93 
   0  -4 -21    0.43    0.72 
   0  -4 -21    1.20    0.73 
   0   4 -21    0.83    0.67 
   0   4 -21    0.62    0.79 
  -1  -4 -21    5.49    1.20 
  -1  -4 -21    4.10    0.86 
   1  -4  21    6.09    1.27 
  -1   4 -21    2.04    0.98 
  -1   4 -21    2.13    0.92 
  -2  -4 -21    0.79    0.84 
  -2   4 -21    0.03    0.50 
   2   4  21    0.89    1.02 
  -2   4 -21    0.19    0.84 
   2  -5 -21    0.55    0.71 
   2  -5 -21    1.69    0.90 
  -2  -5  21    0.76    1.10 
   2   5 -21   -0.08    0.74 
   2   5 -21    1.07    0.66 
  -1  -5  21   -0.11    0.75 
   1  -5 -21   -0.36    0.63 
   1  -5 -21   -0.53    0.64 
   1   5 -21    0.42    0.61 
   1   5 -21    0.76    0.73 
   1   5 -21    0.33    0.59 
   0  -5  21    0.05    0.90 
   0  -5 -21    0.65    0.75 
   0  -5 -21    0.09    0.48 
   0   5 -21   -0.30    0.66 
   0   5 -21    0.92    0.83 
  -1  -5 -21    2.96    0.89 
  -1  -5 -21    2.71    1.03 
   1  -5  21    2.06    0.98 
  -1   5 -21    2.62    1.06 
  -1   5 -21    2.86    1.10 
  -1  -6  21    0.20    0.78 
   1  -6 -21   -0.65    0.59 
   1  -6 -21   -0.51    0.63 
   1   6 -21    0.92    0.70 
   1   6 -21    0.38    0.64 
   1   6 -21    2.50    1.05 
   0  -6 -21    2.34    0.91 
   0  -6  21   -0.16    0.96 
   0  -6 -21    0.74    0.66 
   0   6 -21    1.81    0.84 
   0   6 -21    2.64    0.96 
   1  -6  21    7.46    1.71 
  -1  -6 -21    4.41    1.26 
  -1   6 -21    5.14    1.14 
   1   6  21    3.18    1.09 
  -1   6 -21    9.03    1.42 
   1  -7 -21   12.33    1.50 
   1  -7 -21   11.54    1.56 
   1   7 -21    9.44    1.88 
   1   7 -21   10.59    1.48 
   0  -7  21    0.42    1.05 
   0  -7 -21    0.98    0.70 
   0  -7 -21    0.21    0.77 
   0   7 -21    1.34    0.83 
   0   7  21    1.40    1.12 
   0   7 -21    0.10    0.75 
   1   0 -22    2.29    1.03 
   1   0 -22    3.33    0.93 
   0   0 -22    6.72    1.21 
   0   0 -22    9.88    1.41 
  -1   0 -22    0.10    0.67 
  -1   0 -22    0.76    0.80 
   1  -1 -22   -0.16    0.59 
   1  -1 -22    0.50    0.59 
   1   1 -22    0.28    0.80 
   1   1 -22    0.25    0.58 
   0  -1 -22    4.59    1.00 
   0  -1 -22    3.33    0.95 
   0   1 -22    2.74    0.92 
   0   1 -22    4.83    1.10 
  -1  -1 -22    0.63    0.70 
  -1  -1 -22   -0.43    0.56 
  -1   1 -22    1.20    0.81 
  -1   1 -22   -0.03    0.63 
  -1   1 -22   -0.05    0.55 
   1  -2 -22    1.45    0.81 
   1  -2 -22    1.46    0.67 
   1   2 -22    1.29    0.96 
   1   2 -22    0.78    0.66 
   0  -2 -22    2.12    0.88 
   0  -2 -22    1.75    0.77 
   0   2 -22    0.63    0.73 
   0   2 -22    0.45    0.59 
  -1  -2 -22   -0.23    0.66 
  -1  -2 -22    0.03    0.61 
  -1   2 -22   -0.19    0.65 
  -1   2 -22    0.82    0.82 
  -1   2 -22    1.74    1.02 
   1  -3 -22    1.32    0.83 
   1  -3 -22    0.72    0.75 
   1   3 -22   -0.24    0.81 
   1   3 -22   -0.20    0.64 
   0  -3 -22   -0.31    0.65 
   0  -3 -22    0.76    0.82 
   0   3 -22   -0.31    0.67 
   0   3 -22   -0.32    0.63 
   0   3 -22    0.00    0.51 
  -1  -3 -22    0.44    0.53 
   1  -3  22    0.34    0.91 
  -1  -3 -22   -0.15    0.70 
  -1   3 -22    0.52    0.69 
  -1   3 -22    0.39    0.64 
   1  -4 -22    0.33    0.80 
  -1  -4  22    2.34    1.25 
   1  -4 -22    1.02    0.82 
   1   4 -22    0.21    0.67 
   1   4 -22    0.90    0.64 
   1   4 -22    1.44    1.01 
   0  -4 -22    0.67    0.73 
   0  -4  22    1.12    0.96 
   0  -4 -22    0.21    0.78 
   0   4 -22    0.32    0.73 
   0   4 -22    0.41    0.58 
   0   4 -22   -0.21    0.53 
  -1   4 -22    3.50    1.20 
   0  -5 -22    0.53    0.74 
   0   5 -22   -0.11    0.70 
   0   0   0    0.00    0.00 
;
_shelx_hkl_checksum              79858
loop_
_space_group_symop_operation_xyz
'x, y, z'
'-x, y+1/2, -z+1/2'
'-x, -y, -z'
'x, -y-1/2, z-1/2'
loop_
_atom_site_label
_atom_site_type_symbol
_atom_site_fract_x
_atom_site_fract_y
_atom_site_fract_z
_atom_site_U_iso_or_equiv
_atom_site_adp_type
_atom_site_occupancy
_atom_site_site_symmetry_order
_atom_site_calc_flag
_atom_site_refinement_flags_posn
_atom_site_refinement_flags_adp
C1 C 0.2274(4) 0.70574(14) 0.34287(12) 0.0203(5) Uani 1 1 d . .
C2 C 0.2199(4) 0.64099(15) 0.38833(12) 0.0221(5) Uani 1 1 d . .
C3 C 0.1802(4) 0.65032(15) 0.46675(12) 0.0256(6) Uani 1 1 d . .
H3A H 0.192787 0.710052 0.479358 0.031 Uiso 1 1 calc R U
H3B H 0.305790 0.620256 0.492877 0.031 Uiso 1 1 calc R U
C4 C -0.0543(5) 0.61790(17) 0.49096(14) 0.0339(7) Uani 1 1 d . .
H4A H -0.179901 0.652213 0.470372 0.051 Uiso 1 1 calc R U
H4B H -0.060369 0.620529 0.542693 0.051 Uiso 1 1 calc R U
H4C H -0.074254 0.560012 0.475450 0.051 Uiso 1 1 calc R U
C5 C 0.2552(4) 0.55343(14) 0.36348(12) 0.0202(5) Uani 1 1 d . .
C6 C 0.1021(4) 0.51627(15) 0.31504(12) 0.0250(6) Uani 1 1 d . .
H6 H -0.028619 0.546981 0.297522 0.030 Uiso 1 1 calc R U
C7 C 0.1361(4) 0.43546(16) 0.29180(13) 0.0279(6) Uani 1 1 d . .
H7 H 0.027777 0.410985 0.259281 0.033 Uiso 1 1 calc R U
C8 C 0.3276(4) 0.39021(15) 0.31583(13) 0.0259(6) Uani 1 1 d . .
H8 H 0.353302 0.335148 0.299213 0.031 Uiso 1 1 calc R U
C9 C 0.4818(4) 0.42620(16) 0.36450(13) 0.0265(6) Uani 1 1 d . .
H9 H 0.614135 0.395764 0.381215 0.032 Uiso 1 1 calc R U
C10 C 0.4432(4) 0.50605(15) 0.38859(13) 0.0256(6) Uani 1 1 d . .
H10 H 0.546977 0.529273 0.423074 0.031 Uiso 1 1 calc R U
C11 C 0.1782(4) 0.79379(15) 0.36364(12) 0.0206(5) Uani 1 1 d . .
C12 C -0.0294(4) 0.81754(15) 0.39516(12) 0.0244(6) Uani 1 1 d . .
H12 H -0.144424 0.776690 0.405080 0.029 Uiso 1 1 calc R U
C13 C -0.0701(4) 0.90061(16) 0.41230(13) 0.0276(6) Uani 1 1 d . .
H13 H -0.212673 0.915949 0.433782 0.033 Uiso 1 1 calc R U
C14 C 0.0946(4) 0.96073(16) 0.39837(13) 0.0285(6) Uani 1 1 d . .
H14 H 0.066966 1.017244 0.410628 0.034 Uiso 1 1 calc R U
C15 C 0.3010(4) 0.93808(15) 0.36633(13) 0.0269(6) Uani 1 1 d . .
H15 H 0.415664 0.979122 0.356511 0.032 Uiso 1 1 calc R U
C16 C 0.3401(4) 0.85574(15) 0.34865(12) 0.0233(6) Uani 1 1 d . .
H16 H 0.480734 0.841101 0.325747 0.028 Uiso 1 1 calc R U
C17 C 0.2989(4) 0.69490(14) 0.26778(12) 0.0205(5) Uani 1 1 d . .
C18 C 0.1553(4) 0.72128(15) 0.21219(13) 0.0241(6) Uani 1 1 d . .
H18 H 0.011382 0.747929 0.222231 0.029 Uiso 1 1 calc R U
C19 C 0.2176(5) 0.70955(16) 0.14218(13) 0.0289(6) Uani 1 1 d . .
H19 H 0.114228 0.726992 0.105171 0.035 Uiso 1 1 calc R U
C20 C 0.4298(5) 0.67253(15) 0.12567(13) 0.0280(6) Uani 1 1 d . .
C21 C 0.5779(4) 0.64902(14) 0.18190(13) 0.0237(6) Uani 1 1 d . .
H21 H 0.726190 0.625450 0.172128 0.028 Uiso 1 1 calc R U
C22 C 0.5130(4) 0.65938(14) 0.25101(13) 0.0224(5) Uani 1 1 d . .
H22 H 0.616192 0.641968 0.288066 0.027 Uiso 1 1 calc R U
C23 C 0.4998(6) 0.65936(19) 0.04983(14) 0.0433(8) Uani 1 1 d . .
H23A H 0.580686 0.709096 0.032764 0.065 Uiso 1 1 calc R U
H23B H 0.359807 0.649296 0.020422 0.065 Uiso 1 1 calc R U
H23C H 0.604382 0.611135 0.047085 0.065 Uiso 1 1 calc R U
loop_
_atom_site_aniso_label
_atom_site_aniso_U_11
_atom_site_aniso_U_22
_atom_site_aniso_U_33
_atom_site_aniso_U_23
_atom_site_aniso_U_13
_atom_site_aniso_U_12
C1 0.0177(12) 0.0204(13) 0.0228(13) -0.0022(10) -0.0009(10) -0.0018(10)
C2 0.0208(12) 0.0211(13) 0.0242(13) 0.0001(11) -0.0020(10) -0.0020(11)
C3 0.0346(14) 0.0199(13) 0.0222(13) -0.0007(10) -0.0004(11) -0.0012(12)
C4 0.0444(17) 0.0269(15) 0.0308(15) 0.0030(12) 0.0077(13) -0.0023(13)
C5 0.0225(12) 0.0191(13) 0.0191(12) 0.0031(10) 0.0020(10) -0.0023(10)
C6 0.0268(13) 0.0244(14) 0.0238(13) 0.0004(11) -0.0027(11) 0.0009(11)
C7 0.0332(14) 0.0253(14) 0.0250(13) -0.0013(11) -0.0039(11) -0.0027(12)
C8 0.0351(15) 0.0185(13) 0.0243(13) -0.0005(10) 0.0062(11) 0.0000(12)
C9 0.0277(14) 0.0233(14) 0.0283(14) 0.0044(11) -0.0002(11) 0.0028(11)
C10 0.0284(14) 0.0247(14) 0.0235(13) -0.0008(11) -0.0049(11) -0.0024(11)
C11 0.0247(13) 0.0214(13) 0.0157(12) 0.0019(10) -0.0029(10) 0.0004(11)
C12 0.0260(13) 0.0242(14) 0.0230(13) 0.0030(11) 0.0026(10) -0.0025(11)
C13 0.0289(14) 0.0286(15) 0.0254(13) -0.0021(11) 0.0060(11) 0.0051(12)
C14 0.0362(15) 0.0189(13) 0.0304(14) -0.0020(11) 0.0012(12) 0.0015(12)
C15 0.0302(14) 0.0198(13) 0.0306(14) 0.0010(11) 0.0014(11) -0.0047(11)
C16 0.0231(13) 0.0234(14) 0.0233(13) 0.0007(10) 0.0024(10) 0.0010(11)
C17 0.0235(13) 0.0149(12) 0.0232(13) 0.0013(10) 0.0013(10) -0.0022(10)
C18 0.0242(13) 0.0222(13) 0.0261(13) 0.0008(11) 0.0029(11) 0.0022(11)
C19 0.0350(15) 0.0280(14) 0.0237(13) 0.0021(11) -0.0011(11) 0.0058(12)
C20 0.0365(15) 0.0212(13) 0.0264(14) -0.0005(11) 0.0078(12) 0.0003(12)
C21 0.0250(13) 0.0173(13) 0.0289(14) -0.0004(10) 0.0043(11) 0.0019(11)
C22 0.0223(13) 0.0177(13) 0.0269(13) 0.0022(10) -0.0015(10) 0.0010(10)
C23 0.0558(19) 0.0468(19) 0.0276(15) 0.0021(13) 0.0095(14) 0.0204(16)
loop_
_atom_type_symbol
_atom_type_description
_atom_type_scat_dispersion_real
_atom_type_scat_dispersion_imag
_atom_type_scat_source
C C 0.0033 0.0016 'International Tables Vol C Tables 4.2.6.8 and 6.1.1.4'
H H 0.0000 0.0000 'International Tables Vol C Tables 4.2.6.8 and 6.1.1.4'
loop_
_geom_angle_atom_site_label_1
_geom_angle_atom_site_label_2
_geom_angle_atom_site_label_3
_geom_angle
C2 C1 C17 121.8(2)
C2 C1 C11 123.5(2)
C17 C1 C11 114.56(19)
C1 C2 C5 121.1(2)
C1 C2 C3 123.7(2)
C5 C2 C3 115.1(2)
C2 C3 C4 114.3(2)
C2 C3 H3A 108.7
C4 C3 H3A 108.7
C2 C3 H3B 108.7
C4 C3 H3B 108.7
H3A C3 H3B 107.6
C3 C4 H4A 109.5
C3 C4 H4B 109.5
H4A C4 H4B 109.5
C3 C4 H4C 109.5
H4A C4 H4C 109.5
H4B C4 H4C 109.5
C6 C5 C10 117.6(2)
C6 C5 C2 121.5(2)
C10 C5 C2 120.9(2)
C7 C6 C5 121.4(2)
C7 C6 H6 119.3
C5 C6 H6 119.3
C6 C7 C8 120.2(2)
C6 C7 H7 119.9
C8 C7 H7 119.9
C7 C8 C9 119.3(2)
C7 C8 H8 120.4
C9 C8 H8 120.4
C10 C9 C8 120.1(2)
C10 C9 H9 120.0
C8 C9 H9 120.0
C9 C10 C5 121.5(2)
C9 C10 H10 119.3
C5 C10 H10 119.3
C12 C11 C16 117.9(2)
C12 C11 C1 122.5(2)
C16 C11 C1 119.5(2)
C11 C12 C13 120.6(2)
C11 C12 H12 119.7
C13 C12 H12 119.7
C14 C13 C12 120.5(2)
C14 C13 H13 119.7
C12 C13 H13 119.7
C13 C14 C15 119.4(2)
C13 C14 H14 120.3
C15 C14 H14 120.3
C16 C15 C14 120.0(2)
C16 C15 H15 120.0
C14 C15 H15 120.0
C15 C16 C11 121.5(2)
C15 C16 H16 119.2
C11 C16 H16 119.2
C18 C17 C22 117.6(2)
C18 C17 C1 121.0(2)
C22 C17 C1 121.4(2)
C17 C18 C19 121.4(2)
C17 C18 H18 119.3
C19 C18 H18 119.3
C18 C19 C20 120.7(2)
C18 C19 H19 119.6
C20 C19 H19 119.6
C19 C20 C21 117.6(2)
C19 C20 C23 121.3(2)
C21 C20 C23 121.1(2)
C22 C21 C20 121.3(2)
C22 C21 H21 119.4
C20 C21 H21 119.4
C21 C22 C17 121.3(2)
C21 C22 H22 119.3
C17 C22 H22 119.3
C20 C23 H23A 109.5
C20 C23 H23B 109.5
H23A C23 H23B 109.5
C20 C23 H23C 109.5
H23A C23 H23C 109.5
H23B C23 H23C 109.5
loop_
_geom_bond_atom_site_label_1
_geom_bond_atom_site_label_2
_geom_bond_distance
C1 C2 1.349(3)
C1 C17 1.494(3)
C1 C11 1.494(3)
C2 C5 1.496(3)
C2 C3 1.511(3)
C3 C4 1.517(4)
C3 H3A 0.9900
C3 H3B 0.9900
C4 H4A 0.9800
C4 H4B 0.9800
C4 H4C 0.9800
C5 C6 1.390(3)
C5 C10 1.393(3)
C6 C7 1.384(3)
C6 H6 0.9500
C7 C8 1.384(4)
C7 H7 0.9500
C8 C9 1.389(4)
C8 H8 0.9500
C9 C10 1.379(3)
C9 H9 0.9500
C10 H10 0.9500
C11 C12 1.391(3)
C11 C16 1.391(3)
C12 C13 1.392(3)
C12 H12 0.9500
C13 C14 1.377(4)
C13 H13 0.9500
C14 C15 1.385(3)
C14 H14 0.9500
C15 C16 1.382(3)
C15 H15 0.9500
C16 H16 0.9500
C17 C18 1.388(3)
C17 C22 1.392(3)
C18 C19 1.390(3)
C18 H18 0.9500
C19 C20 1.392(4)
C19 H19 0.9500
C20 C21 1.399(4)
C20 C23 1.510(3)
C21 C22 1.375(3)
C21 H21 0.9500
C22 H22 0.9500
C23 H23A 0.9800
C23 H23B 0.9800
C23 H23C 0.9800
