#------------------------------------------------------------------------------
#$Date: 2016-08-05 06:43:57 +0300 (Fri, 05 Aug 2016) $
#$Revision: 184999 $
#$URL: file:///home/coder/svn-repositories/cod/cif/1/54/31/1543164.cif $
#------------------------------------------------------------------------------
#
# This file is available in the Crystallography Open Database (COD),
# http://www.crystallography.net/
#
# All data on this site have been placed in the public domain by the
# contributors.
#
data_1543164
loop_
_publ_author_name
'Uchida, Yosuke'
'Hirose, Takashi'
'Nakashima, Takuya'
'Kawai, Tsuyoshi'
'Matsuda, Kenji'
_publ_contact_author
;
Prof. Kenji Matsuda
Department of Synthetic Chemistry and Biological Chemistry,
Graduate School of Engineering,
Kyoto University, Katsura,
Nishikyo-ku, Kyoto 615-8510, Japan
;
_publ_section_title
;
 Synthesis and Photophysical Properties of a 13,13'-Bibenzo[b]perylenyl
 Derivative as a \p-Extended 1,1'-Binaphthyl Analog.
;
_journal_issue                   9
_journal_name_full               'Organic letters'
_journal_page_first              2118
_journal_page_last               2121
_journal_paper_doi               10.1021/acs.orglett.6b00747
_journal_volume                  18
_journal_year                    2016
_chemical_formula_moiety         'C64 H58, C7 H8'
_chemical_formula_sum            'C71 H66'
_chemical_formula_weight         919.23
_chemical_name_common            'compound 1'
_chemical_name_systematic
;
 2,2',13,13'-tetra-tert-butyl-11,11'-bibenzo[b]perylenyl
;
_space_group_crystal_system      triclinic
_space_group_IT_number           2
_space_group_name_Hall           '-P 1'
_space_group_name_H-M_alt        'P -1'
_symmetry_space_group_name_Hall  '-P 1'
_symmetry_space_group_name_H-M   'P -1'
_atom_sites_solution_hydrogens   geom
_audit_creation_method           SHELXL-2014/7
_cell_angle_alpha                84.314(2)
_cell_angle_beta                 82.576(3)
_cell_angle_gamma                64.917(2)
_cell_formula_units_Z            2
_cell_length_a                   11.5438(12)
_cell_length_b                   13.2500(13)
_cell_length_c                   19.248(2)
_cell_measurement_reflns_used    14456
_cell_measurement_temperature    113(2)
_cell_measurement_theta_max      55.06
_cell_measurement_theta_min      6.07
_cell_volume                     2640.9(5)
_computing_cell_refinement       PROCESS-AUTO
_computing_data_collection       PROCESS-AUTO
_computing_data_reduction        'Yadokari-XG (Wakita, Nemoto et al., 2009)'
_computing_molecular_graphics    'Yadokari-XG (Wakita, Nemoto et al., 2009)'
_computing_publication_material  'Yadokari-XG (Wakita, Nemoto et al., 2009)'
_computing_structure_refinement  'SHELXL-2014/7 (Sheldrick, 2014)'
_computing_structure_solution    'SHELXL-2014/7 (Sheldrick, 2014)'
_diffrn_ambient_temperature      113(2)
_diffrn_measured_fraction_theta_full 0.997
_diffrn_measured_fraction_theta_max 0.990
_diffrn_measurement_device_type  'Rigaku R-AXIS RAPID-S'
_diffrn_measurement_method
'phi and omega scans (omega-axis oscillation)'
_diffrn_radiation_monochromator  'flat graphite crystal'
_diffrn_radiation_type           MoK\a
_diffrn_radiation_wavelength     0.71075
_diffrn_reflns_av_R_equivalents  0.0345
_diffrn_reflns_av_unetI/netI     0.0453
_diffrn_reflns_Laue_measured_fraction_full 0.997
_diffrn_reflns_Laue_measured_fraction_max 0.990
_diffrn_reflns_limit_h_max       14
_diffrn_reflns_limit_h_min       -14
_diffrn_reflns_limit_k_max       17
_diffrn_reflns_limit_k_min       -16
_diffrn_reflns_limit_l_max       24
_diffrn_reflns_limit_l_min       -24
_diffrn_reflns_number            25847
_diffrn_reflns_point_group_measured_fraction_full 0.997
_diffrn_reflns_point_group_measured_fraction_max 0.990
_diffrn_reflns_theta_full        25.242
_diffrn_reflns_theta_max         27.485
_diffrn_reflns_theta_min         3.035
_diffrn_source                   'sealed Xray tube'
_exptl_absorpt_coefficient_mu    0.065
_exptl_absorpt_correction_T_max  1.0000
_exptl_absorpt_correction_T_min  0.8397
_exptl_absorpt_correction_type   multi-scan
_exptl_absorpt_process_details
;
T. Higashi (March 2001). Program for Empirical Absorption Correction.
  Rigaku Corporation, Tokyo, Japan
;
_exptl_crystal_colour            Red
_exptl_crystal_density_diffrn    1.156
_exptl_crystal_density_meas      ?
_exptl_crystal_density_method    'not measured'
_exptl_crystal_description       Block
_exptl_crystal_F_000             984
_exptl_crystal_size_max          0.600
_exptl_crystal_size_mid          0.600
_exptl_crystal_size_min          0.200
_refine_diff_density_max         0.680
_refine_diff_density_min         -0.314
_refine_diff_density_rms         0.061
_refine_ls_extinction_method     none
_refine_ls_goodness_of_fit_ref   1.118
_refine_ls_hydrogen_treatment    constr
_refine_ls_matrix_type           full
_refine_ls_number_parameters     746
_refine_ls_number_reflns         11998
_refine_ls_number_restraints     213
_refine_ls_restrained_S_all      1.152
_refine_ls_R_factor_all          0.1067
_refine_ls_R_factor_gt           0.0738
_refine_ls_shift/su_max          0.000
_refine_ls_shift/su_mean         0.000
_refine_ls_structure_factor_coef Fsqd
_refine_ls_weighting_details
'w=1/[\s^2^(Fo^2^)+(0.1440P)^2^+0.5344P] where P=(Fo^2^+2Fc^2^)/3'
_refine_ls_weighting_scheme      calc
_refine_ls_wR_factor_gt          0.2229
_refine_ls_wR_factor_ref         0.2649
_reflns_Friedel_coverage         0.000
_reflns_number_gt                7624
_reflns_number_total             11998
_reflns_threshold_expression     'I > 2\s(I)'
_cod_data_source_file            ol6b00747_si_002.cif
_cod_data_source_block           b-1
_cod_depositor_comments
;
The following automatic conversions were performed:

'_exptl_crystal_density_meas' value 'not measured' was changed to '?'
- the value is perceived as not measured.

Automatic conversion script
Id: cif_fix_values 4268 2015-11-12 08:31:59Z antanas 

 Adding full bibliography for 1543164.cif.
;
_cod_database_code               1543164
_shelx_shelxl_version_number     2014/7
_shelx_space_group_comment
;
The symmetry employed for this shelxl refinement is uniquely defined
by the following loop, which should always be used as a source of
symmetry information in preference to the above space-group names.
They are only intended as comments.
;
_shelx_estimated_absorpt_t_min   0.962
_shelx_estimated_absorpt_t_max   0.987
_shelx_res_file
;

    b-1.res created by SHELXL-2014/7

TITL
REM  Yadorkari-X generated
CELL 0.71075 11.5438 13.2500 19.2482 84.3137 82.5760 64.9172
ZERR 2.0 0.0012 0.0013 0.0020 0.0024 0.0027 0.0024
LATT 1
REM  SPGR P-1 triclinic
SFAC C H
UNIT 142 132
SIZE 0.60 0.60 0.20
TEMP -160.0
L.S. 10
FMAP 2
PLAN -25
ACTA
CONF
HTAB
LIST 4
WPDB -1
BOND $H

SIMU 0.005 C25 C26A C25 C26B
DELU 0.005 C25 C26A C25 C26B
SIMU 0.005 C25 C27A C25 C27B
DELU 0.005 C25 C27A C25 C27B
SIMU 0.005 C25 C28A C25 C28B
DELU 0.005 C25 C28A C25 C28B
SADI 0.02 C57 C58A C57 C59A C57 C60A C57 C58B C57 C59B C57 C60B
SADI 0.04 C35 C58A C35 C59A C35 C60A C35 C58B C35 C59B C35 C60B
SIMU 0.005 C57 C58A C57 C58B
DELU 0.005 C57 C58A C57 C58B
SIMU 0.005 C57 C59A C57 C59B
DELU 0.005 C57 C59A C57 C59B
SIMU 0.005 C57 C60A C57 C60B
DELU 0.005 C57 C60A C57 C60B
SADI 0.02 C29 C30A C29 C31A C29 C32A C29 C30B C29 C31B C29 C32B
SADI 0.02 C30A C32B C32B C31A C31A C30B C30B C32A C32A C31B C31B C30A
SADI 0.04 C8 C30A C8 C31A C8 C32A C8 C30B C8 C31B C8 C32B
SIMU 0.005 C29 C30A C29 C30B
DELU 0.005 C29 C30A C29 C30B
SIMU 0.005 C29 C31A C29 C31B
DELU 0.005 C29 C31A C29 C31B
SIMU 0.005 C29 C32A C29 C32B
DELU 0.005 C29 C32A C29 C32B

WGHT    0.144000    0.534400
FVAR       3.93747   0.76358   0.92129   0.91114
C1    1    0.336659    0.238338    0.210891    11.00000    0.03227    0.02731 =
         0.04023   -0.01063   -0.00331   -0.00460
C2    1    0.363083    0.143874    0.254133    11.00000    0.04138    0.03228 =
         0.03792   -0.00762    0.00089   -0.00717
AFIX  43
H2    2    0.317974    0.150009    0.299549    11.00000   -1.20000
AFIX   0
C3    1    0.455026    0.037975    0.233350    11.00000    0.04259    0.02741 =
         0.04544   -0.00349    0.00094   -0.00396
C4    1    0.519907    0.031402    0.167575    11.00000    0.04107    0.02572 =
         0.04804   -0.00860    0.00507   -0.00301
AFIX  43
H4    2    0.581500   -0.039422    0.152750    11.00000   -1.20000
AFIX   0
C5    1    0.498583    0.125737    0.121232    11.00000    0.03745    0.02743 =
         0.04354   -0.01080    0.00222   -0.00770
C6    1    0.568089    0.120461    0.051772    11.00000    0.04424    0.03090 =
         0.04282   -0.01245    0.00192   -0.01134
C7    1    0.667991    0.019629    0.028205    11.00000    0.04876    0.02959 =
         0.04899   -0.01204    0.00616   -0.00903
AFIX  43
H7    2    0.687765   -0.046181    0.057756    11.00000   -1.20000
AFIX   0
C8    1    0.737873    0.013708   -0.036497    11.00000    0.05137    0.03890 =
         0.04720   -0.01875    0.00992   -0.01236
C9    1    0.709489    0.111255   -0.078787    11.00000    0.06131    0.04464 =
         0.03942   -0.01636    0.00992   -0.02007
AFIX  43
H9    2    0.758619    0.108288   -0.122736    11.00000   -1.20000
AFIX   0
C10   1    0.612025    0.212473   -0.058930    11.00000    0.05400    0.04122 =
         0.04043   -0.01203    0.00010   -0.02168
C11   1    0.586164    0.315464   -0.104657    11.00000    0.06517    0.04527 =
         0.03921   -0.00757   -0.00565   -0.02833
C12   1    0.658433    0.316105   -0.167911    11.00000    0.08435    0.05345 =
         0.04516   -0.00861    0.00209   -0.03534
AFIX  43
H12   2    0.726007    0.248286   -0.183306    11.00000   -1.20000
AFIX   0
C13   1    0.634011    0.415285   -0.210095    11.00000    0.09443    0.06609 =
         0.04288   -0.00322   -0.00104   -0.04748
AFIX  43
H13   2    0.686570    0.413772   -0.252598    11.00000   -1.20000
AFIX   0
C14   1    0.536451    0.512019   -0.190269    11.00000    0.08397    0.05328 =
         0.04561    0.00587   -0.01794   -0.03966
AFIX  43
H14   2    0.519586    0.577891   -0.219465    11.00000   -1.20000
AFIX   0
C15   1    0.459076    0.516277   -0.126452    11.00000    0.06572    0.05063 =
         0.04424    0.00417   -0.02173   -0.03465
C16   1    0.358253    0.618332   -0.103919    11.00000    0.06517    0.04225 =
         0.05764    0.01221   -0.02766   -0.02465
AFIX  43
H16   2    0.340159    0.684508   -0.132950    11.00000   -1.20000
AFIX   0
C17   1    0.288165    0.622042   -0.041793    11.00000    0.05273    0.03925 =
         0.06975    0.00784   -0.02410   -0.01471
AFIX  43
H17   2    0.221922    0.691062   -0.027197    11.00000   -1.20000
AFIX   0
C18   1    0.311945    0.524713    0.001832    11.00000    0.04188    0.04008 =
         0.05445    0.00279   -0.01522   -0.01244
AFIX  43
H18   2    0.260211    0.528737    0.044967    11.00000   -1.20000
AFIX   0
C19   1    0.409446    0.423534   -0.017266    11.00000    0.04487    0.03785 =
         0.04222   -0.00139   -0.01505   -0.01709
C20   1    0.439251    0.322324    0.030083    11.00000    0.04056    0.03227 =
         0.04176   -0.00755   -0.00803   -0.01461
C21   1    0.378513    0.326621    0.095899    11.00000    0.03597    0.02814 =
         0.04302   -0.00861   -0.00566   -0.00772
AFIX  43
H21   2    0.316159    0.396741    0.111376    11.00000   -1.20000
AFIX   0
C22   1    0.403910    0.230982    0.142769    11.00000    0.03556    0.02699 =
         0.03949   -0.00951   -0.00158   -0.00714
C23   1    0.539636    0.218066    0.006924    11.00000    0.04550    0.03315 =
         0.03996   -0.00901   -0.00309   -0.01552
C24   1    0.483197    0.417611   -0.082641    11.00000    0.05301    0.04158 =
         0.04053   -0.00263   -0.01367   -0.02333
C25   1    0.473530   -0.063553    0.283392    11.00000    0.06259    0.03163 =
         0.05455    0.00396    0.00606   -0.00431
PART 1
C26A  1    0.564476   -0.171325    0.253616    21.00000    0.09178    0.03106 =
         0.09278    0.01021    0.03907    0.01079
AFIX 137
H71   2    0.651263   -0.173872    0.246535    21.00000   -1.50000
H72   2    0.538185   -0.178243    0.208548    21.00000   -1.50000
H73   2    0.563994   -0.232980    0.286115    21.00000   -1.50000
AFIX   0
C27A  1    0.338897   -0.070145    0.300253    21.00000    0.06517    0.03835 =
         0.06038    0.00292    0.00352   -0.01568
AFIX 137
H74   2    0.307973   -0.076599    0.256542    21.00000   -1.50000
H75   2    0.276963   -0.002428    0.322966    21.00000   -1.50000
H76   2    0.348433   -0.135488    0.331688    21.00000   -1.50000
AFIX   0
C28A  1    0.510515   -0.044748    0.352802    21.00000    0.06541    0.05874 =
         0.06971    0.02170   -0.01880   -0.00759
AFIX 137
H77   2    0.510287   -0.104127    0.387418    21.00000   -1.50000
H78   2    0.448416    0.027648    0.369859    21.00000   -1.50000
H79   2    0.596573   -0.045698    0.345663    21.00000   -1.50000
PART 2
AFIX   0
C26B  1    0.465875   -0.154607    0.244157   -21.00000    0.07435    0.03149 =
         0.07585    0.00448    0.00397   -0.01196
AFIX 137
H110  2    0.487586   -0.222728    0.274511   -21.00000   -1.50000
H111  2    0.526635   -0.169804    0.201864   -21.00000   -1.50000
H112  2    0.378480   -0.129851    0.230863   -21.00000   -1.50000
AFIX   0
C27B  1    0.637157   -0.119893    0.295139   -21.00000    0.06474    0.04008 =
         0.05662    0.00664   -0.00880    0.00276
AFIX 137
H113  2    0.655151   -0.067244    0.319403   -21.00000   -1.50000
H114  2    0.687713   -0.133740    0.249318   -21.00000   -1.50000
H115  2    0.660310   -0.190270    0.323280   -21.00000   -1.50000
AFIX   0
C28B  1    0.411453   -0.049604    0.351595   -21.00000    0.07377    0.04361 =
         0.06208    0.01311    0.01016   -0.00127
AFIX 137
H116  2    0.319364   -0.003399    0.349615   -21.00000   -1.50000
H117  2    0.447530   -0.012970    0.378758   -21.00000   -1.50000
H118  2    0.424052   -0.122689    0.374108   -21.00000   -1.50000
PART 0
AFIX   0
C29   1    0.846804   -0.095440   -0.061761    11.00000    0.05875    0.03862 =
         0.05861   -0.02237    0.00619   -0.00895
PART 5
C30B  1    0.974010   -0.089617   -0.058742    41.00000    0.06408    0.07081 =
         0.14146   -0.04690   -0.03464    0.00577
AFIX 137
H80B  2    0.994532   -0.100701   -0.009949    41.00000   -1.50000
H81B  2    0.968361   -0.016362   -0.077565    41.00000   -1.50000
H82B  2    1.041612   -0.148014   -0.086754    41.00000   -1.50000
AFIX   0
C31B  1    0.838297   -0.107679   -0.139529    41.00000    0.06960    0.05021 =
         0.04998   -0.01841    0.00974   -0.01834
AFIX 137
H83B  2    0.907200   -0.178170   -0.155238    41.00000   -1.50000
H84B  2    0.847440   -0.045358   -0.167873    41.00000   -1.50000
H85B  2    0.754842   -0.107290   -0.144916    41.00000   -1.50000
AFIX   0
C32B  1    0.833357   -0.195692   -0.023650    41.00000    0.14162    0.02998 =
         0.05375   -0.00694    0.04041    0.00576
AFIX 137
H86B  2    0.746840   -0.190296   -0.026786    41.00000   -1.50000
H87B  2    0.847367   -0.198025    0.025736    41.00000   -1.50000
H88B  2    0.897135   -0.263837   -0.045159    41.00000   -1.50000
PART 6
AFIX   0
C30A  1    0.781435   -0.162438   -0.088833   -41.00000    0.07514    0.05292 =
         0.08700   -0.02231   -0.00141   -0.01871
AFIX 137
H80A  2    0.702222   -0.110766   -0.108794   -41.00000   -1.50000
H81A  2    0.760826   -0.207405   -0.049837   -41.00000   -1.50000
H82A  2    0.839821   -0.211610   -0.125026   -41.00000   -1.50000
AFIX   0
C31A  1    0.929546   -0.157365   -0.005267   -41.00000    0.07276    0.05130 =
         0.06570    0.00367    0.02463    0.02079
AFIX 137
H83A  2    0.945982   -0.105092    0.020275   -41.00000   -1.50000
H84A  2    1.011250   -0.212852   -0.025857   -41.00000   -1.50000
H85A  2    0.886137   -0.195109    0.027150   -41.00000   -1.50000
AFIX   0
C32A  1    0.944999   -0.102959   -0.121864   -41.00000    0.06010    0.04413 =
         0.05640   -0.03885    0.00843    0.00031
AFIX 137
H86A  2    1.012298   -0.179266   -0.123108   -41.00000   -1.50000
H87A  2    0.983153   -0.051153   -0.116225   -41.00000   -1.50000
H88A  2    0.904112   -0.083401   -0.165778   -41.00000   -1.50000
PART 0
AFIX   0
C33   1    0.229695    0.345260    0.234469    11.00000    0.03362    0.02565 =
         0.03767   -0.00911    0.00030   -0.00476
C34   1    0.123956    0.394337    0.197074    11.00000    0.03592    0.02974 =
         0.03923   -0.01402   -0.00291   -0.00571
AFIX  43
H34   2    0.123152    0.361218    0.155669    11.00000   -1.20000
AFIX   0
C35   1    0.016592    0.492205    0.218086    11.00000    0.03480    0.03123 =
         0.03841   -0.01150   -0.00508   -0.00695
C36   1    0.019086    0.536827    0.279480    11.00000    0.03104    0.02632 =
         0.03901   -0.00995   -0.00314   -0.00229
AFIX  43
H36   2   -0.053717    0.601094    0.295286    11.00000   -1.20000
AFIX   0
C37   1    0.124890    0.491084    0.319544    11.00000    0.03235    0.02680 =
         0.03192   -0.00786   -0.00201   -0.00618
C38   1    0.127582    0.538045    0.384306    11.00000    0.03185    0.02752 =
         0.03234   -0.00762   -0.00194   -0.00763
C39   1    0.024905    0.636678    0.408459    11.00000    0.03218    0.02979 =
         0.03440   -0.00792   -0.00334   -0.00582
AFIX  43
H39   2   -0.046529    0.672755    0.381612    11.00000   -1.20000
AFIX   0
C40   1    0.025050    0.682367    0.469894    11.00000    0.03421    0.02997 =
         0.03685   -0.01051    0.00114   -0.00883
C41   1    0.130712    0.626326    0.509104    11.00000    0.03860    0.03224 =
         0.03363   -0.00889   -0.00240   -0.01191
AFIX  43
H41   2    0.131373    0.656361    0.551790    11.00000   -1.20000
AFIX   0
C42   1    0.234174    0.529091    0.488326    11.00000    0.03562    0.02869 =
         0.03414   -0.00311   -0.00531   -0.01182
C43   1    0.343766    0.472561    0.531002    11.00000    0.03870    0.03287 =
         0.03593   -0.00098   -0.00620   -0.01370
C44   1    0.345550    0.509372    0.595643    11.00000    0.04602    0.03686 =
         0.03799   -0.00296   -0.00818   -0.01112
AFIX  43
H44   2    0.272167    0.570862    0.614137    11.00000   -1.20000
AFIX   0
C45   1    0.452087    0.458819    0.634580    11.00000    0.05392    0.04475 =
         0.03977   -0.00003   -0.01051   -0.01923
AFIX  43
H45   2    0.450410    0.486612    0.678512    11.00000   -1.20000
AFIX   0
C46   1    0.558020    0.369915    0.609548    11.00000    0.04471    0.04356 =
         0.04216    0.00712   -0.01380   -0.01821
AFIX  43
H46   2    0.630565    0.337246    0.635792    11.00000   -1.20000
AFIX   0
C47   1    0.561617    0.325526    0.545079    11.00000    0.03921    0.03644 =
         0.04030    0.00539   -0.00629   -0.01416
C48   1    0.668709    0.232790    0.518977    11.00000    0.03592    0.04418 =
         0.04896    0.00475   -0.00969   -0.01023
AFIX  43
H48   2    0.741606    0.198661    0.544889    11.00000   -1.20000
AFIX   0
C49   1    0.669659    0.190958    0.456970    11.00000    0.03757    0.04375 =
         0.05738   -0.00460   -0.00956   -0.00213
AFIX  43
H49   2    0.742805    0.127735    0.440187    11.00000   -1.20000
AFIX   0
C50   1    0.563787    0.240424    0.417918    11.00000    0.03620    0.03878 =
         0.04789   -0.00673   -0.00739   -0.00372
AFIX  43
H50   2    0.565951    0.209337    0.375108    11.00000   -1.20000
AFIX   0
C51   1    0.455351    0.333813    0.439867    11.00000    0.03563    0.03130 =
         0.03836   -0.00120   -0.00560   -0.01102
C52   1    0.344395    0.387125    0.398413    11.00000    0.03108    0.02602 =
         0.03494   -0.00363   -0.00180   -0.00808
C53   1    0.341666    0.346948    0.336068    11.00000    0.03245    0.02662 =
         0.03682   -0.00532   -0.00152   -0.00548
AFIX  43
H53   2    0.415473    0.285023    0.318401    11.00000   -1.20000
AFIX   0
C54   1    0.233137    0.393851    0.296543    11.00000    0.03036    0.02785 =
         0.03157   -0.00750    0.00020   -0.00520
C55   1    0.234442    0.484680    0.423904    11.00000    0.03274    0.02672 =
         0.03229   -0.00402   -0.00176   -0.00927
C56   1    0.452379    0.377614    0.505196    11.00000    0.03689    0.03107 =
         0.03665    0.00238   -0.00554   -0.01340
C57   1   -0.099960    0.547337    0.175322    11.00000    0.03687    0.04009 =
         0.04794   -0.01483   -0.01113   -0.00238
PART 3
C58A  1   -0.080177    0.493079    0.106789    31.00000    0.05264    0.06861 =
         0.06487   -0.03579   -0.02543    0.00814
AFIX 137
H89A  2   -0.067078    0.415117    0.116221    31.00000   -1.50000
H90A  2   -0.004514    0.495989    0.078619    31.00000   -1.50000
H91A  2   -0.156098    0.532915    0.081047    31.00000   -1.50000
AFIX   0
C59A  1   -0.123715    0.670037    0.158089    31.00000    0.04913    0.04280 =
         0.04672   -0.00001   -0.01113   -0.00596
AFIX 137
H92A  2   -0.048396    0.673456    0.129817    31.00000   -1.50000
H93A  2   -0.138668    0.707861    0.201766    31.00000   -1.50000
H94A  2   -0.199212    0.706952    0.131706    31.00000   -1.50000
AFIX   0
C60A  1   -0.218632    0.543839    0.219174    31.00000    0.03806    0.04659 =
         0.07097   -0.00692   -0.01306   -0.01077
AFIX 137
H95A  2   -0.293217    0.579469    0.192008    31.00000   -1.50000
H96A  2   -0.234819    0.583733    0.262114    31.00000   -1.50000
H97A  2   -0.203909    0.466073    0.231501    31.00000   -1.50000
PART 4
AFIX   0
C58B  1   -0.200960    0.651502    0.204145   -31.00000    0.03378    0.04800 =
         0.05505   -0.01125   -0.02108    0.00962
AFIX 137
H89B  2   -0.260264    0.691991    0.168639   -31.00000   -1.50000
H90B  2   -0.161080    0.698256    0.217129   -31.00000   -1.50000
H91B  2   -0.248384    0.633202    0.245742   -31.00000   -1.50000
AFIX   0
C59B  1   -0.147389    0.453130    0.175075   -31.00000    0.04105    0.04635 =
         0.06202   -0.00652   -0.01215   -0.00535
AFIX 137
H92B  2   -0.087802    0.395497    0.143669   -31.00000   -1.50000
H93B  2   -0.233279    0.484767    0.158695   -31.00000   -1.50000
H94B  2   -0.150848    0.420014    0.222708   -31.00000   -1.50000
AFIX   0
C60B  1   -0.041340    0.547136    0.097397   -31.00000    0.04113    0.04046 =
         0.05154   -0.00996   -0.01419    0.00506
AFIX 137
H95B  2   -0.109735    0.570159    0.066147   -31.00000   -1.50000
H96B  2    0.022857    0.471861    0.086770   -31.00000   -1.50000
H97B  2   -0.000398    0.599262    0.090432   -31.00000   -1.50000
PART 0
AFIX   0
C61   1   -0.085458    0.789755    0.496742    11.00000    0.03326    0.02909 =
         0.03916   -0.01240    0.00091   -0.00477
C62   1   -0.197066    0.834668    0.450759    11.00000    0.04377    0.04892 =
         0.06681   -0.02888   -0.01071    0.00451
AFIX 137
H98   2   -0.166639    0.851540    0.403013    11.00000   -1.50000
H99   2   -0.265132    0.902792    0.470100    11.00000   -1.50000
H100  2   -0.230963    0.778460    0.449692    11.00000   -1.50000
AFIX   0
C63   1   -0.036455    0.880237    0.498432    11.00000    0.04805    0.03198 =
         0.06359   -0.00978    0.00060   -0.00912
AFIX 137
H101  2   -0.003671    0.895803    0.450953    11.00000   -1.50000
H102  2    0.032711    0.854370    0.529386    11.00000   -1.50000
H103  2   -0.107049    0.948431    0.516039    11.00000   -1.50000
AFIX   0
C64   1   -0.136002    0.766587    0.571049    11.00000    0.05309    0.04584 =
         0.05220   -0.01200    0.01406   -0.00948
AFIX 137
H104  2   -0.209885    0.833767    0.587323    11.00000   -1.50000
H105  2   -0.068089    0.745716    0.602392    11.00000   -1.50000
H106  2   -0.162486    0.705402    0.571144    11.00000   -1.50000
AFIX   0
C65   1   -0.117695    0.096512    0.269963    11.00000    0.09337    0.08199 =
         0.06522   -0.00230    0.01946   -0.03844
C66   1   -0.014942    0.021358    0.299959    11.00000    0.09151    0.09571 =
         0.06750   -0.01370    0.01127   -0.03927
AFIX  43
H66   2    0.026424    0.046479    0.329418    11.00000   -1.20000
AFIX   0
C67   1    0.034277   -0.094390    0.289294    11.00000    0.09136    0.10431 =
         0.06959   -0.00738    0.00919   -0.04341
AFIX  43
H67   2    0.107179   -0.145755    0.311427    11.00000   -1.20000
AFIX   0
C68   1   -0.023245   -0.130465    0.247632    11.00000    0.11517    0.08705 =
         0.09486   -0.00647    0.00363   -0.06199
AFIX  43
H68   2    0.009600   -0.207360    0.238610    11.00000   -1.20000
AFIX   0
C69   1   -0.132700   -0.052578    0.217673    11.00000    0.14993    0.08812 =
         0.15415    0.00777   -0.05533   -0.05920
AFIX  43
H69   2   -0.175110   -0.076544    0.188166    11.00000   -1.20000
AFIX   0
C70   1   -0.178526    0.057517    0.230743    11.00000    0.13447    0.09311 =
         0.12763    0.00655   -0.03431   -0.06102
AFIX  43
H70   2   -0.255355    0.108683    0.211891    11.00000   -1.20000
AFIX   0
C71   1   -0.165279    0.218767    0.279198    11.00000    0.16257    0.08307 =
         0.09763   -0.02522    0.04122   -0.04726
AFIX 137
H107  2   -0.126766    0.230315    0.318485    11.00000   -1.50000
H108  2   -0.259037    0.251635    0.288955    11.00000   -1.50000
H109  2   -0.141228    0.254497    0.236207    11.00000   -1.50000

AFIX   0
HKLF 4 1 1 0 0 0 1 0 0 0 1

REM
REM R1 =  0.0738 for    7624 Fo > 4sig(Fo)  and  0.1067 for all   11998 data
REM    746 parameters refined using    213 restraints

END

WGHT      0.1440      0.5344

REM No hydrogen bonds found for HTAB generation

REM Highest difference peak  0.680,  deepest hole -0.314,  1-sigma level  0.061
Q1    1   0.9617 -0.1493  0.0195  11.00000  0.05    0.68
Q2    1  -0.2309  0.1515  0.2434  11.00000  0.05    0.44
Q3    1   0.8684 -0.1331 -0.0252  11.00000  0.05    0.31
Q4    1  -0.0484 -0.0155  0.2682  11.00000  0.05    0.31
Q5    1   0.4618  0.3122  0.1550  11.00000  0.05    0.31
Q6    1  -0.2262  0.7772  0.4783  11.00000  0.05    0.31
Q7    1   0.6431  0.2098  0.0691  11.00000  0.05    0.30
Q8    1   0.8849 -0.1939 -0.0007  11.00000  0.05    0.30
Q9    1   0.0633  0.4943  0.3014  11.00000  0.05    0.29
Q10   1   0.7816 -0.2115 -0.0021  11.00000  0.05    0.28
Q11   1   0.4375  0.6867 -0.0914  11.00000  0.05    0.25
Q12   1   0.9333 -0.1246 -0.0998  11.00000  0.05    0.25
Q13   1   0.2788  0.3560  0.3181  11.00000  0.05    0.25
Q14   1  -0.0246  0.7276  0.4860  11.00000  0.05    0.25
Q15   1   0.1797  0.4351  0.3109  11.00000  0.05    0.24
Q16   1   0.4640  0.6756 -0.1207  11.00000  0.05    0.24
Q17   1   0.5949  0.3670  0.5598  11.00000  0.05    0.24
Q18   1   0.2774  0.4938  0.5117  11.00000  0.05    0.24
Q19   1   0.3214  0.3415  0.3779  11.00000  0.05    0.24
Q20   1   0.1240  0.5038  0.3499  11.00000  0.05    0.24
Q21   1  -0.0782  0.8783  0.4492  11.00000  0.05    0.24
Q22   1  -0.0713  0.8254  0.5618  11.00000  0.05    0.24
Q23   1   0.4350  0.3307  0.4765  11.00000  0.05    0.23
Q24   1   0.2130  0.3309  0.2691  11.00000  0.05    0.23
Q25   1   0.2761  0.2942  0.2228  11.00000  0.05    0.23
;
_shelx_res_checksum              8261
_shelx_hkl_file
;
   0   0   337281.37  787.22
   0   0  -337491.64  783.37
   0   0   4165480.0 5577.81
   0   0  -4165518.0 5514.44
   0   0   5  468.98   52.71
   0   0  -5  458.83   50.34
   0   0   6 3059.29   96.28
   0   0   6 2885.38   78.95
   0   0  -6 2948.74   92.50
   0   0   7   92.60   31.34
   0   0   7  228.15   40.41
   0   0  -7   91.43   38.39
   0   0   8 3853.82  175.58
   0   0   8 3789.36   95.54
   0   0  -8 3878.19  174.34
   0   0   9 3211.83  132.29
   0   0   9 3051.58  163.11
   0   0  -9 2959.65  101.36
   0   0  1015163.98  349.99
   0   0  1015109.92  317.01
   0   0 -1015754.39  363.90
   0   0  11 6546.98  172.42
   0   0  11 6754.74  153.13
   0   0 -11 6602.47  175.22
   0   0  12  543.46   82.28
   0   0  12  573.60   59.24
   0   0 -12  635.64  105.01
   0   0  13   70.81   33.13
   0   0  13   77.63   74.52
   0   0 -13   30.12   77.44
   0   0  14  295.74   58.27
   0   0  14  308.98   45.30
   0   0 -14  336.63   59.67
   0   0  15 1577.47   75.94
   0   0  15 1488.40   93.64
   0   0 -15 1586.73   98.33
   0   0  16  935.09   81.18
   0   0  16  852.67  108.86
   0   0 -16 1027.34  148.08
   0   0  17   -7.41   32.44
   0   0  17   -6.22   71.53
   0   0 -17   22.13   80.20
   0   0  18  758.83   66.23
   0   0  18  870.67   81.85
   0   0 -18  750.16   91.81
   0   0  19  300.27   68.52
   0   0  19  340.46   93.26
   0   0 -19  317.74   76.84
   0   0  20  150.49   46.86
   0   0  20   72.74   62.16
   0   0 -20  150.69  122.45
   0   0  21   16.41  111.82
   0   0  21  154.54   48.67
   0   0 -21  148.92  126.31
   0   0  22   18.59   68.41
   0   0  22   69.49   67.89
   0   0  22   -0.88   52.62
   0   0 -22   -1.26   59.01
   0   0  23  101.18   45.51
   0   0  23   -3.76   61.32
   0   0 -23   27.85   67.90
   0   0  24   -0.04   68.45
   0   0  24  178.71   49.81
   0   0 -24   11.93  131.13
   0   1 -24  -32.69  125.81
   0  -1  24   -7.50   65.41
   0  -1  24   77.66   39.25
   0   1 -23   13.07   62.25
   0  -1  23   -2.72   54.99
   0  -1  23   28.59   59.78
   0   1 -22    7.50   54.25
   0  -1  22   19.70   83.52
   0  -1  22   -6.55   30.77
   0   1 -21  -34.06   64.86
   0  -1  21  -26.58  102.10
   0  -1  21   82.38   37.61
   0   1 -20  186.82  122.37
   0  -1  20  184.77   70.20
   0  -1  20   18.81   63.56
   0   1 -19  867.98  102.77
   0  -1  19  915.20   94.09
   0  -1  19  837.83   63.72
   0   1 -18  961.48  100.20
   0  -1  18  913.34   93.38
   0  -1  18  976.88   63.19
   0   1 -17 1068.39  171.41
   0  -1  17  961.77  159.88
   0  -1  17 1167.39  106.39
   0   1 -16  762.17   87.39
   0  -1  16  871.68   56.36
   0  -1  16  868.31  142.32
   0   1 -15  651.48   76.45
   0  -1  15  602.32   49.61
   0  -1  15  623.86   72.45
   0   1 -14  328.36  107.60
   0  -1  14  289.57   59.68
   0  -1  14  294.77   67.46
   0   1 -13  859.86   75.38
   0  -1  13  891.02   82.39
   0  -1  13  827.25   72.20
   0   1 -12 1346.55   82.59
   0  -1  12 1264.49   76.38
   0  -1  12 1197.76   53.88
   0   1 -11 1483.10  129.96
   0  -1  11 1558.46   78.14
   0  -1  11 1530.27   54.17
   0   1 -10  518.42   54.00
   0  -1  10  641.73   93.34
   0  -1  10  408.31   59.68
   0   1  -9 7695.48  254.11
   0  -1   9 7443.17  142.64
   0  -1   9 7419.24  252.67
   0   1  -8 4103.93  116.89
   0  -1   8 4043.29   84.76
   0  -1   8 4077.95  179.84
   0   1  -7 2156.68   80.67
   0  -1   7 2210.95   56.55
   0  -1   7 2186.63   84.63
   0   1  -6  108.49   38.86
   0  -1   6  124.43   42.08
   0  -1   6   83.37   39.78
   0   1  -519200.82  408.73
   0  -1   518727.61  397.88
   0  -1   519653.44  418.19
   0   1  -4111779.1 3228.95
   0  -1   4112292.2 3430.31
   0  -1   4109273.1 3079.84
   0   1  -387827.33 2293.52
   0  -1   382729.38 2085.50
   0  -1   391330.06 2507.54
   0   1   325613.91  494.95
   0  -1  -324711.21  478.35
   0   1   430886.84  646.91
   0  -1  -431178.91  741.17
   0   1   572612.69 1902.90
   0  -1  -571910.50 1873.27
   0   1   611285.20  241.98
   0  -1  -610680.50  225.12
   0   1   7 9979.02  215.01
   0   1   711216.83  324.49
   0  -1  -710663.20  231.78
   0   1   820920.60  459.26
   0   1   820783.25  442.60
   0  -1  -821252.37  462.62
   0   1   9 7381.02  276.39
   0   1   9 7430.38  184.60
   0  -1  -9 7370.68  191.90
   0   1  10238816.1 9755.90
   0   1  10217620.5 8796.43
   0  -1 -10231752.1 9198.78
   0   1  11   52.14   65.17
   0   1  11   46.42   35.72
   0  -1 -11    1.63   39.04
   0   1  12 6499.50  162.25
   0   1  12 6219.44  167.07
   0  -1 -12 6310.04  174.57
   0   1  13 1822.51   92.21
   0   1  13 2120.94   85.10
   0  -1 -13 1911.86   95.62
   0   1  14 1810.39  149.96
   0   1  14 1933.82  140.30
   0  -1 -14 1795.06   96.47
   0   1  15  867.82   67.85
   0   1  15  831.21   73.78
   0  -1 -15  774.65  135.56
   0   1  16   59.28   44.45
   0   1  16   82.25   49.05
   0  -1 -16  160.12   92.31
   0   1  17   39.41   70.04
   0   1  17   53.88   77.26
   0  -1 -17    1.63   48.16
   0   1  18   17.39   44.72
   0   1  18    2.82   40.61
   0  -1 -18   36.55   50.26
   0   1  19  206.53   55.66
   0   1  19  118.32   61.95
   0  -1 -19  165.95   68.29
   0   1  20 1051.40  174.92
   0   1  20  775.98  149.26
   0  -1 -20 2162.18  215.53
   0   1  21   69.30   48.89
   0   1  21   -0.56   54.75
   0  -1 -21  167.38  108.79
   0   1  22   -0.39   50.75
   0  -1 -22   17.07   57.48
   0   1  23    0.28   50.53
   0   1  23   38.83   75.84
   0  -1 -23    7.72   57.52
   0   1  24   35.68   47.12
   0   1  24   -4.02   97.80
   0  -1 -24   17.86   63.92
   0   2 -24   13.20   82.69
   0  -2  24   -4.16   77.18
   0  -2  24  194.39   64.97
   0   2 -23   20.60  131.61
   0  -2  23    8.30  119.76
   0  -2  23   86.07   35.52
   0   2 -22    2.66   55.72
   0  -2  22   -6.12   87.97
   0   2 -21  474.25   87.96
   0  -2  21   58.59   80.60
   0  -2  21  329.24   72.30
   0   2 -20  588.34  179.33
   0  -2  20  685.44   52.28
   0  -2  20  775.32   94.80
   0   2 -19  134.59   68.91
   0  -2  19   87.06   63.87
   0  -2  19   98.21   34.28
   0   2 -18   49.87   57.43
   0  -2  18  -17.92   49.83
   0  -2  18   53.15   53.79
   0   2 -17  551.07  169.28
   0  -2  17  698.53   83.54
   0  -2  17  677.34  154.52
   0   2 -16  869.55  105.84
   0  -2  16  863.64   54.44
   0  -2  16  787.80  176.00
   0   2 -15  114.44   60.66
   0  -2  15  122.64   31.66
   0  -2  15    7.17  108.82
   0   2 -14   18.74   46.39
   0  -2  14   11.09   46.35
   0  -2  14   44.17   42.95
   0   2 -13  222.22   57.06
   0  -2  13  232.64   57.42
   0  -2  13  276.00   52.88
   0   2 -12 6548.30  279.35
   0  -2  12 6655.12  190.72
   0  -2  12 6953.00  138.59
   0   2 -11  425.23   56.53
   0  -2  11  480.53   55.27
   0  -2  11  361.48   28.76
   0   2 -10 1744.92  137.30
   0  -2  10 1643.52   81.61
   0  -2  10 1753.31   72.39
   0   2  -9 3317.08  109.08
   0  -2   9 3389.13   93.58
   0  -2   9 3390.39  172.25
   0   2  -8 4756.54  132.36
   0  -2   8 4649.42  196.64
   0  -2   8 5005.51  113.19
   0   2  -711317.70  329.82
   0  -2   711160.26  249.38
   0  -2   711455.65  217.37
   0   2  -6 5204.37  133.66
   0  -2   6 5302.36  140.31
   0  -2   6 5343.02  105.31
   0   2  -5  533.08   51.45
   0  -2   5  596.36   29.98
   0  -2   5  555.93   54.42
   0   2  -442605.91 1085.57
   0  -2   442103.76  955.52
   0  -2   436153.56  726.26
   0   2  -3105493.6 3000.37
   0   2  -216284.46  226.58
   0   2  -130699.35  637.99
   0   2   0128276.4 3789.56
   0  -2   0127964.1 3901.82
   0   2   112956.44  305.50
   0  -2  -112307.56  225.75
   0   2   2251114.3 9335.93
   0  -2  -2250253.6 9281.75
   0   2   3  630.27   50.14
   0  -2  -3  735.28   86.10
   0   2   413230.43  280.77
   0  -2  -412289.22  361.00
   0   2   5 6224.57  215.65
   0  -2  -5 5911.99  208.87
   0   2   6  312.62   44.30
   0  -2  -6  275.36   75.19
   0   2   711705.16  258.32
   0  -2  -711401.18  248.26
   0   2   8 7046.63  168.67
   0   2   8 7129.35  167.85
   0  -2  -8 7361.53  238.79
   0   2   924336.65  552.48
   0   2   923782.32  651.37
   0  -2  -923956.26  547.58
   0   2  1034997.83  854.25
   0   2  1035565.46  858.04
   0  -2 -1034887.65  845.91
   0   2  11  206.04   82.68
   0   2  11  193.65   43.61
   0  -2 -11  202.66   46.58
   0   2  12  168.16   47.72
   0   2  12  172.68   43.67
   0  -2 -12  251.77   47.94
   0   2  13  -10.41   36.10
   0   2  13   18.57   38.09
   0  -2 -13   69.16   38.62
   0   2  14   49.19   39.95
   0   2  14   19.05   38.21
   0  -2 -14    8.39   41.45
   0   2  15  365.12  101.74
   0   2  15  409.92  105.20
   0  -2 -15  394.39   64.97
   0   2  16 1050.39   81.39
   0   2  16 1035.67   83.12
   0  -2 -16 1008.93   88.90
   0   2  17  873.37   80.67
   0   2  17  824.09  130.59
   0  -2 -17  746.33   86.74
   0   2  18   45.40   48.73
   0   2  18    9.93   90.63
   0  -2 -18   78.75   55.75
   0   2  19 1304.30  104.98
   0   2  19 1493.46  108.35
   0  -2 -19 1309.71  117.52
   0   2  20 9941.73  330.07
   0   2  20 9314.72  428.24
   0  -2 -20 9025.37  472.52
   0   2  21  184.89  115.57
   0   2  21  181.57   64.92
   0  -2 -21  211.15  130.13
   0   2  22   66.99   51.22
   0   2  22  -24.18   50.92
   0  -2 -22   25.54   59.20
   0   2  23  143.30   59.07
   0   2  23   -2.09  101.02
   0  -2 -23   12.77   68.91
   0   2  24    1.01   65.70
   0   2  24  590.78  111.67
   0  -2 -24   47.10   78.20
   0   3 -24   26.17   80.84
   0  -3  24   62.06  130.69
   0   3 -23   39.79   67.39
   0  -3  23  -28.85   42.63
   0  -3  23  -19.94  108.82
   0   3 -22  244.81  148.40
   0  -3  22    8.09   78.92
   0  -3  22  177.85   33.30
   0   3 -21  517.62   96.64
   0  -3  21  422.95   64.53
   0  -3  21   14.40   88.89
   0   3 -20  539.89   93.75
   0  -3  20   25.73   88.02
   0  -3  20  466.10   64.47
   0   3 -19 1361.67  221.02
   0  -3  19 1247.47  120.63
   0  -3  19 1225.16   56.46
   0   3 -18  283.42   83.39
   0  -3  18  133.73   79.02
   0  -3  18  245.06   33.60
   0   3 -17  468.22  169.58
   0  -3  17  427.73   89.72
   0  -3  17  458.22   64.14
   0   3 -1618735.33  608.36
   0  -3  1618264.89  517.92
   0  -3  1618322.64  772.19
   0   3 -1534758.61 1054.40
   0  -3  1533259.47  833.16
   0  -3  1534554.73 1282.89
   0   3 -1414331.36  415.00
   0  -3  1414201.64  289.97
   0  -3  1414351.49  549.57
   0   3 -13  844.31   81.38
   0  -3  13  815.71   57.66
   0  -3  13  930.48  136.47
   0   3 -12 3479.05  134.59
   0  -3  12 3652.97  100.57
   0  -3  12 3574.28  207.98
   0   3 -11 1800.98   92.07
   0  -3  11 1861.07   63.43
   0  -3  11 1745.65   89.57
   0   3 -10  505.29   58.71
   0  -3  10  497.50   36.18
   0  -3  10  441.97   57.38
   0   3  -9 1190.50  125.13
   0  -3   9 1107.53   72.16
   0  -3   9 1255.77   43.99
   0   3  -812023.19  276.96
   0  -3   811679.25  268.11
   0  -3   812100.26  208.78
   0   3  -7  265.44   46.07
   0  -3   7  242.72   10.81
   0  -3   7  246.51   48.67
   0   3  -6 1228.38   67.98
   0  -3   6 1321.58   70.87
   0  -3   6 1173.01   29.74
   0   3  -5  101.99   38.02
   0   3  -4 9640.79  213.76
   0   3  -3  425.25   57.75
   0   3  -252356.47 1122.91
   0   3  -1 4990.90  141.65
   0   3   036311.69  813.23
   0  -3   036622.82  813.23
   0   3   122524.85  478.77
   0  -3  -122763.90  581.77
   0   3   271292.03 1824.29
   0  -3  -268637.80 1755.91
   0   3   3  676.12   61.20
   0  -3  -3  784.15   60.39
   0   3   432544.25  712.72
   0  -3  -432092.57  696.91
   0   3   5 1835.85   75.06
   0  -3  -5 1771.90   71.23
   0   3   610347.11  302.27
   0  -3  -610082.96  215.81
   0   3   7 2563.05   87.08
   0  -3  -7 2607.58  142.63
   0   3   8  839.12   63.51
   0   3   8  881.61   56.61
   0  -3  -8  874.13   58.73
   0   3   9 3430.86  102.34
   0   3   9 3668.06  115.92
   0  -3  -9 3486.47  108.65
   0   3  10 2299.04   93.42
   0   3  10 2139.47  130.91
   0  -3 -10 2172.81   86.85
   0   3  11  758.07   57.84
   0   3  11  783.74  116.26
   0  -3 -11  785.40   62.17
   0   3  12 5315.09  147.55
   0   3  12 5211.59  155.75
   0  -3 -12 5209.17  228.40
   0   3  13   74.69   44.15
   0   3  13  -42.17   68.03
   0  -3 -13   57.14   74.80
   0   3  14    8.02   36.82
   0   3  14   30.45   42.06
   0  -3 -14   10.46   41.18
   0   3  15  -58.64   70.20
   0   3  15  -32.03   82.86
   0  -3 -15  -26.84   45.87
   0   3  16 1786.04   97.53
   0   3  16 1838.82  108.26
   0  -3 -16 1739.81  109.20
   0   3  17   70.62   72.66
   0   3  17   24.82   48.19
   0  -3 -17  -12.46   48.62
   0   3  18   43.99   52.56
   0   3  18   13.82   46.24
   0  -3 -18   81.16   94.64
   0   3  19  631.34   79.84
   0   3  19  716.98  157.93
   0  -3 -19  670.85  159.95
   0   3  20  335.77   74.71
   0   3  20  346.92   79.44
   0  -3 -20  405.69  148.86
   0   3  21  569.87   77.16
   0   3  21  480.30   88.29
   0  -3 -21  407.82  153.38
   0   3  22  651.36  158.76
   0   3  22  618.34  140.23
   0  -3 -22  625.88   95.81
   0   3  23  252.90   74.51
   0   3  23  267.45   66.90
   0  -3 -23    9.78   76.95
   0   3  24   17.88   52.08
   0   3  24 -118.81   58.33
   0  -3 -24   21.05   63.34
   0   4 -23  463.70   98.40
   0  -4  23   13.01   97.32
   0   4 -22   23.87   72.81
   0  -4  22   32.22   70.77
   0   4 -21  104.94  135.39
   0  -4  21   54.16   22.64
   0  -4  21   18.18   75.53
   0   4 -20 7367.58  335.82
   0  -4  20 7343.92  325.74
   0   4 -19 8931.36  530.37
   0  -4  19 7387.40  228.67
   0  -4  19 8955.20  349.37
   0   4 -18 1580.96  148.90
   0  -4  18 1510.08   84.74
   0  -4  18 1745.48  151.66
   0   4 -17 2029.54  134.67
   0  -4  17 1658.73   50.98
   0  -4  17 2058.37  225.21
   0   4 -16  309.91   78.03
   0  -4  16  228.75   24.27
   0  -4  16   90.49  139.31
   0   4 -15   42.14   61.18
   0  -4  15  -11.85   17.29
   0  -4  15  -91.69  111.36
   0   4 -14 3211.86  274.57
   0  -4  14 2727.59   61.55
   0  -4  14 3110.01  281.44
   0   4 -13  696.10   81.10
   0  -4  13  553.79   23.66
   0  -4  13  673.49   80.26
   0   4 -12 1218.73   87.54
   0  -4  12 1026.03   27.13
   0  -4  12 1256.67   90.95
   0   4 -11 1321.74   86.41
   0  -4  11 1307.27   89.52
   0  -4  11 1298.28   39.03
   0   4 -10  240.26   52.55
   0  -4  10  192.27   18.35
   0  -4  10  211.50   52.71
   0   4  -915764.88  470.73
   0  -4   915300.59  251.90
   0   4  -8 9051.51  228.32
   0   4  -7 2215.62   98.81
   0   4  -682787.51 2383.10
   0   4  -597561.75 2873.91
   0   4  -4 4315.72  125.36
   0   4  -3   89.55   16.08
   0   4  -2 4212.34   80.48
   0   4  -2 4107.74  126.66
   0   4  -1  171.73   19.21
   0   4  -1  159.29   44.32
   0   4   0 1820.08   80.49
   0  -4   0 1833.56   76.27
   0   4   1 3020.10  157.64
   0  -4  -1 2852.30  151.60
   0   4   2 7002.12  166.79
   0  -4  -2 6893.13  158.65
   0   4   3 1801.91   77.48
   0  -4  -3 1641.80   72.32
   0   4   4 4390.50  119.49
   0  -4  -4 4368.00  116.71
   0   4   5 2108.12   81.03
   0  -4  -5 2273.58  134.81
   0   4   6  482.31   49.61
   0  -4  -6  405.24   89.39
   0   4   7 5783.86  156.10
   0   4   7 6111.48  149.23
   0  -4  -7 6213.85  219.04
   0   4   8  700.58   63.71
   0   4   8  661.01   52.74
   0  -4  -8  774.49   57.13
   0   4   9 1049.55   72.73
   0   4   9  944.25   58.52
   0  -4  -9  986.76   62.31
   0   4  10 2396.30  101.83
   0   4  10 2267.83   85.57
   0  -4 -10 2264.70   90.23
   0   4  11 2939.77  189.33
   0   4  11 2820.39   97.99
   0  -4 -11 2989.86  170.59
   0   4  12   31.29   47.40
   0   4  12   71.67   67.94
   0  -4 -12   92.48   43.65
   0   4  13  206.30   49.08
   0   4  13  265.16   59.60
   0  -4 -13  176.98   54.65
   0   4  14   82.31   54.09
   0   4  14   79.69   44.03
   0  -4 -14   60.99   49.01
   0   4  15   43.74   80.29
   0   4  15  142.32   97.17
   0  -4 -15   55.93   50.96
   0   4  16  546.49   66.27
   0   4  16  612.42   83.57
   0  -4 -16  687.48  133.28
   0   4  17   72.66   75.80
   0   4  17   29.36   54.67
   0  -4 -17   -4.50   90.35
   0   4  18   33.77   46.71
   0   4  18   74.70   58.56
   0  -4 -18   43.58   97.60
   0   4  19  181.80  105.97
   0   4  19  245.46  130.34
   0  -4 -19  297.97  125.97
   0   4  20  819.46   83.27
   0   4  20  734.81  100.43
   0  -4 -20  755.21  164.08
   0   4  21  319.94   79.61
   0   4  21  290.02   65.12
   0  -4 -21   35.00   75.93
   0   4  22  386.58   86.05
   0   4  22  498.42   71.17
   0  -4 -22   31.50   83.71
   0   4  23   44.36  123.31
   0   4  23  129.97   58.88
   0  -4 -23   43.92   69.74
   0   4  24  141.17   71.27
   0   4  24   67.51   79.85
   0  -4 -24   25.59   70.47
   0   5 -23  129.06  160.26
   0   5 -22   21.40   75.42
   0   5 -21  491.14  116.09
   0   5 -20 3660.45  357.30
   0   5 -19 1826.09  152.76
   0  -5  19 1217.17   40.09
   0   5 -18   67.83  128.03
   0  -5  18  -16.49   77.18
   0  -5  18   32.67   14.33
   0   5 -17  541.20   89.52
   0  -5  17  -21.54   86.73
   0   5 -16  252.42  132.60
   0  -5  16    7.63   77.71
   0  -5  16  191.53   14.90
   0   5 -15  928.29   94.46
   0  -5  15  706.43   20.06
   0   5 -14  808.80  153.11
   0  -5  14  584.67   25.77
   0   5 -13  -10.03   47.68
   0   5 -12  766.11  146.18
   0   5 -11 6106.17  198.79
   0   5 -1010123.74  277.34
   0   5  -9 9411.59  252.84
   0   5  -8 7782.45  214.81
   0   5  -7 7229.99  192.08
   0   5  -6 1352.86   78.29
   0   5  -5 8523.54  217.68
   0   5  -4 2317.64   33.55
   0   5  -3 6327.46  254.25
   0   5  -3 6605.46  106.14
   0   5  -2 4581.80  205.92
   0   5  -2 4479.51   70.32
   0   5  -1 4302.63  109.40
   0   5  -1 4102.37  126.36
   0   5   0 8456.10  203.10
   0   5   0 8531.31  157.05
   0  -5   0 8326.13  280.27
   0   5   1  421.24   91.74
   0   5   1  316.01   35.43
   0  -5  -1  436.76   49.58
   0   5   2 5719.61  151.13
   0  -5  -2 5572.19  146.97
   0   5   3 6541.85  252.01
   0  -5  -3 6467.14  249.96
   0   5   4109485.1 3274.24
   0  -5  -4111074.8 3302.62
   0   5   524912.60  539.19
   0   5   519573.63  459.17
   0  -5  -524516.94  530.40
   0   5   610245.10  317.48
   0   5   610075.53  240.81
   0  -5  -610430.07  241.50
   0   5   7  933.13   69.56
   0   5   7  848.02   59.50
   0  -5  -7  864.71  110.42
   0   5   8 2097.94   95.05
   0   5   8 2130.15   81.41
   0  -5  -8 2075.31  140.42
   0   5   9 1103.64   80.41
   0   5   9 1052.85   63.20
   0  -5  -9 1071.32   69.34
   0   5  10  300.26   47.18
   0   5  10  316.45   61.94
   0  -5 -10  381.91   91.71
   0   5  11 1798.36  171.73
   0   5  11 1715.52  134.84
   0  -5 -11 1805.19   90.81
   0   5  12 1237.21  126.76
   0   5  12 1373.10   95.65
   0  -5 -12 1166.56   84.98
   0   5  13  488.25   63.06
   0   5  13  703.64   80.45
   0  -5 -13  543.87  120.62
   0   5  14   30.32   36.70
   0   5  14   13.78   48.85
   0  -5 -14  -33.93   41.47
   0   5  15  843.21  158.94
   0   5  15  759.07  124.74
   0  -5 -15  687.57   81.84
   0   5  16  559.10   68.38
   0   5  16  476.25   86.12
   0  -5 -16  526.31   76.59
   0   5  17 1206.13  144.01
   0   5  17 1306.14  113.81
   0  -5 -17 1189.76  101.53
   0   5  18  638.12   96.35
   0   5  18  677.76   73.83
   0  -5 -18  592.13   85.67
   0   5  19  209.95  107.05
   0   5  19  259.22  140.07
   0  -5 -19  264.44   71.26
   0   5  20   45.10   64.94
   0  -5 -20   29.33   56.45
   0   5  21   18.15   83.69
   0   5  21   45.18   62.76
   0  -5 -21   -1.24   54.67
   0   5  22  204.23   65.36
   0   5  22  226.00   81.84
   0  -5 -22   42.89   71.83
   0   5  23   73.25  117.69
   0   5  23   97.27   88.67
   0  -5 -23  -12.39   61.37
   0   6 -22  420.39  119.19
   0   6 -21   39.81   80.22
   0   6 -20    9.13   69.62
   0   6 -19   62.28  146.81
   0   6 -18  359.41  100.23
   0   6 -17  190.36  147.28
   0   6 -16  235.03   82.28
   0   6 -15    9.77   95.53
   0   6 -14  832.84   98.95
   0   6 -13 1792.14  202.15
   0   6 -12 1379.11  107.03
   0   6 -11 2873.12  139.53
   0   6 -1013824.95  379.01
   0   6  -913611.57  371.76
   0   6  -8  -13.82   43.18
   0   6  -7 8320.66  318.91
   0   6  -6  360.09   57.50
   0   6  -5 4326.54  136.70
   0   6  -5 3938.59  136.26
   0   6  -4 5991.59  261.74
   0   6  -4 5952.31   90.26
   0   6  -3 4407.44  225.15
   0   6  -3 4595.83   68.63
   0   6  -2 5493.71  162.60
   0   6  -2 6145.57  128.12
   0   6  -1 5417.59   99.18
   0   6  -1 5132.84  150.14
   0   6   023635.79  541.24
   0   6   024337.74  681.37
   0  -6   023588.28  541.24
   0   6   142410.96  994.73
   0   6   144070.02 1231.93
   0  -6  -143652.93 1070.72
   0   6   2 7625.33  194.95
   0   6   2 7966.07  172.05
   0  -6  -2 7888.72  280.53
   0   6   3   13.65   35.02
   0   6   3   13.45   28.84
   0  -6  -3   -7.20   63.76
   0   6   4 4585.50  133.86
   0   6   4 4319.65  125.83
   0  -6  -4 4685.61  206.61
   0   6   5  262.25   88.41
   0   6   5  201.65   51.29
   0  -6  -5  253.47   90.68
   0   6   6  952.77   64.72
   0   6   6 1048.30   72.73
   0  -6  -6  923.28   70.07
   0   6   7  166.39   43.17
   0   6   7  131.09   49.78
   0  -6  -7  218.23   46.65
   0   6   8 3312.87  107.50
   0   6   8 3545.53  127.07
   0  -6  -8 3360.62  116.59
   0   6   9 5971.55  161.84
   0   6   9 6373.29  187.77
   0  -6  -9 6174.67  253.86
   0   6  10  156.72   45.96
   0   6  10  172.30  103.60
   0  -6 -10  178.78   51.71
   0   6  11 1882.52  150.76
   0   6  11 1751.72  111.13
   0  -6 -11 1762.59  164.62
   0   6  12  -43.65   66.90
   0   6  12   45.53   49.78
   0  -6 -12  -27.97   42.59
   0   6  13 1965.33  147.01
   0   6  13 2075.82  112.26
   0  -6 -13 2121.99  123.04
   0   6  1454960.13 1713.12
   0   6  1452344.59 1563.90
   0  -6 -1454177.27 1867.47
   0   6  15 9076.93  471.53
   0   6  15 9650.47  387.68
   0  -6 -15 8624.24  275.80
   0   6  16  819.03   81.29
   0   6  16  774.75  105.91
   0  -6 -16  722.23   90.76
   0   6  17  -27.44   45.26
   0   6  17   -5.39   61.33
   0  -6 -17  -11.82   51.73
   0   6  18  -21.54   47.08
   0   6  18  -48.36   62.80
   0  -6 -18   10.03   53.14
   0   6  19  362.51   66.27
   0   6  19  262.86  161.74
   0  -6 -19  287.92   77.04
   0   6  20   71.06   81.80
   0   6  20  167.94  100.83
   0  -6 -20  170.94   68.06
   0   6  21   68.22   49.96
   0   6  21   28.06   71.99
   0  -6 -21   -0.50   60.17
   0   6  22   27.30   76.16
   0   6  22  -39.45   64.66
   0  -6 -22    2.84   53.66
   0   6  23  -94.38   33.27
   0   6  23 -190.46  142.69
   0  -6 -23   -0.36   67.60
   0   7 -21  948.96  150.24
   0   7 -20  966.11  141.10
   0   7 -19  134.83   87.90
   0   7 -18  346.59  176.94
   0   7 -17   13.80   64.66
   0   7 -16  753.13  183.90
   0   7 -15  122.46   73.45
   0   7 -14   28.72  105.65
   0   7 -13 2307.53  140.32
   0   7 -12   41.93  102.06
   0   7 -11  950.05   96.50
   0   7 -10  315.03   71.33
   0   7  -9 1302.44  173.17
   0   7  -8    5.72   44.10
   0   7  -7  584.56   72.96
   0   7  -6  -43.14   75.32
   0   7  -6    3.59   43.08
   0   7  -5  406.58   62.46
   0   7  -5  376.91   64.49
   0   7  -4  414.26   21.75
   0   7  -4  357.34  111.50
   0   7  -3 1082.72   41.74
   0   7  -3 1043.81   76.05
   0   7  -2 2316.70   71.46
   0   7  -2 2121.49   97.76
   0   7  -1  -28.90   43.37
   0   7  -1  593.80   58.58
   0   7   062024.24 1711.65
   0   7   064247.34 1651.52
   0  -7   064586.30 1759.74
   0   7   154182.35 1452.83
   0   7   156459.66 1535.69
   0  -7  -155932.45 1469.87
   0   7   2 1789.25  117.75
   0   7   2 1811.86   92.24
   0  -7  -2 1844.12   91.58
   0   7   3 6573.24  214.72
   0   7   3 6352.40  170.70
   0  -7  -3 6450.15  252.74
   0   7   4 2815.03   96.09
   0   7   4 2747.27  105.20
   0  -7  -4 2776.19  173.51
   0   7   5  105.83   42.39
   0   7   5  150.79   43.40
   0  -7  -5   86.31   45.15
   0   7   6 1423.82   79.80
   0   7   6 1318.60   75.39
   0  -7  -6 1397.84   79.31
   0   7   7  237.14   46.76
   0   7   7  195.67   94.25
   0  -7  -7  218.40   50.83
   0   7   8 1385.04  153.28
   0   7   8 1485.10   79.52
   0  -7  -8 1207.98  141.65
   0   7   9 1377.96  172.49
   0   7   9 1427.88   86.43
   0  -7  -9 1396.81   90.67
   0   7  1019696.22  508.70
   0   7  1019550.97  524.58
   0  -7 -1019434.55  514.60
   0   7  1110638.63  295.84
   0   7  1111163.89  340.49
   0  -7 -1110522.24  322.76
   0   7  12 2818.20  159.21
   0   7  12 2689.25  210.08
   0  -7 -12 2739.90  227.81
   0   7  13 3694.55  147.50
   0   7  13 3660.03  193.67
   0  -7 -13 3740.60  167.93
   0   7  1416599.44  473.16
   0   7  1417418.10  736.95
   0  -7 -1416341.76  492.99
   0   7  15 1090.43   98.75
   0   7  15 1092.92  235.50
   0  -7 -15 1073.72  189.98
   0   7  16   69.90   76.57
   0   7  16   63.38   93.47
   0  -7 -16  -30.80  107.93
   0   7  17 1728.94  110.96
   0   7  17 2046.82  153.22
   0  -7 -17 1625.84  126.20
   0   7  18 3221.75  229.38
   0   7  18 3553.87  196.27
   0  -7 -18 3025.99  161.41
   0   7  19   99.59   56.07
   0   7  19   64.48  142.00
   0  -7 -19   81.74   64.29
   0   7  20   91.87   50.85
   0   7  20   75.70   77.83
   0  -7 -20   -1.80   62.80
   0   7  21   85.51   49.32
   0   7  21   31.87   78.93
   0  -7 -21   -1.43   63.18
   0   7  22  -37.30   32.25
   0   7  22   70.82   74.82
   0  -7 -22   -0.72   58.45
   0   8 -20  462.09  125.06
   0   8 -19 -104.46  160.87
   0   8 -18   42.92   77.18
   0   8 -17  421.48  180.37
   0   8 -16   58.02   73.84
   0   8 -15  183.36  146.32
   0   8 -14  326.60   90.64
   0   8 -13 1380.17  216.66
   0   8 -12  349.68   87.66
   0   8 -11 2560.86  245.67
   0   8 -10  805.77  100.76
   0   8  -9  876.85   96.98
   0   8  -9  903.95  102.21
   0   8  -8 1456.97  112.83
   0   8  -8 1363.63  181.27
   0   8  -7   69.98   55.47
   0   8  -7   14.96  101.79
   0   8  -6 1915.59  116.58
   0   8  -6 1814.31  116.00
   0   8  -5   90.21   67.46
   0   8  -5  299.69   12.09
   0   8  -5  363.29  122.98
   0   8  -4 2646.36  129.09
   0   8  -4 2688.44   60.10
   0   8  -3 1897.73  105.70
   0   8  -3 1900.47   40.78
   0   8  -2    6.16   14.64
   0   8  -2  -55.43   72.26
   0   8  -1 1274.65   90.04
   0   8  -1 1400.99   45.82
   0   8   011072.28  275.16
   0   8   010041.31  267.99
   0   8   1 1861.62  100.35
   0   8   1 1840.75   66.19
   0  -8  -1 1969.37  102.10
   0   8   2 5223.44  161.67
   0   8   2 5357.03  130.15
   0  -8  -2 5348.22  162.06
   0   8   3  283.04   57.42
   0   8   3  331.33   43.89
   0  -8  -3  317.05   56.56
   0   8   4  253.34   54.70
   0   8   4  268.16   45.17
   0  -8  -4  238.35   55.13
   0   8   5  521.76   58.16
   0   8   5  527.70   63.14
   0  -8  -5  547.59  113.35
   0   8   6  285.75   55.18
   0   8   6  271.21   54.61
   0  -8  -6  262.51   57.84
   0   8   7  744.96   72.03
   0   8   7  661.95   68.84
   0  -8  -7  662.84   72.21
   0   8   8   74.21   52.67
   0   8   8   39.35   82.96
   0  -8  -8   23.75   87.50
   0   8   9  906.23  100.76
   0   8   9 1028.76  155.48
   0  -8  -9  656.59   92.95
   0   8  1040357.03 1118.67
   0   8  1041932.66 1226.90
   0  -8 -1040651.35 1392.19
   0   8  1146532.59 1397.86
   0   8  1145908.31 1344.89
   0  -8 -1144789.60 1330.91
   0   8  12 3827.24  158.94
   0   8  12 3707.75  192.67
   0  -8 -12 4776.84  285.73
   0   8  1311682.51  536.23
   0   8  1311232.78  320.99
   0  -8 -1311704.60  352.94
   0   8  14  300.31  112.13
   0   8  14  180.59  148.89
   0  -8 -14  146.26   70.36
   0   8  15 2270.21  160.86
   0   8  15 2085.35  118.71
   0  -8 -15 1864.20  128.23
   0   8  16 6082.09  265.57
   0   8  16 5849.40  207.75
   0  -8 -16 5814.15  344.90
   0   8  17   70.82   91.69
   0   8  17   31.76   76.85
   0  -8 -17   48.83   59.52
   0   8  18  858.36  214.02
   0   8  18  710.09   82.64
   0  -8 -18  773.84   95.14
   0   8  19   38.36   83.71
   0   8  19   61.47  130.95
   0  -8 -19    3.59   57.28
   0   8  20  353.07   67.00
   0   8  20  298.77  103.03
   0  -8 -20    1.34   80.40
   0   8  21  168.18   74.24
   0   8  21  240.76   94.28
   0  -8 -21   -0.31   73.47
   0   9 -19  151.75   98.97
   0   9 -18   51.13   85.10
   0   9 -17  140.45   89.89
   0   9 -16  443.86  107.11
   0   9 -15  160.84   87.61
   0   9 -14  670.41  112.45
   0   9 -13  218.41   87.11
   0   9 -12   80.78   73.57
   0   9 -11   20.27   61.49
   0   9 -11  -23.43   58.30
   0   9 -10   58.50  114.54
   0   9 -10   13.30   66.95
   0   9  -9 1836.74  235.30
   0   9  -9 1902.44  136.89
   0   9  -8    0.95   98.41
   0   9  -8  -22.35   57.96
   0   9  -7  117.42   65.83
   0   9  -7   68.55   64.33
   0   9  -6  -10.60   59.24
   0   9  -6  109.30   58.83
   0   9  -5  205.70   66.50
   0   9  -5  163.01   12.97
   0   9  -5   42.31   65.02
   0   9  -4  151.07   14.02
   0   9  -4  174.44   69.08
   0   9  -3 2298.36  220.57
   0   9  -3 1439.73   64.49
   0   9  -226586.17  649.62
   0   9  -226405.60  739.09
   0   9  -119000.50  528.26
   0   9  -119658.66  415.94
   0   9   0 7661.83  350.68
   0   9   0 6684.17  152.30
   0   9   1  193.32   67.11
   0   9   1  158.96   35.06
   0  -9  -1  186.02   60.08
   0   9   2 1423.44  106.46
   0   9   2 1307.30   94.32
   0  -9  -2 1320.29  159.72
   0   9   3   71.23   63.78
   0   9   3   48.28   51.02
   0  -9  -3   71.44   50.54
   0   9   4  825.60   79.19
   0   9   4  823.14   63.54
   0  -9  -4  836.23   79.91
   0   9   5  280.24   64.35
   0   9   5  316.44   54.36
   0  -9  -5  242.82  114.54
   0   9   6 3354.32  132.66
   0   9   6 3411.42  216.91
   0  -9  -6 3503.24  139.19
   0   9   7   53.52   47.13
   0   9   7   22.48   86.03
   0  -9  -7   35.44   50.44
   0   9   8 1246.92   97.95
   0   9   8 1273.77   91.61
   0  -9  -8 1220.78  167.67
   0   9   9  -23.03   51.75
   0   9   9   21.14   47.13
   0  -9  -9  -36.10   51.38
   0   9  1020087.99  752.69
   0   9  1020025.42  538.60
   0  -9 -1019513.75  700.40
   0   9  11 2210.57  237.69
   0   9  11 2339.14  122.07
   0  -9 -11 2129.37  130.49
   0   9  12   89.95  123.40
   0   9  12   77.65   97.27
   0  -9 -12  114.32   60.45
   0   9  13   65.15   49.03
   0   9  13   12.74   66.45
   0  -9 -13   29.15   96.57
   0   9  14  711.54   80.09
   0   9  14  722.45  109.00
   0  -9 -14  715.30   89.58
   0   9  15  257.82   87.41
   0   9  15  158.19  106.72
   0  -9 -15  191.35   69.80
   0   9  16  477.16  104.85
   0   9  16  430.44   72.94
   0  -9 -16  475.26  140.82
   0   9  17  274.74   63.49
   0   9  17  234.67  169.14
   0  -9 -17  197.16   74.19
   0   9  18  388.44  163.14
   0   9  18  332.52  102.42
   0  -9 -18   -1.11   70.34
   0   9  19  -70.25   70.26
   0   9  19   29.36   42.89
   0  -9 -19   -0.39   52.85
   0   9  20 2249.24  187.75
   0  -9 -20 1663.25  141.46
   0  10 -18  248.59  188.07
   0  10 -17  -62.72   86.80
   0  10 -16  -15.16  126.54
   0  10 -16   25.47   79.10
   0  10 -15  461.08  116.74
   0  10 -15  455.88  113.21
   0  10 -14  -21.67  132.83
   0  10 -14   50.37   78.18
   0  10 -13  462.41  114.22
   0  10 -13  516.89  111.41
   0  10 -12  160.70  150.01
   0  10 -12   53.51  142.61
   0  10 -11   78.47   75.37
   0  10 -11   65.13  137.58
   0  10 -10 3080.94  301.30
   0  10 -10 3121.94  189.24
   0  10  -9   -9.39   58.12
   0  10  -9    9.33   56.57
   0  10  -8  -21.31  102.03
   0  10  -8   12.81   56.00
   0  10  -7  288.43   81.54
   0  10  -7  262.62   83.09
   0  10  -6   40.46   67.18
   0  10  -6  155.82  115.10
   0  10  -5  427.07   99.62
   0  10  -5 1340.15  104.39
   0  10  -4    4.35   17.40
   0  10  -4  -69.76   88.65
   0  10  -3  328.26   24.01
   0  10  -3  336.17   82.95
   0  10  -2 2626.22   73.76
   0  10  -2 2753.06  285.27
   0  10  -112237.25  351.82
   0  10  -111483.06  395.29
   0  10   0  860.10   61.10
   0  10   0 1020.47  119.21
   0  10   1 2548.95  246.23
   0  10   1 1750.12  131.90
   0  10   214166.15  545.47
   0  10   214340.80  340.26
   0 -10  -213908.70  392.46
   0  10   3 1909.22  121.80
   0  10   3 1894.14   86.60
   0 -10  -3 2556.66  213.35
   0  10   4  157.66   61.81
   0  10   4  139.45   47.13
   0 -10  -4  126.19   64.20
   0  10   5 2934.62  137.15
   0  10   5 2953.12  119.25
   0 -10  -5 2937.50  139.90
   0  10   6 1053.58  167.04
   0  10   6 1269.05  144.83
   0 -10  -6 1198.60  170.72
   0  10   7  749.29  135.48
   0  10   7  621.87   80.18
   0 -10  -7  648.51   85.89
   0  10   8 6898.99  342.07
   0  10   8 7251.34  225.00
   0 -10  -8 7072.76  347.50
   0  10   9 2341.93  122.60
   0  10   9 2217.83  132.12
   0 -10  -9 2111.20  130.16
   0  10  10 1349.61  171.34
   0  10  10 1323.20  115.43
   0 -10 -10 1479.45  183.84
   0  10  11  738.52   99.33
   0  10  11  650.06   82.93
   0 -10 -11  784.46   89.37
   0  10  12 2507.97  128.41
   0  10  12 2359.62  151.59
   0 -10 -12 2485.56  134.47
   0  10  13  124.85   74.37
   0  10  13  124.47   56.01
   0 -10 -13   73.44  112.19
   0  10  14  223.15   81.51
   0  10  14  126.04  101.36
   0 -10 -14   93.08   66.52
   0  10  15  184.60   58.61
   0  10  15  118.88   85.01
   0 -10 -15   93.88   67.28
   0  10  16   47.05   52.47
   0  10  16  100.76  135.42
   0 -10 -16   38.42  103.03
   0  10  17   17.42   79.69
   0  10  17   40.20  122.15
   0 -10 -17   -2.13   52.52
   0  10  18  161.76   56.41
   0  10  18   81.24   92.48
   0 -10 -18   -0.06   67.41
   0  10  19   34.10   78.18
   0 -10 -19   -0.00   57.53
   0  11 -16  100.85  185.61
   0  11 -16  180.47  100.69
   0  11 -15  121.14   90.19
   0  11 -15  -45.97  163.37
   0  11 -14  -16.63  136.56
   0  11 -14  -39.99   82.12
   0  11 -13   90.37   89.34
   0  11 -13   82.39   84.84
   0  11 -12   36.17   81.52
   0  11 -12   58.31  139.02
   0  11 -11 1042.57  139.89
   0  11 -11 1183.41  138.90
   0  11 -10  326.62  188.19
   0  11 -10  358.87  184.26
   0  11  -9 4307.32  242.29
   0  11  -9 4652.17  238.54
   0  11  -8 4061.96  219.46
   0  11  -8 3737.14  216.05
   0  11  -7  -71.97   69.51
   0  11  -7   12.22   69.00
   0  11  -6   98.65   70.34
   0  11  -6   31.70   70.90
   0  11  -5   -4.88   55.30
   0  11  -5   88.68   98.64
   0  11  -5    3.25   10.14
   0  11  -4    9.75   19.33
   0  11  -4   -2.85   57.92
   0  11  -3 2395.24   57.46
   0  11  -3 2596.01  243.64
   0  11  -2 2009.89   58.84
   0  11  -2 2167.60  138.51
   0  11  -1  325.47   34.84
   0  11  -1  974.90   99.78
   0  11   0 7692.93  237.19
   0  11   0 7560.57  267.67
   0  11   1 6462.71  229.47
   0  11   1 6384.42  163.75
   0  11   2  203.36  120.74
   0  11   2  115.36   39.08
   0  11   3 2081.78  142.13
   0  11   3 2066.11  124.98
   0 -11  -3 2142.65  127.49
   0  11   4  -21.28   37.03
   0  11   4  -18.47   49.97
   0 -11  -4   59.92   92.76
   0  11   5  211.75   68.07
   0  11   5  231.90   53.98
   0 -11  -5  170.17   69.53
   0  11   6  263.26   59.73
   0  11   6  320.81  123.43
   0 -11  -6  181.49   74.01
   0  11   7 2231.78  127.07
   0  11   7 2024.12  118.74
   0 -11  -7 2087.89  129.50
   0  11   8 2809.50  140.71
   0  11   8 2499.12  137.47
   0 -11  -8 2582.33  149.45
   0  11   9 3144.41  156.05
   0  11   9 3086.28  244.01
   0 -11  -9 2874.40  157.90
   0  11  10 1778.45  119.99
   0  11  10 1755.69  130.09
   0 -11 -10 1505.44  211.15
   0  11  11 1151.45  120.25
   0  11  11 1365.66  102.61
   0 -11 -11 1173.41  112.44
   0  11  12  892.11  109.49
   0  11  12  911.73   89.85
   0 -11 -12  737.11   98.91
   0  11  13    6.50   63.53
   0  11  13   -3.81   84.63
   0 -11 -13  -33.15   53.92
   0  11  14  -22.07   54.05
   0  11  14  152.42  128.64
   0 -11 -14  131.57   61.33
   0  11  15  581.63   78.53
   0  11  15  547.41  189.31
   0 -11 -15  447.09   86.70
   0  11  16   -4.05   83.48
   0  11  16   33.72   70.33
   0 -11 -16   -1.60   95.03
   0  11  17   17.04   66.16
   0  11  17   77.49   40.02
   0 -11 -17 -130.18   49.80
   0  11  18  221.21   83.04
   0  11  18  -67.59   49.55
   0 -11 -18   76.74   62.34
   0  12 -14   96.42   91.35
   0  12 -14  -42.55  165.40
   0  12 -13  420.40  118.78
   0  12 -13  392.22  210.76
   0  12 -12  278.73  183.04
   0  12 -12  181.03  105.25
   0  12 -11  196.82  107.42
   0  12 -11  220.48  103.61
   0  12 -10 4489.69  257.95
   0  12 -10 4071.84  429.91
   0  12  -913628.50  537.03
   0  12  -912710.92  762.69
   0  12  -8 8318.92  409.84
   0  12  -8 8991.90  591.85
   0  12  -7 6370.34  306.26
   0  12  -7 5770.60  306.16
   0  12  -6 3909.05  218.63
   0  12  -6 3808.50  211.14
   0  12  -5  529.58  109.07
   0  12  -5  491.53  107.29
   0  12  -4   22.01  116.21
   0  12  -4   33.62   20.39
   0  12  -3   32.73   27.01
   0  12  -3  -30.74   62.35
   0  12  -2  740.48  174.26
   0  12  -2  620.78   56.26
   0  12  -1   78.20   61.00
   0  12  -1   13.42   22.93
   0  12   0  849.41   49.36
   0  12   0  845.60  107.27
   0  12   1 1232.05   63.03
   0  12   1 1250.22  116.21
   0  12   2  450.22   89.51
   0  12   2  539.08   87.23
   0  12   3  270.09   49.85
   0  12   3  329.10  136.90
   0  12   4 1271.40   79.78
   0  12   4 1364.51  114.69
   0 -12  -4 1282.32  113.26
   0  12   5    4.67   56.46
   0  12   5   32.56   42.17
   0 -12  -5   84.58  100.91
   0  12   6  160.85   96.65
   0  12   6  114.31  120.32
   0 -12  -6  182.50   70.93
   0  12   7  249.79   74.05
   0  12   7  136.92  111.68
   0 -12  -7  353.60  131.73
   0  12   8 1947.07  123.65
   0  12   8 1670.55  191.65
   0 -12  -8 1780.67  128.43
   0  12   9  161.79  118.49
   0  12   9  247.32  117.11
   0 -12  -9   45.89  123.75
   0  12  10   10.11   67.14
   0  12  10  171.48  123.63
   0 -12 -10  277.81   71.86
   0  12  11  651.61  171.33
   0  12  11  657.07   88.84
   0 -12 -11  691.99   95.86
   0  12  12   40.63  112.60
   0  12  12   19.15   92.54
   0 -12 -12   26.41  101.79
   0  12  13    3.71   64.08
   0  12  13  147.79   78.78
   0 -12 -13  244.34   69.61
   0  12  14  928.98  121.03
   0  12  14  889.35   91.59
   0 -12 -14  718.33  102.97
   0  12  15  205.20   91.63
   0  12  15    1.43  114.96
   0 -12 -15  237.96   75.73
   0  12  16   84.10   48.71
   0  12  16  331.46   93.89
   0 -12 -16  198.68  127.54
   0  13 -12  297.57  207.75
   0  13 -12  316.91  210.82
   0  13 -11  257.41  118.50
   0  13 -11  248.20  120.45
   0  13 -10 1983.57  214.64
   0  13 -10 1849.47  344.30
   0  13  -9 8836.71  418.05
   0  13  -9 8794.12  419.61
   0  13  -8 2175.54  342.35
   0  13  -8 2118.14  350.32
   0  13  -7  -56.31   85.94
   0  13  -7   -7.18   83.88
   0  13  -6 1080.20  237.39
   0  13  -6 1000.25  139.78
   0  13  -5  273.67   94.95
   0  13  -5  274.03   97.70
   0  13  -4   43.03   73.85
   0  13  -4   55.58   74.32
   0  13  -3   39.96   28.20
   0  13  -3   24.68  123.63
   0  13  -2   26.66   66.28
   0  13  -2   17.36   32.14
   0  13  -1   14.24   39.94
   0  13  -1  120.72  117.37
   0  13   0  833.17   51.56
   0  13   0  999.94  117.56
   0  13   1 5209.03  201.79
   0  13   1 5832.06  364.88
   0  13   2  324.15   46.98
   0  13   2  292.86   95.75
   0  13   3  682.33  101.36
   0  13   3  608.75   59.14
   0  13   4  230.66   85.01
   0  13   4  181.91  137.11
   0  13   5   35.71   40.30
   0  13   5    3.75   57.85
   0 -13  -5  -11.99   59.72
   0  13   6  881.19  174.82
   0  13   6  759.29   79.56
   0 -13  -6  869.42  177.75
   0  13   7  817.28  103.29
   0  13   7  789.67   82.57
   0 -13  -7  743.74  102.57
   0  13   8  354.99   79.04
   0  13   8  256.33   71.02
   0 -13  -8  320.24   84.84
   0  13   9  225.43   67.76
   0  13   9   31.80  125.14
   0 -13  -9  136.01  128.96
   0  13  10  -31.19   53.19
   0  13  10  -31.75   52.71
   0 -13 -10   95.90   55.62
   0  13  11  652.20   95.41
   0  13  11  798.34  103.58
   0 -13 -11  735.77  100.83
   0  13  12   13.80  154.15
   0  13  12  697.41  106.03
   0 -13 -12  757.91   98.38
   0  13  13   23.63   50.94
   0  13  13   31.54   62.86
   0 -13 -13  -39.16   57.51
   0  13  14  237.87   84.91
   0  13  14    1.05   57.40
   0 -13 -14  197.21   74.55
   0  14  -9    5.88   89.69
   0  14  -9   61.36   90.13
   0  14  -8  136.53  104.99
   0  14  -8  114.79  180.53
   0  14  -7   15.55   89.68
   0  14  -7  158.60  160.59
   0  14  -6  -13.85   83.88
   0  14  -6   56.10   81.21
   0  14  -5   -2.15   81.68
   0  14  -5   58.26   81.94
   0  14  -4  624.71  229.71
   0  14  -4  843.35  129.51
   0  14  -3 1032.34  139.60
   0  14  -2   67.21  143.65
   0  14  -1   89.11   44.72
   0  14  -1   69.91   85.80
   0  14   0 2596.52  128.28
   0  14   0 2863.38  300.80
   0  14   1  605.30  108.19
   0  14   1  402.06   47.21
   0  14   2  439.69   87.88
   0  14   2  632.48  187.16
   0  14   3 2208.78  153.37
   0  14   3 2656.49  169.36
   0  14   4   71.60  114.90
   0  14   4   12.25   37.99
   0  14   5   -7.02   67.95
   0  14   5  -52.16   43.93
   0  14   6   63.38   51.08
   0  14   6   90.15   72.76
   0 -14  -6  116.96   70.97
   0  14   7   16.33   82.20
   0  14   7   10.70   61.41
   0 -14  -7   22.49   61.82
   0  14   8  -16.40   83.26
   0  14   8   -4.87   58.21
   0 -14  -8   82.63  103.06
   0  14   9  391.34  134.41
   0  14   9   -1.98  153.33
   0 -14  -9  372.05   91.22
   0  14  10 1336.43  122.24
   0  14  10  914.82  196.92
   0 -14 -10 1138.72  126.78
   0  14  11  854.44  110.67
   0  14  11  780.68  193.21
   0 -14 -11  695.07  197.78
   0  15  -5 1476.63  173.78
   0  15  -5 1551.63  286.40
   0  15  -4 -144.87   99.02
   0  15  -4 -138.04  103.45
   0  15  -3  -16.50  150.06
   0  15  -3  -51.49   83.90
   0  15  -2  216.89  103.91
   0  15  -1  241.64  180.55
   0  15   0  137.98   94.29
   0  15   1  650.29   52.71
   0  15   1 1013.25  126.69
   0  15   2  230.75   82.07
   0  15   2  425.76  112.59
   0  15   3 1221.47   81.35
   0  15   3 1492.01  151.53
   0  15   4  832.00   76.91
   0  15   4 1228.37  136.42
   0  15   5  103.68  150.44
   0  15   6  323.90  115.58
   0  15   6  392.45  100.71
   0  15   7   26.71   50.64
   0  15   7   56.44  123.24
  -1  15   3 1228.43  151.87
  -1  15   3  817.73   72.44
  -1  15   2 1541.14  171.98
  -1  15   2 1240.93  122.47
  -1  15   1   81.92  102.01
  -1  15   0   58.38  163.84
  -1  15  -1   63.85   94.21
   1 -14  -9  718.53  119.26
  -1  14   9  676.45   96.86
  -1  14   9  763.51  119.59
   1 -14  -8   -6.29   68.47
  -1  14   8    0.79   51.08
  -1  14   8   46.19   67.35
   1 -14  -7  -28.94  120.06
  -1  14   7    0.19   49.75
  -1  14   7  -62.38   71.15
   1 -14  -6  438.37  102.58
  -1  14   6  335.80   68.75
  -1  14   6  406.05  106.68
  -1  14   5  229.67   58.14
  -1  14   5  277.76  174.63
  -1  14   4  750.33   75.47
  -1  14   4 1128.85  140.06
  -1  14   3 4079.94  221.32
  -1  14   3 5254.96  399.64
  -1  14   2  234.08  108.31
  -1  14   2  166.70   46.06
  -1  14   1   18.96  161.29
  -1  14   1   94.28   36.08
  -1  14   0   69.54   53.78
  -1  14   0  159.50   91.73
  -1  14  -1  152.48  170.76
  -1  14  -2  -20.03   77.42
  -1  14  -3   89.06   91.07
  -1  14  -4  362.09  117.02
  -1  14  -5  116.14  106.35
  -1  14  -5  247.26  106.32
  -1  14  -6  514.03  130.10
  -1  14  -6  496.82  233.25
  -1  14  -7 1066.66  165.28
  -1  14  -7 1234.97  159.61
  -1  14  -8   10.21   79.28
  -1  14  -8    5.32   82.73
   1 -13 -13  178.20   79.71
  -1  13  13  -13.10   73.30
  -1  13  13   67.90  142.41
   1 -13 -12  345.05   96.58
  -1  13  12   -0.23  162.64
  -1  13  12  272.44  165.18
   1 -13 -11 3886.60  354.69
  -1  13  11 4002.58  330.06
  -1  13  11 4306.97  219.56
   1 -13 -10 2900.88  186.63
  -1  13  10 3257.56  302.69
  -1  13  10 2918.11  166.29
   1 -13  -9  -88.26   59.65
  -1  13   9   -0.70   60.22
  -1  13   9   54.71   48.34
   1 -13  -8  416.59  168.84
  -1  13   8  533.50   97.85
  -1  13   8  380.13   77.53
   1 -13  -7   66.45   77.11
  -1  13   7   96.36   57.11
  -1  13   7  141.39  134.95
   1 -13  -6 1403.49  223.00
  -1  13   6 1290.22  162.77
  -1  13   6 1559.07  139.14
   1 -13  -5  130.91   77.26
  -1  13   5   59.47  141.57
  -1  13   5   62.50   85.07
   1 -13  -4 1146.75  126.39
  -1  13   4  962.16  129.10
  -1  13   4 1155.14  129.21
  -1  13   3  675.14  116.56
  -1  13   3  568.59   62.41
  -1  13   2 1283.61  138.39
  -1  13   2 1039.90   69.47
  -1  13   1   20.63   30.45
  -1  13   1    5.61   72.29
  -1  13   0  338.98   70.67
  -1  13   0  531.10  107.07
  -1  13  -1   32.57   24.35
  -1  13  -1  -44.77   72.26
  -1  13  -2   17.93   69.14
  -1  13  -2   13.86   20.60
  -1  13  -3  245.03   99.23
  -1  13  -4   53.55   80.62
  -1  13  -5  -15.97   68.69
  -1  13  -5   38.29  118.11
  -1  13  -6  318.82  117.36
  -1  13  -6  457.50  115.69
  -1  13  -7   12.68   88.45
  -1  13  -7  133.56  167.11
  -1  13  -8 9190.64  428.27
  -1  13  -8 9725.09  426.86
  -1  13  -9 -145.20  109.88
  -1  13  -9   53.56  178.94
  -1  13 -10  139.71  101.48
  -1  13 -10   70.73  100.59
  -1  13 -11  204.31  194.28
  -1  13 -11  186.16  192.10
   1 -12 -15   46.36   75.28
  -1  12  15   -8.19  117.06
  -1  12  15  144.62   84.89
   1 -12 -14   60.82   70.45
  -1  12  14   54.36   77.45
  -1  12  14   13.75   62.49
   1 -12 -13 1089.93  127.51
  -1  12  13 1231.24  135.35
  -1  12  13 1133.27  116.92
   1 -12 -12  -13.08  131.94
  -1  12  12  161.96   76.32
  -1  12  12    8.95  123.12
   1 -12 -11  382.93   93.96
  -1  12  11  416.45   89.98
  -1  12  11  483.62   91.51
   1 -12 -10  297.67   88.48
  -1  12  10  323.89   82.66
  -1  12  10  418.08  148.80
   1 -12  -9  328.82  153.70
  -1  12   9  328.80   77.14
  -1  12   9  371.72   88.05
   1 -12  -8  286.31   87.72
  -1  12   8  264.48   72.45
  -1  12   8  409.94   87.19
   1 -12  -7  657.72   98.91
  -1  12   7  484.09  169.51
  -1  12   7  537.41   77.81
   1 -12  -6  574.54  101.09
  -1  12   6  663.69  102.20
  -1  12   6  639.76   74.84
   1 -12  -5  -13.62   62.47
  -1  12   5   -6.40   61.77
  -1  12   5  -24.97   41.53
   1 -12  -4  296.71  164.20
  -1  12   4  583.48   97.45
  -1  12   4  473.57   60.56
   1 -12  -3   46.21   67.39
  -1  12   3   47.27   39.31
  -1  12   3   18.14   69.90
  -1  12   2   87.04  114.90
  -1  12   2  -13.88   31.68
  -1  12   1 4317.97  210.68
  -1  12   1 3931.83  176.20
  -1  12   0  381.26   42.03
  -1  12   0  462.87   96.31
  -1  12  -1  179.81   77.55
  -1  12  -1   78.98   28.01
  -1  12  -2   56.42   72.02
  -1  12  -2   36.03   22.10
  -1  12  -3 1504.07  132.80
  -1  12  -3 1196.64   67.06
  -1  12  -4  426.98   99.39
  -1  12  -4  356.49   35.59
  -1  12  -5  450.17  107.56
  -1  12  -6 1360.14  158.23
  -1  12  -6 1159.96  259.13
  -1  12  -7 5026.58  297.96
  -1  12  -7 5797.35  287.01
  -1  12  -8 6210.52  311.19
  -1  12  -8 5611.80  312.17
  -1  12  -9  701.32  142.49
  -1  12  -9  631.21  248.04
  -1  12 -10  369.64  118.64
  -1  12 -10  361.34  119.84
  -1  12 -11   90.53   99.02
  -1  12 -11  147.42  165.75
  -1  12 -12   52.87   89.48
  -1  12 -12   32.11  157.44
  -1  12 -13  795.46  262.97
  -1  12 -13 1105.45  157.29
   1 -11 -17  210.07  161.89
  -1  11  17  309.14  115.93
  -1  11  17  353.93   83.17
   1 -11 -16   52.93  103.68
  -1  11  16  -22.45   52.37
  -1  11  16    1.17   72.52
   1 -11 -15   78.20   68.47
  -1  11  15   64.91   79.42
  -1  11  15   34.14   61.69
   1 -11 -14  325.53   78.37
  -1  11  14   -1.86   72.10
  -1  11  14  270.67   89.65
   1 -11 -13   89.42   65.27
  -1  11  13   -6.70  105.24
  -1  11  13   39.13   72.15
   1 -11 -12  179.22  140.67
  -1  11  12  277.49   74.89
  -1  11  12  188.76  145.61
   1 -11 -11  -53.70   62.05
  -1  11  11  -18.32   57.64
  -1  11  11   23.20  106.75
   1 -11 -10  159.17   75.40
  -1  11  10  109.13  126.02
  -1  11  10  166.78   71.56
   1 -11  -9  131.26   81.02
  -1  11   9  240.73   76.48
  -1  11   9  229.21   73.03
   1 -11  -8 1780.66  131.80
  -1  11   8 1672.87  128.13
  -1  11   8 1602.30  114.94
   1 -11  -7  260.46  134.95
  -1  11   7  328.42  133.70
  -1  11   7  173.05   63.19
   1 -11  -6   71.96   67.40
  -1  11   6  134.18   53.32
  -1  11   6   77.79   67.44
   1 -11  -5  -24.87   95.54
  -1  11   5   -1.90   39.73
  -1  11   5   35.04   54.84
   1 -11  -4   85.14   72.79
  -1  11   4  175.35   49.37
  -1  11   4  154.43  127.27
   1 -11  -3    8.95   96.18
  -1  11   3   -3.78   56.83
  -1  11   3   17.39   59.16
   1 -11  -2  318.44   83.19
  -1  11   2  356.41   88.11
  -1  11   2  363.33   83.98
  -1  11   1   89.45   61.31
  -1  11   1   86.88  126.60
  -1  11   0 1401.87   62.42
  -1  11   0 1489.30  125.31
  -1  11  -1  554.89  165.58
  -1  11  -1  462.04   65.25
  -1  11  -2  502.24   98.25
  -1  11  -2  558.95   34.91
  -1  11  -3  138.65   37.88
  -1  11  -3   95.99   81.90
  -1  11  -4 3373.91   98.71
  -1  11  -4 3739.13  189.49
  -1  11  -5   90.79   19.48
  -1  11  -5   36.42   79.03
  -1  11  -6  852.14  135.58
  -1  11  -6  927.86  129.17
  -1  11  -7 6983.87  316.36
  -1  11  -7 6102.20  477.32
  -1  11  -8 5025.98  279.48
  -1  11  -8 5387.99  272.50
  -1  11  -9  716.86  140.88
  -1  11  -9  768.92  137.55
  -1  11 -10  856.70  133.75
  -1  11 -10  697.06  229.10
  -1  11 -11    5.61   74.99
  -1  11 -11  -41.27   74.96
  -1  11 -12  -20.04   73.49
  -1  11 -12   -8.69   75.61
  -1  11 -13  135.17   93.69
  -1  11 -13  114.20  163.08
  -1  11 -14  264.90  195.72
  -1  11 -14  327.94  110.17
  -1  11 -15   41.03  139.34
  -1  11 -15  -78.93  142.22
   1 -10 -18    3.04   74.09
  -1  10  18  122.71   63.93
  -1  10  18  147.36   93.38
   1 -10 -17   -3.66  116.17
  -1  10  17   20.03   81.62
  -1  10  17   57.45   57.95
   1 -10 -16  -12.67   62.09
  -1  10  16  -84.67   95.59
  -1  10  16  -13.24   74.61
   1 -10 -15  147.41   81.28
  -1  10  15  186.99  162.60
  -1  10  15  285.70   70.60
   1 -10 -14 2389.02  156.20
  -1  10  14 2709.38  282.59
  -1  10  14 2643.20  138.23
   1 -10 -13  211.02  138.71
  -1  10  13  226.27   72.85
  -1  10  13  285.91   87.69
   1 -10 -12   41.34   61.86
  -1  10  12   81.40   58.53
  -1  10  12    6.42   66.63
   1 -10 -11  736.84   99.64
  -1  10  11  765.61  103.58
  -1  10  11 1035.20  160.98
   1 -10 -10  367.97  150.24
  -1  10  10  451.01   86.62
  -1  10  10  421.18   82.56
   1 -10  -9 1180.81  120.45
  -1  10   9 1416.29  114.60
  -1  10   9 1236.71  111.17
   1 -10  -8 5492.83  218.91
  -1  10   8 5741.21  206.38
  -1  10   8 5643.90  217.11
   1 -10  -7 1549.50  122.40
  -1  10   7 1516.72  178.09
  -1  10   7 1561.38  205.59
   1 -10  -6 2346.63  140.84
  -1  10   6 2511.07  139.60
  -1  10   6 2315.52  189.46
   1 -10  -5  555.01   86.70
  -1  10   5  585.68   87.30
  -1  10   5  600.34  114.03
   1 -10  -4  544.83  149.52
  -1  10   4  601.40  107.25
  -1  10   4  615.77  154.27
   1 -10  -3  -53.57   57.83
  -1  10   3  -17.73   60.56
  -1  10   3  -77.69   66.11
   1 -10  -2  346.66  137.33
  -1  10   2  346.90   47.73
  -1  10   2  363.08   81.03
   1 -10  -1  892.51   96.75
  -1  10   1  810.34   55.61
  -1  10   1 1034.77  109.50
  -1  10   0 2143.67  141.55
  -1  10   0 2192.55   78.41
  -1  10  -1 4404.61  162.30
  -1  10  -1 4078.30  207.35
  -1  10  -2 6291.63  138.10
  -1  10  -2 5394.70  376.50
  -1  10  -3   -0.22   30.10
  -1  10  -3  -89.55   64.82
  -1  10  -4  388.29   37.22
  -1  10  -4  391.15   90.72
  -1  10  -5 1749.53   49.33
  -1  10  -5 1887.13  140.93
  -1  10  -6  -26.41   64.20
  -1  10  -6   66.20   65.91
  -1  10  -7 2751.67  178.49
  -1  10  -7 2638.07  175.53
  -1  10  -8  586.84  213.90
  -1  10  -8  874.22  116.68
  -1  10  -9  -12.68   65.06
  -1  10  -9   35.57   67.63
  -1  10 -10   53.74   72.77
  -1  10 -10   34.36   74.09
  -1  10 -11  168.35  153.98
  -1  10 -11  193.75  157.56
  -1  10 -12  661.35  118.52
  -1  10 -12  600.04  116.19
  -1  10 -13   -9.21  115.94
  -1  10 -13    8.44   67.01
  -1  10 -14  221.66   97.71
  -1  10 -14  256.03  101.07
  -1  10 -15  663.58  129.57
  -1  10 -15  653.18  210.00
  -1  10 -16  457.26  223.97
  -1  10 -16  594.53  125.14
  -1  10 -17 1256.25  250.33
  -1  10 -17  708.48  259.32
   1  -9 -20    1.93  100.25
  -1   9  20  595.46   75.38
  -1   9  20  535.18  214.95
   1  -9 -19    2.47   70.46
  -1   9  19  -61.43   58.61
  -1   9  19  -92.07   85.25
   1  -9 -18    1.64  171.55
  -1   9  18  705.04   85.13
  -1   9  18  561.99  122.14
   1  -9 -17   -2.50   98.55
  -1   9  17   13.85   68.69
   1  -9 -16   -3.38   73.13
  -1   9  16  178.29  151.86
  -1   9  16  254.91   64.90
   1  -9 -15   27.65   59.62
  -1   9  15   17.90   68.94
  -1   9  15   16.23   51.20
   1  -9 -14   21.01   67.16
  -1   9  14  159.48   76.43
  -1   9  14   98.32   59.96
   1  -9 -13  409.65  144.20
  -1   9  13  393.35   92.63
  -1   9  13  378.79   76.21
   1  -9 -12  893.94  104.58
  -1   9  12 1008.31  111.86
  -1   9  12 1050.06  165.97
   1  -9 -11 1039.28  101.75
  -1   9  11  956.80   98.28
  -1   9  11  801.81  182.19
   1  -9 -10    0.90   91.10
  -1   9  10  -51.79   95.82
  -1   9  10   -4.85   49.89
   1  -9  -9  232.18   73.44
  -1   9   9  349.89   73.85
  -1   9   9  307.29   72.12
   1  -9  -8  170.74  117.17
  -1   9   8  171.03   64.35
  -1   9   8  145.30  116.63
   1  -9  -7 1038.76   98.71
  -1   9   7 1134.73   97.16
  -1   9   7 1051.18   90.33
   1  -9  -6   -5.85  101.78
  -1   9   6   71.89   49.07
  -1   9   6   88.38   57.69
   1  -9  -5  605.69   81.39
  -1   9   5  584.14   82.23
  -1   9   5  580.97   67.15
   1  -9  -4  236.35   67.75
  -1   9   4  190.70  122.26
  -1   9   4  296.43   52.09
   1  -9  -3   91.48   62.47
  -1   9   3  198.28  113.68
  -1   9   3  187.08   43.83
   1  -9  -2  914.53   87.13
  -1   9   2  788.21   89.63
  -1   9   2  742.32   58.23
   1  -9  -1  236.73   74.79
  -1   9   1  257.88   41.46
  -1   9   1  207.55   73.22
   1  -9   0  163.88   68.89
  -1   9   0  119.49   65.44
  -1   9  -136689.41  993.78
  -1   9  -134892.02 1002.16
  -1   9  -256784.45 1803.62
  -1   9  -258501.21 1558.46
  -1   9  -315655.88  389.31
  -1   9  -317443.04  765.15
  -1   9  -4 -158.38   67.89
  -1   9  -4    9.82   23.43
  -1   9  -5 7204.10  259.60
  -1   9  -5 6959.34  133.69
  -1   9  -6 1776.86   26.93
  -1   9  -6 2210.58  146.70
  -1   9  -7 1709.64  133.00
  -1   9  -7 1534.76  125.68
  -1   9  -8   45.22   65.41
  -1   9  -8   49.49   66.96
  -1   9  -9 1843.18  242.44
  -1   9  -9 1839.64  141.89
  -1   9 -10 1543.77  146.53
  -1   9 -10 1785.41  144.42
  -1   9 -11 1278.37  224.97
  -1   9 -11 1239.04  135.01
  -1   9 -12   81.19  114.35
  -1   9 -12   -8.54   64.62
  -1   9 -13   42.18   69.89
  -1   9 -13  -26.71  117.98
  -1   9 -14  217.66   84.59
  -1   9 -14   88.30   90.05
  -1   9 -15  116.62  145.99
  -1   9 -15  109.35   87.31
  -1   9 -16  237.13  104.90
  -1   9 -16  332.07   99.91
  -1   9 -17 1160.31  145.75
  -1   9 -17 1208.74  152.97
  -1   9 -18   18.52   77.12
  -1   9 -19  244.16  184.71
   1  -8 -21 1158.19  137.61
  -1   8  21 1270.45  109.19
  -1   8  21 1182.79  277.08
   1  -8 -20 2879.09  191.70
  -1   8  20 2929.87  165.88
  -1   8  20 3413.53  220.39
   1  -8 -19    1.07   62.78
  -1   8  19  -10.15   50.49
  -1   8  19  -33.26   73.02
   1  -8 -18    0.20  133.66
  -1   8  18  251.03   92.68
   1  -8 -17    1.99  116.12
  -1   8  17   65.88   57.11
  -1   8  17  143.36  141.03
   1  -8 -16  575.60   95.44
  -1   8  16  572.92  142.10
  -1   8  16  623.82  109.95
   1  -8 -15 1205.26  117.23
  -1   8  15 1178.06  105.71
  -1   8  15 1284.74  131.96
   1  -8 -14  437.38   88.98
  -1   8  14  436.36   79.09
  -1   8  14  497.08   99.88
   1  -8 -13  122.14  112.42
  -1   8  13   95.36  102.24
  -1   8  13   38.08  124.98
   1  -8 -12 2021.23  127.88
  -1   8  12 2025.69  121.00
  -1   8  12 2156.36  239.78
   1  -8 -11  316.04   77.17
  -1   8  11  332.68   73.17
  -1   8  11  271.08   82.23
   1  -8 -10 4161.43  285.55
  -1   8  10 4450.76  171.29
  -1   8  10 4596.39  190.14
   1  -8  -9  168.37   66.91
  -1   8   9  176.41  115.73
  -1   8   9  229.54   69.33
   1  -8  -8  546.00  143.08
  -1   8   8  734.52   82.90
  -1   8   8  713.76   83.13
   1  -8  -7 1267.87   96.96
  -1   8   7 1439.27   98.78
  -1   8   7 1232.66   94.37
   1  -8  -6  543.52   71.06
  -1   8   6  127.07   62.54
  -1   8   6  582.21   71.84
   1  -8  -5  739.86   81.39
  -1   8   5  819.02   81.95
   1  -8  -4  240.75   56.31
  -1   8   4   60.97   43.69
  -1   8   4  184.62  101.36
   1  -8  -3  351.69   66.83
  -1   8   3  444.36  120.83
   1  -8  -2 1260.01  156.03
  -1   8   2 1246.91   93.54
   1  -8  -1  811.27   79.15
  -1   8   1  689.83   80.07
   1  -8   0  540.91   68.32
  -1   8   0  279.43   36.41
  -1   8   0  490.27   70.66
  -1   8  -1 3908.44  159.13
  -1   8  -1 4374.69   97.84
  -1   8  -2   49.59   21.51
  -1   8  -2  -72.27  104.43
  -1   8  -3 9537.15  293.95
  -1   8  -310141.32  224.61
  -1   8  -4 9159.58  304.23
  -1   8  -410313.53  210.97
  -1   8  -5 4578.58   86.64
  -1   8  -5 4479.69  199.76
  -1   8  -6 1495.69  108.69
  -1   8  -6 1095.36   18.27
  -1   8  -7  455.34  146.58
  -1   8  -7  480.26   83.88
  -1   8  -8 1120.43  105.72
  -1   8  -8 1201.51  108.25
  -1   8  -9  295.62   81.01
  -1   8  -9  224.47  134.73
  -1   8 -10 1132.51  211.01
  -1   8 -10 1416.85  119.20
  -1   8 -11 7841.78  296.32
  -1   8 -11 8025.74  294.75
  -1   8 -12 2349.14  169.88
  -1   8 -12 2449.49  165.55
  -1   8 -13  912.70  114.09
  -1   8 -14   48.19  119.74
  -1   8 -15  231.70   87.65
  -1   8 -16  113.49  140.32
  -1   8 -17   34.14   71.48
  -1   8 -18   61.45  137.43
  -1   8 -19  283.83  102.10
  -1   8 -20   83.92  154.99
   1  -7 -22   -1.88   79.18
  -1   7  22   97.82   59.89
  -1   7  22  128.80  168.48
   1  -7 -21   -1.02  112.33
  -1   7  21  811.14   89.22
  -1   7  21  897.10  129.89
   1  -7 -20 2533.53  174.24
  -1   7  20 2732.91  152.15
  -1   7  20 3194.02  203.60
   1  -7 -19   -1.29   60.45
  -1   7  19   -2.88   52.82
  -1   7  19  -68.83   71.15
   1  -7 -18   -0.20  141.98
  -1   7  18  351.53   70.78
  -1   7  18   35.13  164.29
   1  -7 -17   13.95  103.49
  -1   7  17   -0.38   88.71
  -1   7  17   33.47   68.90
   1  -7 -16  100.37  121.69
  -1   7  16   89.55   62.41
  -1   7  16   88.62   79.85
   1  -7 -15  158.43   80.20
  -1   7  15  262.35   91.20
  -1   7  15  244.01  124.11
   1  -7 -14   63.92   67.97
  -1   7  14  165.06  136.44
  -1   7  14   49.98   62.86
   1  -7 -13 1938.65  138.51
  -1   7  13 2090.12  149.21
  -1   7  13 1864.55  123.96
   1  -7 -12 1776.29  132.66
  -1   7  12 2114.37  151.79
  -1   7  12 1691.90  122.87
   1  -7 -11 5437.18  227.66
  -1   7  11 6228.21  248.40
  -1   7  11 5786.76  342.95
   1  -7 -1014919.96  577.58
  -1   7  1014887.53  434.28
  -1   7  1014877.53  420.80
   1  -7  -9 1763.90  110.47
  -1   7   9 1769.10  107.72
   1  -7  -8  182.31   97.88
  -1   7   8  116.40   55.78
   1  -7  -7   52.50   46.56
  -1   7   7   28.72   46.74
   1  -7  -6  -15.32   40.19
  -1   7   6    8.43   73.23
   1  -7  -5  444.23  111.46
  -1   7   5  476.28  112.86
   1  -7  -4 2147.15  101.92
  -1   7   4 2240.81  169.02
   1  -7  -3  471.11   62.77
  -1   7   3  383.27  114.13
   1  -7  -2 5146.79  157.60
  -1   7   2 5028.77  158.74
   1  -7  -1 3209.21  200.34
  -1   7   1 3015.70  120.26
   1  -7   0  -12.81   88.18
  -1   7   0  117.85   50.09
   1  -7   1  984.40   79.19
  -1   7  -1  912.74   79.99
  -1   7  -2 3496.80  134.46
  -1   7  -3   68.74   44.02
  -1   7  -3   13.18   14.10
  -1   7  -4 1167.41   28.00
  -1   7  -4 1142.27   87.60
  -1   7  -5 1361.85   94.33
  -1   7  -5 1359.17   34.08
  -1   7  -6  -26.10   46.27
  -1   7  -6   13.06   84.25
  -1   7  -7  138.97   60.30
  -1   7  -7   91.30   59.38
  -1   7  -8 1142.97   96.40
  -1   7  -8 1173.14  170.72
  -1   7  -9   40.34   49.61
  -1   7  -9   -7.22   52.65
  -1   7 -10 1051.41   99.91
  -1   7 -11   -6.98   51.16
  -1   7 -12   67.44  108.69
  -1   7 -13  791.64  101.52
  -1   7 -14   45.11   63.04
  -1   7 -15  -56.31   66.32
  -1   7 -16  686.92  105.48
  -1   7 -17  400.73   97.43
  -1   7 -18  429.22  102.56
  -1   7 -19  -47.38   74.69
  -1   7 -20  552.83  119.67
  -1   7 -21 1824.86  175.28
   1  -6 -22   -0.33   84.23
  -1   6  22  186.70  167.47
  -1   6  22  259.12   69.33
   1  -6 -21 1459.49  136.90
  -1   6  21 1509.04  116.16
  -1   6  21 1615.29  153.60
   1  -6 -20    1.39   82.24
  -1   6  20  304.80   94.20
  -1   6  20  363.82   70.77
   1  -6 -19   -0.06   69.28
  -1   6  19   90.68  135.69
  -1   6  19  147.14   62.28
   1  -6 -18   35.14   60.77
  -1   6  18   23.14   68.34
  -1   6  18   49.80   55.09
   1  -6 -17  478.94  151.30
  -1   6  17  433.67   97.70
  -1   6  17  410.17   78.91
   1  -6 -16 1452.57  214.15
  -1   6  16 1820.89  142.29
  -1   6  16 1638.30  188.80
   1  -6 -15 1189.93  121.71
  -1   6  15 1368.94  222.48
  -1   6  15 1223.89  106.79
   1  -6 -1414158.69  471.34
  -1   6  1414214.02  595.04
  -1   6  1415405.51  498.88
   1  -6 -1324765.51  766.37
  -1   6  1326944.33  815.42
  -1   6  1324774.99  735.52
   1  -6 -12 4449.31  383.03
  -1   6  12 5777.65  250.65
  -1   6  12 5319.40  241.03
   1  -6 -11 9988.02  332.35
  -1   6  1110465.58  319.86
  -1   6  11 9499.75  315.04
   1  -6 -1041148.93 1133.06
  -1   6  1041588.81 1311.16
   1  -6  -9 1027.67   85.33
  -1   6   9 1051.95   88.32
   1  -6  -8    2.53   35.95
  -1   6   8   -1.75   35.11
   1  -6  -7 2242.73  103.32
  -1   6   7 2266.85  102.63
   1  -6  -6 9105.34  324.14
  -1   6   6 8747.87  223.13
   1  -6  -5   38.48   45.62
  -1   6   5   91.69   44.22
   1  -6  -4 1079.26   76.49
  -1   6   4 1141.69   76.88
   1  -6  -3  858.70   71.38
  -1   6   3  884.48   71.90
   1  -6  -2 2730.31  108.62
  -1   6   2 2603.13  108.52
   1  -6  -1 5077.13  151.73
  -1   6   1 4914.30  152.34
   1  -6   0 1036.45   77.99
  -1   6   0 1052.94  133.37
   1  -6   1 1139.49   77.13
  -1   6  -1 1160.65  130.84
  -1   6  -2  414.80   58.00
  -1   6  -3  140.94   47.11
  -1   6  -4  272.07   54.60
  -1   6  -5  834.74   69.67
  -1   6  -5  590.28   13.50
  -1   6  -6  486.20   66.59
  -1   6  -6  544.23  117.99
  -1   6  -7    0.11   81.86
  -1   6  -7   48.74   47.69
  -1   6  -8 4670.39  161.32
  -1   6  -9  202.36   60.22
  -1   6 -10   44.20   53.19
  -1   6 -11  375.56  126.29
  -1   6 -12   41.10   54.29
  -1   6 -13  298.35  129.17
  -1   6 -14   43.54   58.72
  -1   6 -15   15.98   55.51
  -1   6 -16  113.93   70.61
  -1   6 -17  108.78   75.73
  -1   6 -18  319.55   92.93
  -1   6 -19   73.39   74.49
  -1   6 -20  423.80  100.97
  -1   6 -21  963.77  222.74
  -1   6 -22  388.07  111.39
   1  -5 -23   13.89   65.46
  -1   5  23   24.12   68.78
  -1   5  23   19.71   52.51
   1  -5 -22   19.59   73.88
  -1   5  22  112.84  137.39
  -1   5  22  246.70  117.91
   1  -5 -21  -19.95   60.93
  -1   5  21   56.37   66.55
  -1   5  21   28.12   54.80
   1  -5 -20    9.14   74.86
  -1   5  20  338.09   81.68
   1  -5 -19   28.02   57.75
  -1   5  19    9.15   49.21
  -1   5  19   19.26  107.60
   1  -5 -18  237.26   72.42
  -1   5  18  141.62   77.47
  -1   5  18  133.34  112.02
   1  -5 -17  272.21   73.10
  -1   5  17  171.94   78.35
  -1   5  17  213.18   65.15
   1  -5 -16  319.68  143.32
  -1   5  16  437.03   89.39
  -1   5  16  451.56  125.15
   1  -5 -15  647.54  162.65
  -1   5  15  570.82  173.46
  -1   5  15  701.68   80.02
   1  -5 -14  157.68   84.05
  -1   5  14  111.58   73.63
  -1   5  14  204.61   82.63
   1  -5 -13 5026.52  221.87
  -1   5  13 5697.79  229.59
  -1   5  13 4919.27  323.50
   1  -5 -12 6517.63  220.60
  -1   5  12 5770.38  217.35
  -1   5  12 6241.50  213.84
   1  -5 -11 5396.78  275.44
  -1   5  11 5308.96  177.21
   1  -5 -10  255.92   57.48
  -1   5  10  249.86   56.10
   1  -5  -9  260.40   57.19
  -1   5   9  316.51   96.71
   1  -5  -8 1732.41   90.68
  -1   5   8 1625.15  145.28
   1  -5  -7  901.99  124.97
  -1   5   7  897.27  120.38
   1  -5  -615880.40  370.09
  -1   5   615819.28  476.78
   1  -5  -5 7129.41  195.68
  -1   5   5 6937.18  290.82
   1  -5  -496036.39 2819.95
  -1   5   493216.82 2738.95
   1  -5  -373140.11 2006.43
  -1   5   373172.63 2007.88
   1  -5  -2 6568.58  184.94
  -1   5   2 6685.13  187.74
   1  -5  -1 1621.67   87.22
  -1   5   1 1573.75   87.88
   1  -5   039852.85 1084.92
  -1   5   039485.69 1079.45
   1  -5   1 1250.86  119.02
  -1   5  -1  619.74   64.55
  -1   5  -2  189.35   48.38
  -1   5  -3 4758.52  139.99
  -1   5  -4 4781.45  145.19
  -1   5  -5 6985.20  276.94
  -1   5  -6 5982.12  176.40
  -1   5  -6 6507.16  178.64
  -1   5  -7 5896.07  170.41
  -1   5  -825168.50  627.47
  -1   5  -9 4033.48  235.97
  -1   5 -10   52.43   49.95
  -1   5 -11  561.00   73.46
  -1   5 -12    0.28   72.26
  -1   5 -13 2166.47  120.70
  -1   5 -14   45.13   55.80
  -1   5 -15   17.62   52.26
  -1   5 -16   27.91   58.89
  -1   5 -17 1309.70  119.76
  -1   5 -18 1665.56  145.96
  -1   5 -19   25.10   65.05
  -1   5 -20  193.78   85.42
  -1   5 -21  130.10   82.00
  -1   5 -22   -5.64  116.92
   1  -4 -23   55.37  142.26
  -1   4  23  204.68   80.29
  -1   4  23   90.60  119.69
   1  -4 -22   12.07   69.79
  -1   4  22  151.63  120.24
  -1   4  22   64.85   60.04
   1  -4 -21   -3.74   71.63
  -1   4  21  160.53   72.49
  -1   4  21  210.43  107.11
   1  -4 -20    9.95   63.42
  -1   4  20   50.98   63.78
  -1   4  20   69.96   54.05
   1  -4 -19  465.31   87.18
  -1   4  19  428.98  148.96
  -1   4  19  318.57   71.77
   1  -4 -18  173.19   72.28
  -1   4  18  179.21   60.71
  -1   4  18  174.61   71.81
   1  -4 -17   43.84   57.46
  -1   4  17   40.35   48.75
  -1   4  17   18.50   57.80
   1  -4 -16  355.73   77.42
  -1   4  16  344.87  137.24
  -1   4  16  370.29   69.65
   1  -4 -15  555.41   82.17
  -1   4  15  511.97   88.27
  -1   4  15  569.88   75.10
   1  -4 -14  193.17  115.51
  -1   4  14  195.64   59.06
  -1   4  14  199.83   68.94
   1  -4 -13 1533.91  169.22
  -1   4  13 1381.19  157.65
  -1   4  13 1570.40  105.40
   1  -4 -12  -17.32   43.73
  -1   4  12   32.45   41.70
  -1   4  12   43.33   47.04
   1  -4 -11  449.18   62.73
  -1   4  11  436.96   61.72
   1  -4 -10 6476.16  264.15
  -1   4  10 5979.86  173.45
   1  -4  -910070.94  256.51
  -1   4   9 9994.15  333.84
   1  -4  -8  702.11   62.90
  -1   4   8  691.60  106.02
   1  -4  -7  998.91   70.04
  -1   4   7  923.98  117.05
   1  -4  -6 1087.19   71.29
  -1   4   6 1055.13  119.47
   1  -4  -5  258.14   93.47
  -1   4   5  349.56   53.15
   1  -4  -419849.80  553.45
  -1   4   419656.62  442.76
   1  -4  -320437.98  455.08
  -1   4   320403.25  458.45
   1  -4  -2 2128.93   91.71
  -1   4   2 2257.84   96.53
   1  -4  -110230.49  322.64
  -1   4   110499.44  242.40
   1  -4   0 8197.36  194.58
  -1   4   0 8070.20  197.64
   1  -4   111454.72  257.22
  -1   4  -111840.19  267.85
  -1   4  -2 2788.13  167.39
  -1   4  -3   69.24   73.01
  -1   4  -4  795.50  113.41
  -1   4  -547451.68  995.92
  -1   4  -632538.61  609.47
  -1   4  -636883.07 1023.87
  -1   4  -753206.73 1555.80
  -1   4  -8 3749.68  130.11
  -1   4  -9  576.17   65.14
  -1   4 -10 1808.61   93.54
  -1   4 -11  132.37   91.62
  -1   4 -12  283.11   61.54
  -1   4 -13  102.03   56.22
   1  -4  14  875.77   44.14
  -1   4 -14 1042.48  164.82
   1  -4  15  919.81   48.02
  -1   4 -15  986.97  101.51
   1  -4  16 1399.23   40.36
  -1   4 -16 1562.99  206.22
   1  -4  17 4938.70  107.10
  -1   4 -17 5689.92  235.52
   1  -4  1820384.35  503.48
  -1   4 -1825196.78 1003.59
   1  -4  19  386.36   30.02
  -1   4 -19  519.08  101.90
   1  -4  20   26.77   32.75
  -1   4 -20   95.13   66.37
   1  -4  21   85.71   34.91
  -1   4 -21   -6.30   76.39
  -1   4 -22   15.68   66.95
  -1   4 -23    5.92  112.26
   1  -3 -24   -5.60  131.89
  -1   3  24  -77.13   66.80
  -1   3  24  -50.10  110.38
   1  -3 -23    7.38  127.35
  -1   3  23   77.38   63.18
  -1   3  23   89.10   66.07
   1  -3 -22    9.50   61.55
  -1   3  22   37.59   52.87
  -1   3  22  -34.71   99.54
   1  -3 -21    7.97   64.50
  -1   3  21   84.08   60.10
  -1   3  21   18.31   97.33
   1  -3 -20  126.49   72.82
  -1   3  20  139.06   62.28
  -1   3  20  117.61   67.12
   1  -3 -19  566.18   92.60
  -1   3  19  452.78  139.92
  -1   3  19  518.20  148.06
   1  -3 -18  146.58   68.78
  -1   3  18  137.99   64.43
  -1   3  18  128.75   59.14
   1  -3 -17   10.49   54.80
  -1   3  17   23.68   84.47
  -1   3  17   47.04   52.17
   1  -3 -16   60.35   55.60
  -1   3  16   39.92   49.98
  -1   3  16   53.53   94.96
   1  -3 -15  768.62   87.11
  -1   3  15  773.18   85.96
  -1   3  15  791.30   79.11
   1  -3 -14  152.48   61.05
  -1   3  14  250.75   61.21
  -1   3  14  201.10   58.90
   1  -3 -13 7066.05  213.00
  -1   3  13 6862.19  205.60
  -1   3  13 7208.23  304.29
   1  -3 -12  248.81   56.17
  -1   3  12  229.91   54.09
   1  -3 -11  171.88   85.17
  -1   3  11  125.93   46.86
   1  -3 -10 2454.47  101.85
  -1   3  10 2536.47  158.33
   1  -3  -9 2126.34   89.80
  -1   3   9 1972.51   87.75
   1  -3  -8 1619.67  133.18
  -1   3   8 1493.21   77.58
   1  -3  -7  512.50   56.50
  -1   3   7  592.89   55.93
   1  -3  -6 2039.58   90.48
  -1   3   6 2140.81   89.36
   1  -3  -5 8838.16  213.74
  -1   3   5 8860.08  213.44
   1  -3  -417740.97  388.77
  -1   3   417924.76  393.65
   1  -3  -3 9802.82  221.27
  -1   3   3 9789.38  228.41
   1  -3  -222491.66  482.72
  -1   3   223945.75  513.43
   1  -3  -1  385.41   51.46
  -1   3   1  443.44   54.34
   1  -3   026413.61  577.39
  -1   3   026246.86  573.32
   1  -3   112021.34  263.19
  -1   3  -112036.95  366.15
  -1   3  -2  332.25   49.70
  -1   3  -3 2266.43  154.48
  -1   3  -5   35.64   13.05
  -1   3  -5   50.97   34.70
  -1   3  -6 9256.63  147.64
  -1   3  -6 9434.66  216.47
  -1   3  -716797.87  382.50
  -1   3  -716756.91  296.91
  -1   3  -8  161.62   46.43
   1  -3   9  425.95   28.22
  -1   3  -9  374.23   53.21
   1  -3  10 1071.40   41.80
  -1   3 -10 1143.42   72.31
   1  -3  11  127.07   45.66
   1  -3  11  101.92   15.01
  -1   3 -11  171.47   79.50
   1  -3  12  896.83   73.87
   1  -3  12  776.52   46.33
  -1   3 -12  906.20   73.09
   1  -3  13  179.14   59.26
   1  -3  13  194.94   21.37
  -1   3 -13  194.75   58.11
   1  -3  14  -21.26   53.72
   1  -3  14   64.49   20.22
  -1   3 -14   18.39   53.41
   1  -3  1540732.71 1209.10
   1  -3  1536242.59  923.44
  -1   3 -1540893.38 1229.22
   1  -3  16 5746.44  141.97
   1  -3  16 6184.51  257.63
  -1   3 -16 6042.51  255.84
   1  -3  1744598.52 1429.76
   1  -3  1739954.93 1103.81
  -1   3 -1744623.10 1433.60
   1  -3  1819061.47  616.17
   1  -3  1816220.69  407.51
  -1   3 -1818292.99  616.84
   1  -3  19 1187.48   56.78
   1  -3  19 1509.86  132.92
  -1   3 -19 1694.69  237.64
   1  -3  20   -2.54   35.96
   1  -3  20  -12.49   52.53
  -1   3 -20   13.32   56.75
   1  -3  21   54.29   67.79
  -1   3 -21   16.03  122.29
   1  -3  22   15.23   59.36
   1  -3  22   20.38   22.85
  -1   3 -22  -11.73   62.52
   1  -3  23    3.84   64.24
   1  -3  23   31.43   23.35
  -1   3 -23   31.83   66.93
   1  -3  24    2.98   60.16
  -1   3 -24    8.08  109.80
   1  -2 -24   17.57   86.99
  -1   2  24  248.18   74.65
  -1   2  24  290.83  123.35
   1  -2 -23   10.21  113.07
  -1   2  23   33.54   54.69
  -1   2  23   11.49   56.53
   1  -2 -22   -2.12   61.73
  -1   2  22   30.42   52.21
  -1   2  22    6.34   92.33
   1  -2 -21    8.99   72.09
  -1   2  21  171.58  105.70
  -1   2  21  108.17   61.24
   1  -2 -20   -9.75   67.12
  -1   2  20   66.42   58.62
  -1   2  20   72.73   57.21
   1  -2 -19 2646.30  163.72
  -1   2  19 2936.12  250.91
  -1   2  19 2680.72  147.07
   1  -2 -18  577.12   93.88
  -1   2  18  560.08   84.21
  -1   2  18  716.99   81.40
   1  -2 -17   15.89   52.43
  -1   2  17   36.59   81.89
  -1   2  17    5.69   45.64
   1  -2 -16 1129.03   99.67
  -1   2  16 1282.72  151.76
  -1   2  16 1097.61   90.03
   1  -2 -15 1148.59   94.51
  -1   2  15 1073.06   87.17
  -1   2  15 1120.38   87.64
   1  -2 -14   47.84   80.80
  -1   2  14    3.45   42.23
  -1   2  14   25.81   42.18
   1  -2 -13 1444.57   92.26
  -1   2  13 1459.55   87.99
  -1   2  13 1274.81   84.54
   1  -2 -12  870.87   73.36
  -1   2  12  921.15   73.75
   1  -2 -11  134.01   46.84
  -1   2  11   98.22   45.74
   1  -2 -10  123.63   45.14
  -1   2  10  129.07   43.06
   1  -2  -9  717.80   61.21
  -1   2   9  645.23   59.17
   1  -2  -8  238.45   82.27
  -1   2   8  163.64   80.35
   1  -2  -7  822.55   63.64
  -1   2   7  793.18   63.94
   1  -2  -612658.13  282.16
  -1   2   612809.21  289.13
   1  -2  -5 3583.91  176.04
  -1   2   5 3675.74  185.98
   1  -2  -4  238.76   83.25
  -1   2   4  224.54   47.57
   1  -2  -344340.42 1053.10
  -1   2   345688.84 1233.85
   1  -2  -2  140.50   44.96
  -1   2   2  133.90   85.01
   1  -2  -1 1276.52   69.55
  -1   2   1 1341.58   73.09
   1  -2   0 3839.32  108.39
  -1   2   0 3808.73  111.25
   1  -2   145675.76 1151.82
  -1   2  -143603.26  997.81
  -1   2  -235472.27  789.72
  -1   2  -4 2547.77   56.51
  -1   2  -4 2541.64   84.39
  -1   2  -5 2278.80   56.06
  -1   2  -5 2225.60   76.65
   1  -2   6 1052.09   40.54
  -1   2  -6 1048.99  101.37
  -1   2  -6 1032.96   26.31
   1  -2   7   85.51   13.93
   1  -2   7   56.09   36.88
  -1   2  -7   67.00   63.67
  -1   2  -7   71.31   26.61
   1  -2   8 2505.11   89.41
   1  -2   8 2461.42   47.28
   1  -2   9  135.87   39.79
   1  -2   9  140.12   18.43
  -1   2  -9  156.94   40.54
   1  -2  10  523.67   43.80
   1  -2  10  444.65   51.29
  -1   2 -10  598.47   54.35
   1  -2  11 3074.29   93.62
   1  -2  11 2938.12  103.58
  -1   2 -11 3145.69  172.44
   1  -2  12   83.53   37.57
   1  -2  12   76.67   41.66
  -1   2 -12   94.99   43.94
   1  -2  13  436.27   59.98
   1  -2  13  381.26   31.17
  -1   2 -13  491.26   61.50
   1  -2  14  508.63   68.93
   1  -2  14  554.94   37.37
  -1   2 -14  568.67   72.15
   1  -2  15 2139.90  111.28
   1  -2  15 2209.15  121.12
  -1   2 -15 2215.64  123.61
   1  -2  16  284.95   74.37
   1  -2  16  317.62   84.03
  -1   2 -16  397.95   87.18
   1  -2  17 7532.87  263.65
   1  -2  17 7410.20  284.98
  -1   2 -17 7271.09  273.87
   1  -2  18 4722.09  203.49
   1  -2  18 4529.68  182.87
  -1   2 -18 4870.62  220.81
   1  -2  19 1403.76  113.51
   1  -2  19 1254.58   64.86
  -1   2 -19 1442.69  215.86
   1  -2  20  830.78   92.81
   1  -2  20  679.98   51.05
  -1   2 -20  793.86  100.24
   1  -2  21  283.21   60.51
   1  -2  21   23.81   66.36
  -1   2 -21   35.36   74.53
   1  -2  22   15.35   45.54
   1  -2  22   -0.38   51.51
  -1   2 -22    1.38  100.56
   1  -2  23   -1.24   99.62
   1  -2  23   31.20   29.35
  -1   2 -23    8.20   64.54
   1  -2  24   37.05   30.04
   1  -2  24    0.08   62.21
  -1   2 -24    4.18   68.01
   1  -1 -24  -43.18   67.78
  -1   1  24   -1.49   58.00
  -1   1  24   54.12   48.53
   1  -1 -23   29.55  137.66
  -1   1  23  149.47   59.20
  -1   1  23    4.96  118.74
   1  -1 -22  -13.90  136.04
  -1   1  22  153.27   60.19
  -1   1  22  157.14   70.60
   1  -1 -21  790.72  112.48
  -1   1  21  820.79   99.64
  -1   1  21  784.91  148.64
   1  -1 -20 2343.20  164.27
  -1   1  20 2606.16  132.57
  -1   1  20 2541.42  239.13
   1  -1 -19 6271.98  257.69
  -1   1  19 6070.09  214.15
  -1   1  19 5772.98  232.45
   1  -1 -18  458.03   91.85
  -1   1  18  559.16   82.43
  -1   1  18  400.64  124.44
   1  -1 -17 4243.78  278.44
  -1   1  17 4352.00  159.55
  -1   1  17 4072.66  258.90
   1  -1 -16  228.18  123.18
  -1   1  16  295.04   57.90
  -1   1  16  314.73   67.99
   1  -1 -15   88.41   57.55
  -1   1  15  114.71   54.74
  -1   1  15  153.61   83.99
   1  -1 -14  617.51   76.58
  -1   1  14  737.35   65.97
  -1   1  14  627.93  128.87
   1  -1 -13  253.71   57.76
  -1   1  13  261.31   57.74
  -1   1  13  267.46   50.57
   1  -1 -12  -16.39   37.91
  -1   1  12   74.47   65.07
   1  -1 -11 2729.88  110.10
  -1   1  11 2622.14  104.42
   1  -1 -10 9418.65  244.11
  -1   1  10 9205.33  325.95
   1  -1  -935217.71  864.86
  -1   1   935506.84  869.50
   1  -1  -8 9866.91  322.82
  -1   1   810025.16  324.30
   1  -1  -7   46.07   39.32
  -1   1   7   90.48   39.77
   1  -1  -6  470.96   54.09
  -1   1   6  570.59   57.12
   1  -1  -5  163.35   44.67
  -1   1   5  198.20   45.65
   1  -1  -4  968.78  119.17
  -1   1   4  790.77   69.20
   1  -1  -326611.33  563.21
  -1   1   326500.74  562.60
   1  -1  -2135422.9 4206.44
  -1   1   2130194.6 3919.73
   1  -1  -1  750.33   51.15
  -1   1   1  765.16   53.49
   1  -1   046011.15 1073.44
  -1   1   043882.59  958.67
   1  -1   1 1211.43   52.89
  -1   1  -1 1333.71   55.53
  -1   1  -2 6679.34  135.42
  -1   1  -343204.53  919.66
   1  -1   4  105.93   17.54
  -1   1  -4   82.40   58.66
  -1   1  -4   62.23   32.42
   1  -1   514554.65  390.17
   1  -1   514166.93  242.22
  -1   1  -514961.46  255.00
  -1   1  -514414.97  293.60
   1  -1   6 5414.22  130.66
   1  -1   6 5619.79  133.71
  -1   1  -6 5355.01  180.72
  -1   1  -6 5725.13  128.35
   1  -1   7  690.28   31.50
   1  -1   7  641.85   50.93
  -1   1  -7  700.04   28.15
  -1   1  -7  677.07   49.16
   1  -1   8 1054.27   57.01
   1  -1   8 1033.43   61.44
  -1   1  -8  966.47   56.78
   1  -1   9   82.62   22.36
   1  -1   9  116.45   35.11
  -1   1  -9  126.30   36.80
   1  -1  10  401.44   30.63
   1  -1  10  366.54   80.64
  -1   1 -10  477.96   84.39
   1  -1  11  980.82   41.95
   1  -1  11  974.34  102.97
  -1   1 -11 1046.73   63.34
   1  -1  12  552.91   38.43
   1  -1  12  646.81   95.16
  -1   1 -12  650.13   99.33
   1  -1  13  713.09   44.57
   1  -1  13  740.09  108.25
  -1   1 -13  674.33   66.29
   1  -1  14 2165.64   73.44
   1  -1  14 2323.62  166.05
  -1   1 -14 2144.26  169.32
   1  -1  15   72.91   31.40
   1  -1  15   53.43   81.80
  -1   1 -15   76.79   51.06
   1  -1  16 1656.43  158.18
   1  -1  16 1430.42   68.53
  -1   1 -16 1491.54  106.15
   1  -1  17 2194.65  120.71
   1  -1  17 2199.38  134.66
  -1   1 -17 2025.59  122.58
   1  -1  18 2928.45  153.64
   1  -1  18 3049.16  140.66
  -1   1 -18 3170.99  155.68
   1  -1  19  166.44   41.66
   1  -1  19  274.55   64.45
  -1   1 -19  169.60  125.41
   1  -1  20  182.47   42.03
   1  -1  20  219.00   66.44
  -1   1 -20  189.65   72.85
   1  -1  21   -1.33   64.10
   1  -1  21  158.04   70.50
  -1   1 -21  286.91   71.98
   1  -1  22    0.93   75.45
   1  -1  22   -6.29   47.47
  -1   1 -22   18.85   84.06
   1  -1  23   -1.33   52.00
   1  -1  23   28.93   32.02
  -1   1 -23  -20.72   58.81
   1  -1  24   -1.01   61.18
   1  -1  24   97.93   37.46
  -1   1 -24  -12.11   70.02
   1   0 -24  -33.08   67.58
  -1   0  24   -3.71  104.17
  -1   0  24   -5.22   43.17
   1   0 -23  780.57  118.13
  -1   0  23  889.38  105.38
  -1   0  23  627.41  133.72
   1   0 -22  -24.16  110.96
  -1   0  22   -6.55   57.34
  -1   0  22  -17.24   43.17
   1   0 -21  594.14   96.66
  -1   0  21  630.62   68.43
  -1   0  21   18.45   87.85
   1   0 -20 2527.16  165.00
  -1   0  20 2668.00  242.55
  -1   0  20 2582.14  188.94
   1   0 -19   97.88   69.85
  -1   0  19  112.25   48.91
  -1   0  19   83.63   63.20
   1   0 -18   80.13   67.74
  -1   0  18  104.57   61.18
  -1   0  18  148.88   48.14
   1   0 -17  631.33  154.57
  -1   0  17  692.73  107.95
  -1   0  17  515.63  144.24
   1   0 -16   -2.58   45.48
  -1   0  16    2.81   32.50
  -1   0  16   -9.31   43.40
   1   0 -15   14.91   47.99
  -1   0  15   36.62   61.69
  -1   0  15   17.17   46.29
   1   0 -14 1214.33   89.72
  -1   0  14 1080.15   69.83
  -1   0  14 1113.29   86.99
   1   0 -13  101.68   48.68
  -1   0  13   17.00   85.21
  -1   0  13   65.80   37.78
   1   0 -12 2555.35  186.19
  -1   0  12 2706.09  114.75
   1   0 -11 5951.94  259.72
  -1   0  11 5732.45  171.04
   1   0 -1012067.20  306.12
  -1   0  1011529.95  291.04
   1   0  -946515.97 1186.61
  -1   0   945397.07 1177.96
   1   0  -8 2300.96   96.57
  -1   0   8 2426.10  159.72
   1   0  -7  653.31   58.94
  -1   0   7  641.53   59.16
   1   0  -6 3795.09  115.96
  -1   0   6 3961.01  189.38
   1   0  -536113.45  977.21
  -1   0   535816.84  842.90
   1   0  -4107387.3 3069.23
  -1   0   4104745.8 3010.96
   1   0  -3   23.67   49.64
  -1   0   3    9.23   27.40
   1   0  -258916.39 1436.08
  -1   0   253732.11 1243.24
   1   0   341628.89  858.90
   1   0   340992.65  836.07
  -1   0  -341197.56  835.55
  -1   0  -342168.52  854.29
   1   0   413459.38  249.03
   1   0   413303.15  233.92
  -1   0  -413319.25  235.11
  -1   0  -413912.29  283.08
   1   0   5 7156.98  216.68
   1   0   5 6693.47  134.59
  -1   0  -5 6770.03  131.48
  -1   0  -5 6569.08  139.62
   1   0   6  803.46   73.86
   1   0   6  804.65   48.99
  -1   0  -6 1000.52   48.22
  -1   0  -6  835.48   40.64
   1   0   7  266.00   39.60
   1   0   7  251.50   32.53
  -1   0  -7  265.67   37.08
  -1   0  -7  304.72   32.64
   1   0   8 8323.67  163.65
   1   0   8 8478.06  184.13
  -1   0  -8 8693.00  249.47
   1   0   9  310.06   41.16
   1   0   9  338.84   34.36
  -1   0  -9  327.61   41.54
   1   0  10 1095.11   85.72
   1   0  10 1122.51   58.59
  -1   0 -10 1131.82   60.33
   1   0  11 2355.03   83.72
   1   0  11 2417.66   72.69
  -1   0 -11 2502.10   90.27
   1   0  12 5174.48  122.51
   1   0  12 5097.11  136.02
  -1   0 -12 5263.60  147.25
   1   0  13   16.79   28.83
   1   0  13   38.27   33.63
  -1   0 -13   -7.26   66.26
   1   0  14 1977.00   78.51
   1   0  14 1943.91   89.19
  -1   0 -14 2018.59   96.83
   1   0  15  520.50   51.20
   1   0  15  562.70   61.92
  -1   0 -15  524.44   67.39
   1   0  16  157.14   81.48
   1   0  16   75.81   66.10
  -1   0 -16   20.69   89.03
   1   0  17 2734.86  120.54
   1   0  17 2659.59  154.83
  -1   0 -17 2720.46  130.10
   1   0  18  917.35   66.36
   1   0  18  912.33   83.26
  -1   0 -18  932.17   91.85
   1   0  19   52.06   37.47
   1   0  19   12.59   47.17
  -1   0 -19  -17.19   92.61
   1   0  20  246.56   64.22
   1   0  20  243.01   49.91
  -1   0 -20  261.16   71.44
   1   0  21  334.52   88.92
   1   0  21   -0.09  118.29
  -1   0 -21  373.54   76.07
   1   0  22    5.05   33.60
   1   0  22   -1.74   44.81
  -1   0 -22    6.18   51.06
   1   0  23   56.31   39.02
   1   0  23    0.11   53.78
  -1   0 -23    8.71  104.87
   1   0  24  307.75   77.42
   1   0  24   -1.12   61.71
  -1   0 -24    7.12   70.10
   1   1 -24   -1.53   71.44
  -1  -1  24  -42.21   68.39
  -1  -1  24  -22.99   65.32
   1   1 -23   42.54   84.22
  -1  -1  23  206.13   47.52
  -1  -1  23   11.62   76.63
   1   1 -22   40.89   70.65
  -1  -1  22   -0.96   64.48
  -1  -1  22   68.60   40.87
   1   1 -21  161.01  144.82
  -1  -1  21  239.85   82.95
  -1  -1  21    3.85  134.09
   1   1 -20  372.13   86.75
  -1  -1  20   11.89   80.50
  -1  -1  20  358.90   53.69
   1   1 -19   41.26   60.76
  -1  -1  19   35.55   62.51
  -1  -1  19    5.74   55.43
   1   1 -18   48.98  116.31
  -1  -1  18  109.50   61.26
  -1  -1  18   93.84   39.65
   1   1 -17  339.90  136.08
  -1  -1  17  317.29  127.29
  -1  -1  17  373.32   49.02
   1   1 -16  165.34   66.45
  -1  -1  16  195.43   72.45
  -1  -1  16  163.38  112.68
   1   1 -15 1076.11   95.65
  -1  -1  15 1171.53   92.78
  -1  -1  15 1101.04   63.12
   1   1 -14  174.27  105.11
  -1  -1  14  164.59   58.48
  -1  -1  14  204.65   67.94
   1   1 -13  656.44   76.43
  -1  -1  13  679.03   75.97
  -1  -1  13  798.34   53.08
   1   1 -12  708.54   74.64
  -1  -1  12  626.51   52.38
  -1  -1  12 1007.88  125.64
   1   1 -11 4689.17  152.72
  -1  -1  11 4492.99  147.01
   1   1 -10 1938.00  158.24
  -1  -1  10 1929.81   93.74
   1   1  -9  197.94   51.37
  -1  -1   9  189.91   50.08
   1   1  -8   75.93   42.77
  -1  -1   8   47.17   41.13
   1   1  -7 1490.44   76.60
  -1  -1   7 1279.57  132.18
   1   1  -6  104.82   74.33
  -1  -1   6   87.98   42.51
   1   1  -525359.24  577.20
  -1  -1   526216.78  599.24
   1   1  -474557.63 1945.33
  -1  -1   474176.74 1954.58
   1   1  -3 9483.94  261.99
  -1  -1   3 9558.38  197.47
   1   1  -2330847.513547.62
  -1  -1   2329478.813527.62
   1   1   3  358.85   37.33
   1   1   3  376.11   33.85
  -1  -1  -3  262.58   31.16
  -1  -1  -3  432.15   64.58
   1   1   450505.84 1128.92
   1   1   450882.64 1159.26
  -1  -1  -450735.23 1111.06
  -1  -1  -451110.26 1166.66
   1   1   521438.79  432.67
   1   1   521595.19  546.13
  -1  -1  -521565.11  446.82
  -1  -1  -521170.81  418.77
   1   1   6 1585.52   64.47
   1   1   6 1963.76  103.27
  -1  -1  -6 1675.47   68.00
  -1  -1  -6 1618.60   58.08
   1   1   7 4060.12  101.53
   1   1   7 3856.24  100.59
  -1  -1  -7 3854.76   96.02
   1   1   8 1464.42   62.76
   1   1   8 1458.76   63.52
  -1  -1  -8 1392.52   60.69
   1   1   9 3702.66  100.90
   1   1   9 3920.03  158.39
  -1  -1  -9 3629.72  101.00
   1   1  1033926.23  789.23
   1   1  1033594.76  797.30
  -1  -1 -1035194.25  941.58
   1   1  11 7328.82  171.01
   1   1  11 7038.46  170.14
  -1  -1 -11 7110.29  176.41
   1   1  12  116.83   38.96
   1   1  12  168.32   39.08
  -1  -1 -12  129.41   42.27
   1   1  13  334.01   80.23
   1   1  13  383.01   47.68
  -1  -1 -13  341.60   51.18
   1   1  14   39.64   62.26
   1   1  14   41.81   35.64
  -1  -1 -14    9.06   38.76
   1   1  15  473.95   94.75
   1   1  15  455.82   56.98
  -1  -1 -15  435.02  108.68
   1   1  16 1403.22   82.77
   1   1  16 1355.70   79.09
  -1  -1 -16 1365.03   91.14
   1   1  17  367.19   56.01
   1   1  17  321.88  101.12
  -1  -1 -17  378.38   65.12
   1   1  18  330.13   55.35
   1   1  18  269.57   57.99
  -1  -1 -18  319.37   66.38
   1   1  19  -27.69   41.89
   1   1  19  -32.90   68.80
  -1  -1 -19   54.32   84.91
   1   1  20   -6.05   46.74
   1   1  20  -42.52   43.13
  -1  -1 -20  -75.33   54.13
   1   1  21   30.65   86.43
   1   1  21   40.70   44.22
  -1  -1 -21   32.78   54.73
   1   1  22  494.31   66.18
   1   1  22  558.68   72.30
  -1  -1 -22   62.79   81.23
   1   1  23   -4.90   45.69
   1   1  23   47.49   67.64
  -1  -1 -23  -27.37   89.40
   1   1  24   52.60   43.58
   1   1  24   -6.22   88.70
  -1  -1 -24  -14.55   58.43
   1   2 -24  150.44  156.34
  -1  -2  24  137.24   42.12
  -1  -2  24  -12.52   82.14
   1   2 -23  -77.53   73.20
  -1  -2  23  -11.67   34.23
  -1  -2  23  -37.01   67.36
   1   2 -22   68.82   70.36
  -1  -2  22   22.67   60.22
  -1  -2  22  -15.71  113.50
   1   2 -21   91.08  136.03
  -1  -2  21   -3.85  126.29
  -1  -2  21  114.41   37.99
   1   2 -20  521.91   92.55
  -1  -2  20  450.96   80.04
  -1  -2  20   54.17   87.53
   1   2 -19   19.78   62.78
  -1  -2  19   42.01   31.47
  -1  -2  19  -15.29   59.08
   1   2 -18    6.74   65.12
  -1  -2  18   85.71   33.91
  -1  -2  18   69.63   62.67
   1   2 -17   32.25  106.41
  -1  -2  17    1.39  102.38
  -1  -2  17   70.05   54.76
   1   2 -16  334.38   84.93
  -1  -2  16  499.33   46.02
  -1  -2  16  497.31  146.61
   1   2 -15  120.79   63.77
  -1  -2  15  182.66   61.75
  -1  -2  15  195.24   60.84
   1   2 -14  468.57  131.50
  -1  -2  14  501.87   41.23
  -1  -2  14  524.27   73.63
   1   2 -13  485.55   71.15
  -1  -2  13  474.51   68.46
  -1  -2  13  413.92   38.78
   1   2 -12   28.87   45.23
  -1  -2  12   17.85   24.17
  -1  -2  12   51.96   42.17
   1   2 -11 1357.80   84.11
  -1  -2  11 1439.30   50.98
  -1  -2  11 1357.66   83.11
   1   2 -10  404.20   56.89
  -1  -2  10  438.92   56.12
   1   2  -9  699.85  106.70
  -1  -2   9  603.53   60.20
   1   2  -8   70.96   41.19
  -1  -2   8  114.78   41.66
   1   2  -7 1766.03   81.02
  -1  -2   7 1823.75   81.96
   1   2  -657450.69 1455.77
  -1  -2   657318.22 1459.66
   1   2  -521605.71  585.33
  -1  -2   521860.21  482.33
   1   2  -470253.24 1851.85
  -1  -2   474160.34 2114.38
   1   2  -324478.65  515.53
  -1  -2   324968.83  524.99
   1   2  -2275703.010775.36
  -1  -2   2265423.310203.13
   1   2  -1  508.32   33.55
  -1  -2   1  427.54   36.03
  -1  -2   1  585.66   37.39
   1   2   024803.10  502.05
  -1  -2   024969.35  452.26
   1   2   117374.96  296.53
   1   2   118398.73  332.66
  -1  -2  -118103.46  304.54
  -1  -2  -118775.31  404.81
   1   2   2  256.46   36.00
   1   2   2  185.03   30.53
  -1  -2  -2  214.47   32.25
  -1  -2  -2  170.61   19.07
   1   2   3 8114.11  136.70
   1   2   3 8470.04  240.87
  -1  -2  -3 8023.44  169.46
  -1  -2  -3 7954.11  133.96
   1   2   432827.31  665.92
   1   2   432478.87  705.19
  -1  -2  -432725.50  709.42
  -1  -2  -433386.16  746.14
   1   2   5 4354.41  203.84
   1   2   5 4753.05  162.68
  -1  -2  -5 4870.37  135.63
  -1  -2  -5 4700.05  105.74
   1   2   6   79.04   28.44
   1   2   6   65.86   35.71
  -1  -2  -6   87.61   27.40
  -1  -2  -6   12.81   39.34
   1   2   7   71.16   39.24
   1   2   7  134.36   33.75
  -1  -2  -7  116.26   56.73
   1   2   8116869.0 3835.50
   1   2   8119568.3 3699.31
  -1  -2  -8118076.7 3655.23
   1   2   927511.42  623.58
   1   2   928057.95  646.16
  -1  -2  -927884.08  629.21
   1   2  1011813.53  277.24
   1   2  1011133.46  255.84
  -1  -2 -1010754.59  253.68
   1   2  11 4279.32  121.06
   1   2  11 4437.08  202.31
  -1  -2 -11 4439.10  129.29
   1   2  12   76.46   62.80
   1   2  12  104.49   72.54
  -1  -2 -12   82.99   39.43
   1   2  13 6747.84  179.81
   1   2  13 6735.97  170.58
  -1  -2 -13 6704.75  177.63
   1   2  14 1878.15  136.15
   1   2  14 2039.88   92.66
  -1  -2 -14 1843.61   90.90
   1   2  15   -3.01   35.17
   1   2  15    5.81   39.31
  -1  -2 -15   59.86   38.93
   1   2  16  960.99   72.74
   1   2  16 1036.89   78.38
  -1  -2 -16 1139.41   80.50
   1   2  17   91.57   84.26
   1   2  17   74.62   77.27
  -1  -2 -17   72.50   49.54
   1   2  18  925.89   80.87
   1   2  18  938.01   75.02
  -1  -2 -18 1055.68  146.55
   1   2  19  179.57   56.92
   1   2  19  218.76   59.42
  -1  -2 -19  251.37  111.88
   1   2  20  456.32  114.32
   1   2  20  404.50   71.70
  -1  -2 -20  363.84   77.67
   1   2  21 1315.01   96.47
   1   2  21 1475.65  167.73
  -1  -2 -21 1388.72  108.94
   1   2  22   91.84   55.66
   1   2  22    3.18   53.84
  -1  -2 -22  206.04   61.96
   1   2  23   -3.48   83.87
   1   2  23   51.12   50.52
  -1  -2 -23   10.74   97.98
   1   2  24  -78.13   80.88
   1   2  24    1.81   42.68
  -1  -2 -24    5.23   54.96
   1   3 -23  337.50  181.34
  -1  -3  23  113.32  167.88
  -1  -3  23  301.25   69.69
   1   3 -22   26.83   75.46
  -1  -3  22   50.15  123.38
  -1  -3  22   46.32   30.34
   1   3 -21   30.76   64.62
  -1  -3  21    1.90   60.59
  -1  -3  21  -19.06   26.32
   1   3 -20  164.50  138.44
  -1  -3  20   -2.79   75.28
  -1  -3  20  177.84   57.68
   1   3 -19   33.67   63.79
  -1  -3  19   17.39   27.12
  -1  -3  19   42.75   60.69
   1   3 -18  508.50   95.82
  -1  -3  18  507.52   92.69
  -1  -3  18  523.26   72.68
   1   3 -17   22.49  114.21
  -1  -3  17   13.17   62.13
  -1  -3  17   54.86   27.55
   1   3 -16 5314.16  232.17
  -1  -3  16 4998.55  340.10
  -1  -3  16 5098.39  131.87
   1   3 -1510567.94  355.46
  -1  -3  1510440.96  522.60
  -1  -3  1510447.60  309.23
   1   3 -14 3472.76  173.63
  -1  -3  14 3726.41   92.97
  -1  -3  14 3544.39  158.89
   1   3 -13  535.44   78.36
  -1  -3  13  631.78   60.74
  -1  -3  13  640.36   78.40
   1   3 -12  313.44  107.57
  -1  -3  12  409.55   61.70
  -1  -3  12  313.68   27.95
   1   3 -11   14.26   40.31
  -1  -3  11   36.70   30.02
  -1  -3  11   -7.58   40.82
   1   3 -10  794.68  114.77
  -1  -3  10  759.25   66.77
  -1  -3  10  713.37   30.54
   1   3  -9   48.98   33.49
  -1  -3   9   -8.49   13.20
  -1  -3   9    9.35   32.46
   1   3  -8 4735.86  215.94
  -1  -3   8 4864.16  216.74
   1   3  -7 2600.19   96.09
  -1  -3   7 2588.97   96.34
   1   3  -6 2619.01   96.07
  -1  -3   6 2782.32   98.85
   1   3  -5 6384.35  233.77
  -1  -3   5 6689.40  251.95
   1   3  -4 1421.84  129.98
  -1  -3   4 1655.86   79.95
   1   3  -3 5176.04  213.42
  -1  -3   3 5101.13  145.57
   1   3  -2 9682.07  211.59
  -1  -3   210240.11  150.54
   1   3  -152503.59 1190.35
  -1  -3   153105.70 1217.12
   1   3   049011.09 1076.09
   1   3   053049.96 1329.60
  -1  -3   049336.87 1089.12
   1   3   1 8255.85  216.90
   1   3   1 7805.62  149.88
  -1  -3  -1 7772.73  154.25
  -1  -3  -1 7987.43  153.31
   1   3   218379.79  363.57
   1   3   218310.88  349.36
  -1  -3  -218498.96  367.59
  -1  -3  -217778.43  336.07
   1   3   3  947.66  107.17
   1   3   3  968.32   50.18
  -1  -3  -3  794.63   47.43
  -1  -3  -3  758.34   63.84
   1   3   4  606.97   44.48
   1   3   4  403.08   58.46
  -1  -3  -4  926.51   80.00
  -1  -3  -4  570.54   63.20
   1   3   5 3291.92  102.46
   1   3   5 3504.12   87.45
  -1  -3  -5 3417.79   83.62
   1   3   6   95.27   39.42
   1   3   6   78.11   29.84
  -1  -3  -6  123.83   52.75
   1   3   7 1171.55   69.02
   1   3   7 1202.00   55.19
  -1  -3  -7 1084.78   92.74
   1   3   842852.30 1018.43
   1   3   842544.72 1023.71
  -1  -3  -842384.04  999.37
   1   3   9  241.43   52.11
   1   3   9  326.81   40.48
  -1  -3  -9  194.22   75.85
   1   3  10 1101.77   74.10
   1   3  10 1103.06   59.48
  -1  -3 -10 1014.22   62.93
   1   3  11 9586.92  289.27
   1   3  11 9642.18  238.67
  -1  -3 -11 9321.64  220.37
   1   3  12 2939.88   96.53
   1   3  12 2965.28  114.14
  -1  -3 -12 3004.23  105.68
   1   3  13  111.67   66.19
   1   3  13  128.16   85.58
  -1  -3 -13  104.50   74.90
   1   3  14   49.61   36.29
   1   3  14   92.98   45.94
  -1  -3 -14   -1.32   72.06
   1   3  15 1113.38  116.05
   1   3  15 1187.72   84.07
  -1  -3 -15 1096.45  130.05
   1   3  16  159.57   47.84
   1   3  16  175.42   57.73
  -1  -3 -16  178.32   92.88
   1   3  17 1832.08  154.93
   1   3  17 1982.72  111.73
  -1  -3 -17 1880.86  173.67
   1   3  18 9148.39  392.49
   1   3  18 8391.20  246.41
  -1  -3 -18 8273.79  272.56
   1   3  19 5713.75  210.23
   1   3  19 5509.88  192.50
  -1  -3 -19 5625.49  217.15
   1   3  20   89.72   58.72
   1   3  20   59.61   82.99
  -1  -3 -20   12.27   57.69
   1   3  21  151.03   57.41
   1   3  21   71.95   67.39
  -1  -3 -21  211.13   65.16
   1   3  22  -46.08   45.91
   1   3  22   14.98   93.76
  -1  -3 -22    4.43   53.41
   1   3  23    2.72   84.22
   1   3  23   64.20   57.82
  -1  -3 -23   27.50  100.93
   1   3  24  470.69   68.40
   1   3  24   -4.04   41.55
  -1  -3 -24   15.74  120.10
   1   4 -23 2000.75  184.10
  -1  -4  23 1951.81  287.92
   1   4 -22  103.64  153.19
  -1  -4  22  -13.91   86.01
  -1  -4  22  147.30   47.80
   1   4 -21  407.29   97.78
  -1  -4  21  246.19   31.61
  -1  -4  21   22.23   93.68
   1   4 -20  432.27   95.54
  -1  -4  20    4.59   94.91
  -1  -4  20  301.26   54.68
   1   4 -19  300.53  165.46
  -1  -4  19   69.79   91.51
  -1  -4  19  285.09   31.62
   1   4 -18  564.25   97.85
  -1  -4  18   42.37   93.45
  -1  -4  18  435.09   34.45
   1   4 -17 2477.17  262.58
  -1  -4  17 2442.37  249.00
  -1  -4  17 2450.78  102.22
   1   4 -16 1374.96  122.82
  -1  -4  16 1446.92   49.43
  -1  -4  16 1311.19  202.22
   1   4 -15 7654.03  305.59
  -1  -4  15 7774.95  432.42
  -1  -4  15 7146.07  208.00
   1   4 -14 9284.55  499.21
  -1  -4  14 9104.07  488.54
  -1  -4  14 8155.23  238.10
   1   4 -13 2386.96  139.46
  -1  -4  13 2288.41   57.56
  -1  -4  13 2353.60  226.83
   1   4 -12  150.26  101.90
  -1  -4  12  136.90   32.01
  -1  -4  12  147.63   98.92
   1   4 -11  903.01   77.32
  -1  -4  11  937.80  130.85
  -1  -4  11  830.34   42.56
   1   4 -10   64.07   76.45
  -1  -4  10   49.66   21.36
  -1  -4  10   57.35   43.12
   1   4  -9 2344.29   99.68
  -1  -4   9 2288.76   52.95
  -1  -4   9 2240.03   98.71
   1   4  -8  108.01   46.81
  -1  -4   8  150.72   45.48
  -1  -4   8  112.55   18.70
   1   4  -7 6077.36  238.22
  -1  -4   7 5849.27  236.05
  -1  -4   7 5738.04   75.55
   1   4  -628883.32  671.94
  -1  -4   630152.85  710.47
  -1  -4   5 5557.81  153.68
  -1  -4   5 5425.37   62.20
   1   4  -4  791.15   55.67
  -1  -4   4  684.60   12.16
   1   4  -316414.22  348.37
  -1  -4   316090.78  258.78
   1   4  -213078.81  231.11
  -1  -4   213494.76  236.99
   1   4  -1 9319.65  204.13
   1   4  -1 8726.80  174.66
  -1  -4   1 8951.73  145.32
   1   4   0 1351.85   75.08
   1   4   0 1473.05   67.05
  -1  -4   0 1426.38   78.20
   1   4   1 8629.34  225.95
   1   4   1 8769.82  186.73
  -1  -4  -1 8734.20  182.30
  -1  -4  -1 9002.37  178.11
   1   4   2  460.27   42.69
   1   4   2  458.14   40.67
  -1  -4  -2  449.97   40.98
  -1  -4  -2  384.43   44.13
   1   4   3 6590.69  146.93
   1   4   3 7161.01  206.81
  -1  -4  -3 6711.82  137.30
   1   4   4  670.95   52.17
   1   4   4  631.05   79.85
  -1  -4  -4  644.95   43.39
   1   4   5 6871.37  201.85
   1   4   5 6502.47  155.42
  -1  -4  -5 6856.12  198.41
   1   4   6  216.11   44.57
   1   4   6  211.51   34.28
  -1  -4  -6  191.52   35.30
   1   4   7  963.56   50.25
   1   4   7  922.37   66.49
  -1  -4  -7  961.83   52.64
   1   4   811327.54  237.77
   1   4   811237.27  259.99
  -1  -4  -811706.10  312.46
   1   4   9  922.51   69.28
   1   4   9  954.16   52.55
  -1  -4  -9  897.63   56.42
   1   4  10 8453.81  213.29
   1   4  10 8276.82  183.83
  -1  -4 -10 8459.45  193.05
   1   4  11 1311.97   62.05
   1   4  11 1452.99   82.78
  -1  -4 -11 1332.22   68.81
   1   4  12 2807.31  116.96
   1   4  12 2594.63  140.33
  -1  -4 -12 2666.54  158.09
   1   4  13  465.92   68.01
   1   4  13  542.87   52.22
  -1  -4 -13  494.79   56.85
   1   4  14  292.29   47.03
   1   4  14  328.92  114.49
  -1  -4 -14  372.63   53.66
   1   4  15 1125.30   93.25
   1   4  15 1139.99   69.88
  -1  -4 -15 1244.73   80.01
   1   4  16  432.18   74.14
   1   4  16  404.62   55.73
  -1  -4 -16  484.69   63.80
   1   4  17 1358.74  104.31
   1   4  17 1176.93   76.61
  -1  -4 -17 1156.71   90.90
   1   4  18 4267.05  179.33
   1   4  18 3977.82  148.76
  -1  -4 -18 3876.79  164.38
   1   4  19 2435.64  222.92
   1   4  19 2121.58  108.95
  -1  -4 -19 2201.16  125.45
   1   4  20   17.51   76.35
   1   4  20   34.43   57.71
  -1  -4 -20   40.63   52.57
   1   4  21 1572.40  121.15
   1   4  21 1288.33   95.27
  -1  -4 -21 1362.88  110.88
   1   4  22  154.40   70.10
   1   4  22  100.69   93.96
  -1  -4 -22   13.65  107.81
   1   4  23  -73.92   95.94
   1   4  23   22.90   40.37
  -1  -4 -23   -9.67   85.91
   1   4  24   55.31   60.82
   1   4  24  -43.20   26.45
  -1  -4 -24   26.46  100.78
   1   5 -23  398.59  104.55
  -1  -5  23   27.35  106.53
   1   5 -22  115.80   85.88
  -1  -5  22    6.84   87.14
   1   5 -21  439.83  175.02
  -1  -5  21   66.28  102.51
   1   5 -20 2307.32  190.07
  -1  -5  20 2516.84  191.99
  -1  -5  20 1701.60   84.61
   1   5 -19 6215.93  298.49
  -1  -5  19 6108.58  300.38
   1   5 -18  -48.75   68.48
  -1  -5  18   42.19   28.57
  -1  -5  18   20.68   70.34
   1   5 -17  -44.09   60.08
  -1  -5  17  106.82  108.71
  -1  -5  17   -9.20   24.68
   1   5 -16  365.63  147.02
  -1  -5  16  269.10  147.07
  -1  -5  16  282.48   20.62
   1   5 -15  -11.86   57.33
  -1  -5  15   16.03  103.01
  -1  -5  15   28.55   22.24
   1   5 -14 5031.98  339.01
  -1  -5  14 5536.86  353.78
  -1  -5  14 5048.76  116.08
   1   5 -13 7264.72  260.63
  -1  -5  13 7843.92  418.98
  -1  -5  13 7434.06  151.22
   1   5 -12  -38.34   76.10
  -1  -5  12    3.47   13.99
  -1  -5  12  -21.58   43.59
   1   5 -11 1310.24   94.84
  -1  -5  11 1350.87   96.21
  -1  -5  11 1282.55   33.08
   1   5 -10 2200.37  178.44
  -1  -5  10 2279.23   37.75
  -1  -5  10 2403.99  113.56
   1   5  -9   31.96   42.97
  -1  -5   9   32.31    5.83
  -1  -5   9   57.55   43.42
   1   5  -8 1143.85   66.38
  -1  -5   8   22.00   62.09
   1   5  -7 9593.85  332.29
   1   5  -6 3641.30  120.57
   1   5  -5 1167.27   78.65
   1   5  -4 4646.85  145.63
   1   5  -3 9686.90  230.04
   1   5  -220347.75  447.43
   1   5  -219268.37  363.07
   1   5  -1 1771.22   65.37
   1   5  -1 1784.67   79.64
   1   5   0 2599.75   61.22
   1   5   0 2811.21  145.81
   1   5   1 7879.74  176.58
   1   5   1 7812.20  153.15
  -1  -5  -1 8066.05  241.81
   1   5   2 7104.28  207.21
   1   5   2 7310.03  163.35
  -1  -5  -2 7263.47  157.43
   1   5   3 4624.72  116.09
   1   5   3 4557.05  114.33
  -1  -5  -3 4677.28  170.74
   1   5   4 8355.33  189.04
   1   5   4 8933.53  253.03
  -1  -5  -4 8368.24  178.65
   1   5   5 8073.21  175.95
   1   5   5 7831.85  185.65
  -1  -5  -5 8200.75  239.26
   1   5   6  289.93   39.74
   1   5   6  420.10   51.39
  -1  -5  -6  306.14   74.90
   1   5   714353.55  293.85
   1   5   713633.96  310.48
  -1  -5  -714723.22  383.34
   1   5   8 1349.02   59.12
   1   5   8 1356.79   78.00
  -1  -5  -8 1327.19  107.65
   1   5   9   -4.59   37.13
   1   5   9   31.17   45.26
  -1  -5  -9   17.22   28.85
   1   5  10  557.65   75.64
   1   5  10  480.93   62.35
  -1  -5 -10  393.78   48.88
   1   5  11  337.87   62.23
   1   5  11  348.03   43.17
  -1  -5 -11  344.84   48.33
   1   5  12  -13.65   28.42
   1   5  12  -36.37   40.33
  -1  -5 -12   29.18   32.41
   1   5  13  796.32   81.11
   1   5  13  679.54   56.78
  -1  -5 -13  728.01   64.38
   1   5  14  -59.38   86.25
   1   5  14   -7.04   60.80
  -1  -5 -14  -17.46   38.20
   1   5  15  653.30  146.79
   1   5  15  614.19   60.26
  -1  -5 -15  676.31  116.29
   1   5  16  838.12   67.22
   1   5  16  986.79   94.68
  -1  -5 -16  852.57  131.70
   1   5  17  485.31   59.37
   1   5  17  510.65   85.21
  -1  -5 -17  575.23  121.55
   1   5  18  442.44   61.45
   1   5  18  467.74   86.68
  -1  -5 -18  407.10   74.73
   1   5  19  104.68   95.48
   1   5  19   -9.62   67.54
  -1  -5 -19   -8.06   45.95
   1   5  20   45.86  113.36
  -1  -5 -20   58.60   53.45
   1   5  21  136.99   54.11
   1   5  21  110.00   75.47
  -1  -5 -21  222.04  108.21
   1   5  22   30.78   68.71
   1   5  22   91.60   49.25
  -1  -5 -22    3.86  100.29
   1   5  23  -38.04   31.23
   1   5  23   33.48  114.17
  -1  -5 -23   11.96   96.52
   1   5  24  -80.64  106.25
   1   5  24    3.08   39.05
  -1  -5 -24   -0.75   89.80
   1   6 -22  -26.23   85.39
   1   6 -21  -49.90   92.91
   1   6 -20 3657.15  278.18
  -1  -6  20   12.55  140.70
   1   6 -19 6763.33  246.77
  -1  -6  19   66.79  186.12
   1   6 -18 1229.07  123.01
  -1  -6  18   18.97  121.66
  -1  -6  18  714.81   31.20
   1   6 -17  439.48   92.13
  -1  -6  17  297.26   20.22
  -1  -6  17   12.89   90.93
   1   6 -16 4218.61  195.41
  -1  -6  16 3020.82   61.31
   1   6 -15  943.48   97.75
  -1  -6  15  594.70   18.62
  -1  -6  15   47.15   96.74
   1   6 -14   51.41   52.50
  -1  -6  14  -60.54   52.62
   1   6 -13 2101.80  223.43
   1   6 -12  664.67   87.76
   1   6 -11 1363.94  102.92
   1   6 -10   23.53   48.01
   1   6  -9  871.33   78.53
   1   6  -8  106.39   88.75
   1   6  -7   14.10   38.76
   1   6  -6  116.03   44.67
   1   6  -5  112.34   43.61
   1   6  -421852.38  623.06
   1   6  -3 1242.85   40.00
   1   6  -3 1437.14   84.17
   1   6  -2  519.09   37.02
   1   6  -2  614.60   58.70
   1   6  -1 4281.75   80.55
   1   6  -1 4334.17  126.85
   1   6   0  331.11   27.79
   1   6   0  352.97   47.87
   1   6   1 6167.02  126.39
   1   6   1 6180.59  220.03
  -1  -6  -1 6327.98  152.00
   1   6   2 3535.93  106.30
   1   6   2 3640.23  139.16
  -1  -6  -2 3594.41  104.07
   1   6   310415.22  221.03
   1   6   310033.42  218.99
  -1  -6  -310529.39  304.65
   1   6   4 8812.95  203.68
   1   6   4 8888.09  199.06
  -1  -6  -4 8838.82  198.39
   1   6   5 7536.96  184.74
   1   6   5 7591.08  170.15
  -1  -6  -5 7794.36  177.36
   1   6   6  -19.65   46.98
   1   6   6  -15.98   33.11
  -1  -6  -6   28.61   28.87
   1   6   7   36.45   39.45
   1   6   7   47.79   29.49
  -1  -6  -7   22.82   32.75
   1   6   8 2814.80  110.62
   1   6   8 2880.48   87.41
  -1  -6  -8 2875.92   94.41
   1   6   9  306.27   40.83
   1   6   9  292.85   56.55
  -1  -6  -9  256.62   81.09
   1   6  10  633.85   71.14
   1   6  10  607.66   49.24
  -1  -6 -10  531.35   56.79
   1   6  11 1390.52   70.40
   1   6  11 1373.29   98.10
  -1  -6 -11 1325.76   77.66
   1   6  12 5133.19  144.70
   1   6  12 5196.96  187.17
  -1  -6 -12 5074.31  154.27
   1   6  13   27.41   33.78
   1   6  13  -11.56   49.70
  -1  -6 -13  -23.74   67.72
   1   6  14 2975.45  178.50
   1   6  14 3320.88  257.10
  -1  -6 -14 2999.68  125.15
   1   6  15 1731.48  215.24
   1   6  15 1816.68   91.96
  -1  -6 -15 1777.21  103.08
   1   6  16    2.84   50.35
   1   6  16  -20.66   34.04
  -1  -6 -16   22.57   39.93
   1   6  17   37.70   65.70
   1   6  17   30.76   55.09
  -1  -6 -17  -24.45   43.52
   1   6  18   56.32   68.58
   1   6  18   97.76   44.73
  -1  -6 -18  -22.53   93.80
   1   6  19  280.83   82.95
   1   6  19  168.77   94.89
   1   6  20  637.35   70.62
   1   6  20  621.32  181.34
  -1  -6 -20  567.21  138.72
   1   6  21  -60.18   59.77
   1   6  21   22.44   69.00
  -1  -6 -21   58.04   80.87
   1   6  22   49.76   39.17
   1   6  22   37.59   70.97
  -1  -6 -22  -12.84   96.67
   1   6  23  179.96   69.70
   1   6  23  -26.91   39.87
  -1  -6 -23    3.63   95.97
   1   7 -21   46.67  164.75
   1   7 -20 7143.81  369.15
   1   7 -19 5917.42  463.73
   1   7 -18  287.70  100.25
   1   7 -17   54.43   74.38
   1   7 -16   17.34   64.56
   1   7 -15  281.20   86.78
   1   7 -14  170.51   73.83
   1   7 -13   -0.48   49.02
   1   7 -12 1048.83  105.99
   1   7 -11  672.03   91.78
   1   7 -10 1992.14  121.78
   1   7  -9  784.65  147.52
   1   7  -8   21.95   46.75
   1   7  -7  -25.66   43.46
   1   7  -6 3059.17  190.89
   1   7  -5   60.09   43.23
   1   7  -4   45.52   40.31
   1   7  -4   18.27   41.19
   1   7  -3  247.40   51.42
   1   7  -3  197.25   23.58
   1   7  -2  137.99   16.64
   1   7  -2  129.75   46.71
   1   7  -116304.41  304.82
   1   7  -115514.40  463.40
   1   7   0   11.00   37.80
   1   7   0   44.12   21.20
   1   7   1    7.86   25.74
   1   7   1  120.45   37.01
  -1  -7  -1   63.49   37.71
   1   7   2 3354.59  103.46
   1   7   2 3235.45   89.10
  -1  -7  -2 3410.04  106.53
   1   7   3 1688.05  112.66
   1   7   3 1674.81   73.94
  -1  -7  -3 1771.99   77.95
   1   7   4 8151.92  256.76
   1   7   4 8206.09  190.78
  -1  -7  -4 8104.43  192.64
   1   7   5 6432.63  158.01
   1   7   5 6539.47  168.90
  -1  -7  -5 6590.24  167.20
   1   7   622666.69  503.28
   1   7   622944.45  543.53
  -1  -7  -622733.47  518.58
   1   7   737639.43  901.55
   1   7   737871.74  954.87
  -1  -7  -739814.97 1093.71
   1   7   8 1134.88   65.35
   1   7   8 1112.76   82.78
  -1  -7  -8 1356.84  121.53
   1   7   9 4471.61  156.93
   1   7   9 4287.19  124.05
  -1  -7  -9 4542.74  135.47
   1   7  10  193.28   44.34
   1   7  10  228.08   62.00
  -1  -7 -10  174.23   48.56
   1   7  11   24.32   34.33
   1   7  11   24.36   50.10
  -1  -7 -11   -2.41   38.56
   1   7  12 4932.93  151.36
   1   7  12 5168.32  200.54
  -1  -7 -12 4920.45  159.56
   1   7  13  856.70   74.53
   1   7  13 1010.85  106.46
  -1  -7 -13  815.20   82.48
   1   7  14 1094.99  207.29
   1   7  14  853.84  132.00
  -1  -7 -14 1154.50  149.66
   1   7  15 5396.31  386.31
   1   7  15 5139.01  182.14
  -1  -7 -15 5037.19  189.81
   1   7  16 3583.15  208.07
   1   7  16 3603.79  150.29
  -1  -7 -16 3581.29  163.69
   1   7  17 1672.94  172.91
   1   7  17 1635.39  147.41
  -1  -7 -17 1484.25  114.23
   1   7  18  195.65   56.68
   1   7  18  122.14   86.14
  -1  -7 -18  145.97   65.54
   1   7  19  533.15  105.25
   1   7  19  508.54   64.54
  -1  -7 -19  421.39   78.72
   1   7  20  -24.87  128.26
   1   7  20  -49.01   44.38
  -1  -7 -20  -34.80   94.49
   1   7  21  432.24  105.12
   1   7  21  535.79   60.54
  -1  -7 -21   -2.15  136.55
   1   7  22  -23.42   35.50
   1   7  22   48.13   67.45
  -1  -7 -22    0.05   87.55
   1   7  23  -27.65   22.79
   1   7  23   20.14   75.90
  -1  -7 -23   -3.83   96.87
   1   8 -20 1535.51  310.79
   1   8 -19   85.92   93.14
   1   8 -18  100.00   89.13
   1   8 -17   -9.53   66.66
   1   8 -16   29.21   70.24
   1   8 -15  756.19  106.91
   1   8 -14   49.51   67.99
   1   8 -13  482.71   94.14
   1   8 -12  106.44   69.18
   1   8 -11   31.22   58.79
   1   8 -10  963.35  101.44
   1   8  -9 2935.06  147.46
   1   8  -8 2496.94  216.58
   1   8  -7  435.26   72.39
   1   8  -6   72.06   55.82
   1   8  -6  106.48   52.66
   1   8  -5 1406.47  155.43
   1   8  -5 1476.06  164.46
   1   8  -4 3104.85  124.78
   1   8  -4 2931.54   57.05
   1   8  -4 2997.43  125.95
   1   8  -3  300.94   58.61
   1   8  -3  250.82   28.70
   1   8  -2 3668.38  213.16
   1   8  -2 3623.67   70.50
   1   8  -113015.84  331.17
   1   8  -113999.04  269.51
   1   8   0  528.29   36.07
   1   8   0  528.37   63.35
   1   8   1 2804.67  105.44
   1   8   1 2979.50  122.84
   1   8   2  292.53   37.58
   1   8   2  245.68   48.63
  -1  -8  -2  242.37   50.62
   1   8   3 1349.90   71.69
   1   8   3 1257.47   64.41
  -1  -8  -3 1472.29   77.64
   1   8   4 8935.29  281.89
   1   8   4 8293.47  201.01
  -1  -8  -4 8793.24  212.30
   1   8   5 1378.19   75.39
   1   8   5 1361.17  118.26
  -1  -8  -5 1467.31   77.08
   1   8   6   55.31   41.09
   1   8   6   28.45   64.43
  -1  -8  -6   51.63   40.46
   1   8   7 2359.01  105.83
   1   8   7 2258.66  145.66
  -1  -8  -7 2280.01  158.30
   1   8   8 3010.68  171.39
   1   8   8 2696.35  124.60
  -1  -8  -8 2684.92  108.34
   1   8   922423.21  665.29
   1   8   922457.49  598.58
  -1  -8  -922295.81  555.60
   1   8  10 4782.37  200.81
   1   8  10 5000.03  243.22
  -1  -8 -10 5099.04  263.50
   1   8  11 1489.32  119.99
   1   8  11 1558.54  146.55
  -1  -8 -11 1655.65   95.39
   1   8  12  172.74   47.52
   1   8  12   53.75   70.62
  -1  -8 -12   72.32   91.59
   1   8  13  -26.58   42.08
   1   8  13  -29.51  109.88
  -1  -8 -13  -41.93   48.40
   1   8  14  535.33  180.79
   1   8  14  517.35   72.66
  -1  -8 -14  541.89   77.21
   1   8  1515064.53  490.44
   1   8  1514668.07  528.47
  -1  -8 -1514551.33  579.02
   1   8  1611431.82  418.05
   1   8  1610703.48  315.80
  -1  -8 -1610455.27  344.98
   1   8  17 4625.68  172.82
   1   8  17 4856.92  249.05
  -1  -8 -17 4437.36  194.86
   1   8  18  193.24   98.78
   1   8  18  263.42   94.60
  -1  -8 -18  174.91   67.40
   1   8  19  963.16  222.97
   1   8  19  904.48   81.73
  -1  -8 -19  741.08   95.12
   1   8  20  168.44  186.30
   1   8  20  826.70  102.79
  -1  -8 -20  169.24   76.82
   1   8  21 -166.26   80.83
   1   8  21  -39.89   24.92
  -1  -8 -21   -0.39  100.55
   1   8  22    6.34   23.27
   1   8  22  322.70   80.37
  -1  -8 -22    0.13   98.75
   1   9 -19 1704.76  188.28
   1   9 -18  486.18  119.80
   1   9 -17  -21.75   74.63
   1   9 -16   99.63  146.42
   1   9 -15   70.80   78.19
   1   9 -14   -7.39  110.87
   1   9 -13  616.09  108.30
   1   9 -11  261.63   84.34
   1   9 -10 1721.96  225.32
   1   9  -9 2834.49  161.44
   1   9  -8  295.90   76.02
   1   9  -8  263.41   80.38
   1   9  -7  933.00   99.34
   1   9  -7  723.10   93.60
   1   9  -6  242.42   65.72
   1   9  -6  238.71   70.26
   1   9  -5  203.90   65.31
   1   9  -5  201.66  112.28
   1   9  -4  644.38   78.79
   1   9  -4  574.64   17.93
   1   9  -4  594.57   84.80
   1   9  -3 7562.38  160.24
   1   9  -3 7516.33  340.24
   1   9  -2 1021.61   59.08
   1   9  -2 1008.59   91.64
   1   9  -1 9209.11  182.96
   1   9  -1 8678.80  251.26
   1   9   0   57.19   45.07
   1   9   0   53.37   51.50
   1   9   1 4997.95  247.88
   1   9   1 4756.89  117.54
   1   9   2 5046.41  185.64
   1   9   2 5154.01  242.26
  -1  -9  -2 5084.54  158.60
   1   9   3 1998.27   80.69
   1   9   3 2062.23  157.40
  -1  -9  -3 1987.77  168.67
   1   9   4 1359.37   79.50
   1   9   4 1286.04   73.30
  -1  -9  -4 1530.19  145.14
   1   9   5 2079.51  150.55
   1   9   5 2024.01   94.10
  -1  -9  -5 2117.79   99.43
   1   9   6 4833.38  237.17
   1   9   6 4841.42  149.07
  -1  -9  -6 4942.97  158.04
   1   9   7  222.78   53.07
   1   9   7  104.73  106.21
   1   9   840252.80 1320.69
   1   9   840950.50 1085.19
  -1  -9  -840864.95 1100.48
   1   9   953153.64 1816.03
   1   9   954134.84 1543.34
  -1  -9  -951707.67 1481.44
   1   9  10 3075.08  292.33
   1   9  10 2819.82  143.21
  -1  -9 -10 4100.59  164.96
   1   9  11 1067.16  188.97
   1   9  11  992.47   80.28
  -1  -9 -11  861.28   87.44
   1   9  12 3582.67  212.07
   1   9  12 3808.18  286.94
  -1  -9 -12 3721.52  148.39
   1   9  13 1039.64  136.12
   1   9  13 1036.60  196.11
  -1  -9 -13 1071.58  151.48
   1   9  14  920.52   76.65
   1   9  14  973.70  114.78
  -1  -9 -14  933.23   86.91
   1   9  15  452.42   65.16
   1   9  15  411.11  100.42
  -1  -9 -15  440.65   71.89
   1   9  16  118.79   93.70
   1   9  16  180.24   86.98
  -1  -9 -16  110.02  108.64
   1   9  17    0.22   67.76
   1   9  17  -27.07   40.17
  -1  -9 -17    8.84   48.09
   1   9  18 1149.32   87.75
   1   9  18 1276.09  144.07
  -1  -9 -18 1075.26  103.20
   1   9  19 2105.56  166.38
   1   9  19 2332.13  300.71
  -1  -9 -19 1994.35  134.61
   1   9  20  886.76  140.68
  -1  -9 -20  848.75  100.71
   1   9  21    4.96   66.50
   1   9  21   -1.19   31.55
  -1  -9 -21   -0.09   46.55
   1  10 -18  -35.85   84.16
   1  10 -17  176.61  172.57
   1  10 -16   22.72   75.37
   1  10 -15  -49.89   78.92
   1  10 -14  273.41   99.31
   1  10 -13  897.29  125.44
   1  10 -12  115.65   78.97
   1  10 -11  196.24   91.69
   1  10 -11  267.69   86.68
   1  10 -10 1589.09  141.31
   1  10 -10 1571.54  146.23
   1  10  -9 3475.22  196.38
   1  10  -9 3630.73  198.14
   1  10  -8  601.48   96.06
   1  10  -8  573.71   96.98
   1  10  -7   -3.88   96.79
   1  10  -7   24.57   57.14
   1  10  -6  518.15  146.23
   1  10  -6  426.04   81.69
   1  10  -5  917.81   98.08
   1  10  -5  782.92   95.34
   1  10  -4 1404.13  104.56
   1  10  -4 1164.57   27.00
   1  10  -4 1149.50  176.57
   1  10  -3 1971.04   45.55
   1  10  -3 1993.36  123.72
   1  10  -2  207.43   44.13
   1  10  -2  190.42   77.43
   1  10  -1 3299.92  269.25
   1  10  -1 3398.25  132.30
   1  10   0 1432.74  113.21
   1  10   0 1151.56   61.67
   1  10   1  210.65   41.48
   1  10   1  217.95   67.29
   1  10   2 1771.03  105.09
   1  10   2 1902.08   78.87
   1  10   3  112.32  100.76
   1  10   3  133.65   76.43
  -1 -10  -3  232.82   58.69
   1  10   4  343.84  109.55
   1  10   4  384.04   53.71
  -1 -10  -4  409.69   66.84
   1  10   5    3.77   38.24
   1  10   5  -23.96   40.41
  -1 -10  -5   -9.23   75.24
   1  10   6    7.30   42.09
   1  10   6   57.93   41.04
  -1 -10  -6  -26.81   43.75
   1  10   7 1786.52   97.27
   1  10   7 1504.17  104.40
  -1 -10  -7 1777.85  174.36
   1  10   8 6311.14  227.33
   1  10   8 6764.81  210.26
  -1 -10  -8 6610.42  215.00
   1  10   911399.38  357.33
   1  10   912152.09  327.31
  -1 -10  -912052.66  336.66
   1  10  10  646.36  139.69
   1  10  10  654.19   97.73
  -1 -10 -10  821.23   89.52
   1  10  11   17.44   67.35
   1  10  11   25.32   50.86
  -1 -10 -11  -21.22   41.85
   1  10  12 1876.63  137.48
   1  10  12 2004.26  102.55
  -1 -10 -12 1858.15  110.24
   1  10  13  466.37   99.17
   1  10  13  649.36   66.59
  -1 -10 -13  533.58  131.15
   1  10  14  -13.98   69.53
   1  10  14   -0.51   61.20
  -1 -10 -14   34.43   46.64
   1  10  15   52.08   79.24
   1  10  15   21.83   72.40
  -1 -10 -15   69.43   52.07
   1  10  16  363.46  103.42
   1  10  16  472.19   64.53
  -1 -10 -16  347.46  127.26
   1  10  17    1.30   67.41
   1  10  17  -23.71   41.14
  -1 -10 -17   56.48   48.80
   1  10  18 2086.76  101.40
   1  10  18 2413.21  305.27
  -1 -10 -18 2333.32  135.78
   1  10  19 2013.33  177.46
  -1 -10 -19 1707.83  129.32
   1  10  20  727.78  138.44
  -1 -10 -20  750.07   97.40
   1  11 -17  -56.85   89.64
   1  11 -16 -167.69   88.16
   1  11 -16   52.06   93.16
   1  11 -15  -12.83   80.54
   1  11 -15   93.89  130.38
   1  11 -14    9.62   75.20
   1  11 -14    8.11   71.71
   1  11 -13  255.29  102.61
   1  11 -12  -25.78   72.55
   1  11 -12  -19.78   75.89
   1  11 -11  -45.37  118.20
   1  11 -11   75.50  123.21
   1  11 -10   84.46   84.18
   1  11 -10  152.41   81.90
   1  11  -9  -18.08   67.23
   1  11  -9  134.47  115.90
   1  11  -8  475.90   96.57
   1  11  -8  389.95  172.60
   1  11  -7  132.70  124.99
   1  11  -7   99.14   71.70
   1  11  -6   15.04   57.42
   1  11  -6  -43.17   56.10
   1  11  -5   63.02   64.94
   1  11  -5   87.38   65.09
   1  11  -4  264.88   25.19
   1  11  -4  318.71   76.51
   1  11  -4  244.64   76.71
   1  11  -3  840.10   47.56
   1  11  -3 1042.14   97.64
   1  11  -2  126.47   22.03
   1  11  -2  112.51   64.04
   1  11  -1 4121.42  192.61
   1  11  -1 3804.57   97.63
   1  11   019701.78  480.05
   1  11   022723.16  829.52
   1  11   127717.64  816.67
   1  11   129193.47  842.46
   1  11   2 5295.36  152.25
   1  11   2 5460.67  199.54
   1  11   3   45.09   46.11
   1  11   3  -11.98   33.81
   1  11   4  561.29  106.10
   1  11   4  544.95  135.95
  -1 -11  -4  623.44   80.79
   1  11   5 2444.12  180.11
   1  11   5 2469.31  123.27
  -1 -11  -5 2731.41  133.03
   1  11   6 4659.77  161.82
   1  11   6 4264.20  156.11
  -1 -11  -6 4392.79  171.61
   1  11   7  532.25   73.49
   1  11   7  414.14   70.09
  -1 -11  -7  474.26   75.15
   1  11   8  -21.74   46.53
   1  11   8   25.59   42.04
  -1 -11  -8   -7.87   78.50
   1  11   9   29.61   83.85
   1  11   9  -11.97   55.86
  -1 -11  -9   46.66   51.97
   1  11  10 2009.78  115.54
   1  11  10 1944.70  135.50
  -1 -11 -10 1996.54  200.14
   1  11  11 1724.79  102.18
   1  11  11 1526.28  126.86
  -1 -11 -11 1498.20  110.19
   1  11  12 1649.46  100.11
   1  11  12 1513.73  133.36
  -1 -11 -12 1674.57  112.32
   1  11  13  -30.09   67.78
   1  11  13  -54.87   79.64
  -1 -11 -13  -52.16   91.98
   1  11  14   79.64   65.82
   1  11  14   41.96   42.89
  -1 -11 -14  -44.04   48.70
   1  11  15  137.38   81.30
   1  11  15  131.68   51.51
  -1 -11 -15   73.97   58.99
   1  11  16  945.11  217.95
   1  11  16  871.45  135.55
  -1 -11 -16  938.68  154.79
   1  11  17  -10.92   30.77
   1  11  17   46.42  121.69
  -1 -11 -17    2.89   48.73
   1  11  18 1927.21  175.45
  -1 -11 -18 1654.09  126.39
   1  11  19  517.63  126.84
  -1 -11 -19  397.20   86.15
   1  12 -15  155.42  170.95
   1  12 -15 -157.31   94.65
   1  12 -14   70.14   93.03
   1  12 -14  106.95   96.63
   1  12 -13   29.72  144.61
   1  12 -13   54.60   88.26
   1  12 -12  639.39  132.61
   1  12 -12  719.26  127.51
   1  12 -11   35.97  143.34
   1  12 -11   61.26   83.68
   1  12 -10  -46.67  124.31
   1  12 -10    7.54   68.46
   1  12  -9   51.35  147.35
   1  12  -9   97.24   86.16
   1  12  -8 1507.50  147.23
   1  12  -8 1606.70  147.32
   1  12  -7  -33.14  122.35
   1  12  -7  -34.41  119.15
   1  12  -6   21.71   57.09
   1  12  -6  -29.56   58.52
   1  12  -5  667.86  102.29
   1  12  -5  649.58  175.45
   1  12  -4  543.12   94.68
   1  12  -4  515.69   93.71
   1  12  -4  469.53   30.18
   1  12  -3  236.40   33.78
   1  12  -3  133.85   75.69
   1  12  -2  652.03   55.46
   1  12  -2  704.09   93.87
   1  12  -1 1394.31  179.38
   1  12  -1 1190.54   77.53
   1  12   0   30.03   44.68
   1  12   0   46.56   56.01
   1  12   1   90.15   33.38
   1  12   1   69.26   62.93
   1  12   2 2558.19  134.91
   1  12   2 2437.46  144.45
   1  12   3  291.35   85.23
   1  12   3  334.66   72.00
   1  12   4 1918.85  111.87
   1  12   4 1757.56   89.54
   1  12   5   36.21   45.21
   1  12   5  122.05   97.57
  -1 -12  -5   98.32   59.22
   1  12   6 1180.53   95.13
   1  12   6  964.20  144.44
  -1 -12  -6 1221.03   99.23
   1  12   7  102.47   56.26
   1  12   7   76.67   94.23
  -1 -12  -7   66.88   59.62
   1  12   8  814.97  141.66
   1  12   8  705.11  149.75
  -1 -12  -8  744.06  150.91
   1  12   9  214.94  130.48
   1  12   9  198.60  117.07
  -1 -12  -9  301.01   70.28
   1  12  10 2878.76  258.32
   1  12  10 3178.51  140.50
  -1 -12 -10 2931.96  233.74
   1  12  11  188.60  145.08
   1  12  11  355.55   66.55
  -1 -12 -11  187.89   72.65
   1  12  12 1407.59  214.18
   1  12  12 1342.89  158.71
  -1 -12 -12 1196.35  104.21
   1  12  13  806.44  183.84
   1  12  13  670.30   79.61
  -1 -12 -13  632.09  149.53
   1  12  14  -25.34   45.81
   1  12  14   17.95  119.13
  -1 -12 -14  -37.53   53.61
   1  12  15   45.65  133.54
   1  12  15   97.05   79.27
  -1 -12 -15   49.49   58.10
   1  12  16  111.71   75.02
   1  12  16  -43.64   26.45
  -1 -12 -16  -45.18   93.63
   1  12  17  -11.92   23.69
   1  12  17   34.68   73.57
  -1 -12 -17  -17.42   51.58
   1  13 -13   54.05   89.74
   1  13 -13   37.78  160.41
   1  13 -12   46.64  101.74
   1  13 -12  135.02   95.03
   1  13 -11 1076.21  273.46
   1  13 -11 1140.73  162.29
   1  13 -10  569.95  138.73
   1  13 -10  891.73  140.97
   1  13  -9   73.40  130.78
   1  13  -9  -61.94  134.90
   1  13  -8   85.63   82.45
   1  13  -8   20.19   84.85
   1  13  -7  239.49   95.97
   1  13  -7  100.72  160.60
   1  13  -6   56.93   73.01
   1  13  -6    6.53  130.17
   1  13  -5  127.43  178.16
   1  13  -5  737.06  107.45
   1  13  -4    9.56   58.84
   1  13  -4  -10.95  100.15
   1  13  -3  -35.52   56.00
   1  13  -3   43.06   55.11
   1  13  -3    5.98   22.48
   1  13  -2   37.25   54.36
   1  13  -2  -12.38   16.95
   1  13  -1  518.51   88.49
   1  13  -1  465.47   35.38
   1  13   0  134.33   53.85
   1  13   0  235.38  121.58
   1  13   1   53.43   52.82
   1  13   1  -21.31   46.16
   1  13   2   53.68   94.88
   1  13   2  -28.77   31.62
   1  13   3   39.61   35.67
   1  13   3   34.94   56.10
   1  13   4  463.01   96.74
   1  13   4  389.61   79.54
   1  13   5  214.10   52.96
   1  13   5  187.60  118.93
   1  13   6   89.10   63.54
   1  13   6  109.84   52.17
  -1 -13  -6  201.98   65.45
   1  13   7  177.18   66.60
   1  13   7  178.32   59.09
  -1 -13  -7  194.31  118.29
   1  13   8  200.81   61.53
   1  13   8   36.74  110.45
  -1 -13  -8  159.53   66.42
   1  13   9   16.54   51.59
   1  13   9   31.15   54.45
  -1 -13  -9   85.86   95.75
   1  13  10    9.87   49.25
   1  13  10   35.30   55.06
  -1 -13 -10    9.17   52.22
   1  13  11  -23.33   54.90
   1  13  11   85.41   65.14
  -1 -13 -11  124.23   59.14
   1  13  12  215.67   76.42
   1  13  12   30.28  104.89
  -1 -13 -12  119.85  114.17
   1  13  13   13.63   53.88
   1  13  13   62.57   74.21
  -1 -13 -13  164.15   61.76
   1  13  14   -7.22   63.44
   1  13  14   -4.97   28.91
  -1 -13 -14   -6.11   50.50
   1  13  15  429.92   91.33
   1  13  15    8.71   52.99
  -1 -13 -15  395.20  119.94
   1  14 -10   41.49   91.04
   1  14 -10   -5.71   91.45
   1  14  -9  442.83  290.53
   1  14  -9 1433.33  172.46
   1  14  -8   10.65   70.28
   1  14  -8  -36.56  126.88
   1  14  -7  160.11  105.26
   1  14  -7  323.58  176.41
   1  14  -6  110.83   92.08
   1  14  -6  119.54   87.46
   1  14  -5   59.22   73.54
   1  14  -5  -31.02  130.24
   1  14  -4   91.67   75.78
   1  14  -4   29.47   74.53
   1  14  -3   57.74   74.31
   1  14  -3   81.58  125.97
   1  14  -2  234.87   82.64
   1  14  -2  173.92   39.68
   1  14  -1   50.59   69.02
   1  14  -1   62.39   40.82
   1  14   0 1099.00   56.43
   1  14   0 1433.06  120.72
   1  14   1   53.45   30.86
   1  14   1    4.13  115.20
   1  14   2  918.98  105.86
   1  14   2  796.79   58.03
   1  14   3   57.57   65.17
   1  14   3   57.21  111.37
   1  14   4   60.77   59.58
   1  14   4   25.36   39.98
   1  14   5  109.65   61.27
   1  14   5   26.86   44.38
   1  14   6  161.08   93.61
   1  14   6  124.71  119.80
   1  14   7  172.35   71.47
   1  14   7  144.96  103.61
  -1 -14  -7  231.19   74.24
   1  14   8  636.20   87.30
   1  14   8  499.36   79.96
  -1 -14  -8  579.01   89.84
   1  14   9   26.93   56.00
   1  14   9   82.21   55.35
  -1 -14  -9   -1.88   58.61
   1  14  10    3.93   58.71
   1  14  10  114.02   63.17
  -1 -14 -10   68.08   61.57
   1  14  11    3.32   81.44
   1  14  11  -20.24   56.94
  -1 -14 -11   12.65   92.33
   1  14  12  738.74  112.42
  -1 -14 -12  904.14  100.82
   1  14  13   10.52   29.68
   1  14  13  209.43   73.45
  -1 -14 -13  139.06   62.51
   1  15  -7  -65.10   89.93
   1  15  -7  -34.85  161.13
   1  15  -6 1166.06  166.97
   1  15  -6 1083.17  170.16
   1  15  -5 5898.95  307.80
   1  15  -5 5526.15  314.55
   1  15  -4 1778.41  290.46
   1  15  -4 1171.83  284.97
   1  15  -3  -51.56   72.72
   1  15  -3   31.58   70.79
   1  15  -2  230.70   92.68
   1  15  -2  128.12   91.58
   1  15  -1 1416.81  145.55
   1  15   0    2.01   37.61
   1  15   0  -16.21   62.33
   1  15   1  -12.51   69.07
   1  15   1   40.21   29.04
   1  15   2  227.20   75.58
   1  15   2  434.73   91.70
   1  15   3  389.68   54.46
   1  15   3  726.55   99.14
   1  15   4  105.60   77.33
   1  15   4  137.58  129.75
   1  15   5  -39.39   61.69
   1  15   5    4.25   71.61
   1  15   6  581.66  153.79
   1  15   6  355.61   67.89
   1  15   7  -71.44   50.98
   1  15   7    6.74   63.61
   1  15   8  449.63   71.84
   1  15   8   36.03   82.99
   1  15   9 1347.92  167.77
   1  15   9  890.70  104.93
  -1 -15  -9 1044.56  117.94
   1  15  10 1165.27  200.59
  -1 -15 -10 1310.70  124.43
   1  16   0   72.14   82.68
   1  16   1  341.50  101.76
   1  16   2   33.16   32.56
   1  16   2   41.16   75.28
   1  16   3  -14.26   69.48
   1  16   3  -17.76   59.31
   2 -14  -6  -88.36   77.64
  -2  14   6    0.73  145.66
  -2  14   6   79.51   49.24
   2 -14  -5   76.20   87.25
  -2  14   5   92.67   95.56
  -2  14   5  103.07   90.33
  -2  14   4  401.83  107.60
  -2  14   4  361.09  220.13
  -2  14   3  713.56  122.52
  -2  14   3 1029.00  157.00
  -2  14   2 2474.71  338.81
  -2  14   2 1924.04  100.38
  -2  14   1  175.00  114.17
  -2  14   1  155.23   41.95
  -2  14   0  265.32  190.35
  -2  14   0  135.92   62.13
  -2  14  -1  790.87  147.93
  -2  14  -2   26.91   88.69
  -2  14  -3 -124.52  101.29
  -2  14  -4    3.47   77.18
  -2  14  -5   54.14  155.62
  -2  14  -5  -57.37   87.82
   2 -13 -11  -65.37  131.66
  -2  13  11   20.30   71.89
  -2  13  11  -41.12   66.80
   2 -13 -10  674.08  123.16
  -2  13  10  921.54  210.76
  -2  13  10  753.99  107.31
   2 -13  -9  281.34  103.80
  -2  13   9  426.19  107.18
  -2  13   9  338.46   83.45
   2 -13  -8 1827.18  264.46
  -2  13   8 2005.63  278.87
  -2  13   8 1655.04  202.57
   2 -13  -7   75.47   80.13
  -2  13   7   70.14   86.73
  -2  13   7   68.44  100.53
   2 -13  -6  118.32   89.65
  -2  13   6  170.67  103.62
  -2  13   6  280.16  166.96
   2 -13  -5  -99.74  138.11
  -2  13   5  -91.00   88.13
  -2  13   5  -60.66   87.81
   2 -13  -4  -18.04   76.95
  -2  13   4   63.15   86.40
  -2  13   4   81.79   45.78
  -2  13   3   60.63   88.56
  -2  13   3   81.68   44.34
  -2  13   2  638.76  134.89
  -2  13   2  631.17   61.99
  -2  13   1 1472.28   76.91
  -2  13   1 1878.79  172.07
  -2  13   0  152.14   67.11
  -2  13   0  396.91  106.31
  -2  13  -1  100.27   31.75
  -2  13  -1  175.76   95.43
  -2  13  -2   78.54  150.14
  -2  13  -2   51.86   42.66
  -2  13  -3  362.62  112.13
  -2  13  -4  449.08  206.67
  -2  13  -5  160.06  101.49
  -2  13  -6  180.84  108.87
  -2  13  -6  161.93  105.19
  -2  13  -7 2638.61  213.83
  -2  13  -7 2447.20  357.00
  -2  13  -8 1355.62  178.84
  -2  13  -8 1238.48  289.54
  -2  13  -9  429.08  124.30
  -2  13  -9  236.64  122.55
   2 -12 -13 3929.96  241.60
  -2  12  13 4119.14  368.11
  -2  12  13 4068.31  364.44
   2 -12 -12 4950.20  405.63
  -2  12  12 5048.26  386.11
  -2  12  12 5012.03  258.18
   2 -12 -11    5.67   76.59
  -2  12  11   39.78   73.68
  -2  12  11   71.23   68.61
   2 -12 -10  -14.83   60.45
  -2  12  10  -12.17  102.55
  -2  12  10   14.72   51.39
   2 -12  -9   78.87  141.96
  -2  12   9  209.87   83.44
  -2  12   9   83.39   67.60
   2 -12  -8   44.79   69.15
  -2  12   8   26.92   54.87
  -2  12   8   18.84  125.34
   2 -12  -7  467.33   99.62
  -2  12   7  369.25   75.17
  -2  12   7  518.76  104.49
   2 -12  -6  -34.38  124.06
  -2  12   6   95.98   76.12
  -2  12   6   27.19   49.00
   2 -12  -5  -74.80   68.80
  -2  12   5   18.05   43.77
  -2  12   5  139.85   72.17
   2 -12  -4   61.81  130.69
  -2  12   4   38.98   44.55
  -2  12   4   79.66   78.77
   2 -12  -3  482.98  102.35
  -2  12   3  367.60   58.19
  -2  12   3  519.26  187.95
   2 -12  -2  445.05  107.12
  -2  12   2  585.14  110.79
  -2  12   2  499.03   55.48
  -2  12   1  578.58   88.01
  -2  12   1  646.99  199.00
  -2  12   0  171.28   64.08
  -2  12   0  209.82   95.26
  -2  12  -1 2535.07   84.57
  -2  12  -1 2753.26  301.45
  -2  12  -2  681.77   68.99
  -2  12  -2  823.50  127.56
  -2  12  -3   10.44   18.68
  -2  12  -3   -5.70  123.45
  -2  12  -4  787.46  118.38
  -2  12  -4  572.69   31.14
  -2  12  -5   20.24   76.13
  -2  12  -6   -2.04  144.24
  -2  12  -6 2681.66  160.29
  -2  12  -7   10.48   85.07
  -2  12  -7   62.20   82.84
  -2  12  -8  247.23  180.94
  -2  12  -8  128.11  178.51
  -2  12  -9  -29.28   94.07
  -2  12  -9  -56.99   88.89
  -2  12 -10 1900.26  193.98
  -2  12 -10 1998.11  307.64
  -2  12 -11  245.54  116.53
  -2  12 -11  328.31  114.23
  -2  12 -12   64.75  145.26
  -2  12 -12  -23.43  143.32
   2 -11 -16  488.03  112.04
  -2  11  16  421.61  215.98
   2 -11 -15  326.98  101.60
  -2  11  15  280.08   94.90
  -2  11  15  450.10  191.47
   2 -11 -14  992.78  135.94
  -2  11  14  967.07  127.72
  -2  11  14 1321.87  143.14
   2 -11 -13 3205.69  331.97
  -2  11  13 3441.86  313.66
  -2  11  13 3754.77  209.24
   2 -11 -12 1335.57  133.18
  -2  11  12 1146.36  132.74
  -2  11  12 1269.65  131.97
   2 -11 -11 -114.30   71.74
  -2  11  11  -11.74   67.36
  -2  11  11  -46.95   69.61
   2 -11 -10  -10.12   70.51
  -2  11  10   74.08   64.56
  -2  11  10  112.28   71.10
   2 -11  -9   28.89   61.47
  -2  11   9   52.51   93.54
  -2  11   9  -25.90   61.97
   2 -11  -8   25.50   65.45
  -2  11   8  -40.37  115.80
  -2  11   8   69.09   94.30
   2 -11  -7   21.08  131.45
  -2  11   7  125.12   78.66
  -2  11   7  124.81  104.09
   2 -11  -6  379.83   96.32
  -2  11   6  419.42   72.53
  -2  11   6  512.26  100.42
   2 -11  -5 1125.49  120.79
  -2  11   5 1014.45   88.02
  -2  11   5 1297.93  218.19
   2 -11  -4  -93.29   79.40
  -2  11   4   86.54   79.67
  -2  11   4  142.61   48.38
   2 -11  -3 7364.10  277.40
  -2  11   3 7282.25  291.95
  -2  11   3 7818.70  445.70
   2 -11  -2  342.84  105.72
  -2  11   2  338.94   99.38
  -2  11   2 1112.83  117.72
   2 -11  -1 1730.21  141.03
  -2  11   1 1792.17  147.71
  -2  11   1 1668.62  123.60
  -2  11   0   29.70   30.28
  -2  11   0   53.80   71.96
  -2  11  -1  383.16   38.69
  -2  11  -1  318.38   96.08
  -2  11  -2   68.82  107.16
  -2  11  -2  -12.30   35.79
  -2  11  -3  -14.16   73.17
  -2  11  -3   60.01   22.00
  -2  11  -4   53.50   32.30
  -2  11  -4  188.43  133.40
  -2  11  -5  309.87   33.78
  -2  11  -5  460.64  100.38
  -2  11  -6    0.01   72.70
  -2  11  -6   27.27   15.03
  -2  11  -7  376.41  110.32
  -2  11  -7  361.53  110.28
  -2  11  -8  495.08  118.40
  -2  11  -8  510.47  117.38
  -2  11  -9 1014.50  143.58
  -2  11  -9 1110.67  140.50
  -2  11 -10  876.68  135.95
  -2  11 -10  838.95  135.95
  -2  11 -11   37.88   93.00
  -2  11 -11  197.01   91.43
  -2  11 -12  205.44  101.31
  -2  11 -12  107.35  170.28
  -2  11 -13   23.31  138.26
  -2  11 -13   16.20   79.11
  -2  11 -14  146.36  171.39
  -2  11 -14  128.39  171.37
   2 -10 -17  320.33  109.59
  -2  10  17  369.25  208.97
  -2  10  17  420.77   98.45
   2 -10 -16 4879.86  253.59
  -2  10  16 5740.43  285.62
  -2  10  16 5282.45  367.74
   2 -10 -15   58.25   80.37
  -2  10  15  167.69   86.09
  -2  10  15   77.80   73.45
   2 -10 -14  -48.00   63.16
  -2  10  14   20.41   57.82
  -2  10  14   -7.80   66.69
   2 -10 -13  153.28  124.88
  -2  10  13  105.47   74.68
  -2  10  13   17.61   68.49
   2 -10 -12   -0.52   62.75
  -2  10  12   29.96  112.76
  -2  10  12   36.95   60.94
   2 -10 -11  787.30  109.98
  -2  10  11  549.89  181.79
  -2  10  11  982.64  108.34
   2 -10 -10  256.97  151.22
  -2  10  10  353.69   87.13
  -2  10  10  295.78   83.15
   2 -10  -9  -24.70   68.54
  -2  10   9   22.99   68.80
  -2  10   9  116.85   60.88
   2 -10  -8 2270.23  151.91
  -2  10   8 2423.38  257.11
  -2  10   8 2311.25  137.56
   2 -10  -7  453.95   94.64
  -2  10   7  431.50   79.24
  -2  10   7  502.42  100.07
   2 -10  -6  597.79   98.47
  -2  10   6  607.31  100.69
  -2  10   6  526.69   76.59
   2 -10  -5   80.58   68.01
  -2  10   5   65.27   50.22
  -2  10   5   49.28  125.58
   2 -10  -4  445.40   92.86
  -2  10   4  490.47   99.33
  -2  10   4  494.41   64.81
   2 -10  -312880.67  388.23
  -2  10   313056.90  403.90
  -2  10   311093.45  292.25
   2 -10  -2 4324.81  202.30
  -2  10   2 4325.58  211.07
   2 -10  -1  533.29   92.19
  -2  10   1  499.77   51.63
  -2  10   1  556.35   96.61
  -2  10   0   70.73  133.75
  -2  10   0  134.57   35.60
  -2  10  -1 1872.05   68.75
  -2  10  -1 1895.36  138.14
  -2  10  -2   58.03   45.00
  -2  10  -2   47.92   70.04
  -2  10  -3 1360.28  128.13
  -2  10  -3 1347.79   76.87
  -2  10  -4 2888.30   98.66
  -2  10  -4 2958.59  179.28
  -2  10  -5  406.17  104.94
  -2  10  -5  332.19   23.32
  -2  10  -6 1599.10   49.96
  -2  10  -6 1790.37  177.26
  -2  10  -711096.46  471.06
  -2  10  -715224.69  510.91
  -2  10  -811819.47  465.05
  -2  10  -811341.60  633.20
  -2  10  -9 1275.42  137.82
  -2  10  -9 1219.28  149.35
  -2  10 -10  -26.97   72.21
  -2  10 -10   63.41   70.29
  -2  10 -11  797.50  125.92
  -2  10 -11  887.05  214.30
  -2  10 -12  613.28  193.20
  -2  10 -12  442.72  113.28
  -2  10 -13   53.11   79.97
  -2  10 -13   79.09   81.49
  -2  10 -14   27.24   69.99
  -2  10 -14  -43.30  124.57
  -2  10 -15   -5.24  142.02
  -2  10 -15   50.58   78.59
  -2  10 -16  279.32  195.87
  -2   9  19  106.86  168.21
  -2   9  18  -17.71   76.61
  -2   9  18   28.78   58.23
   2  -9 -17  837.24  120.20
  -2   9  17  958.46  136.01
   2  -9 -16   -1.31   70.84
  -2   9  16  140.75   79.71
  -2   9  16   30.51   63.70
   2  -9 -15  346.62   94.19
  -2   9  15  446.61  101.44
  -2   9  15  357.21   84.92
   2  -9 -14  225.11   85.57
  -2   9  14  219.43  161.31
  -2   9  14  238.10   77.95
   2  -9 -13 1367.59  210.13
  -2   9  13 1294.03  114.78
  -2   9  13 1316.25  131.92
   2  -9 -12   10.77   65.86
  -2   9  12   60.50   67.99
  -2   9  12  113.99  110.96
   2  -9 -11   -0.03   60.20
  -2   9  11   19.55   61.14
  -2   9  11   40.31   58.25
   2  -9 -10  804.82  178.27
  -2   9  10  988.36  103.97
  -2   9  10  744.29  104.13
   2  -9  -9   89.14   65.16
  -2   9   9    4.80   61.24
  -2   9   9  151.28  117.24
   2  -9  -8  404.90  155.02
  -2   9   8  465.16   89.67
   2  -9  -7  812.10  106.43
  -2   9   7  927.52  105.94
   2  -9  -6 2065.41  229.58
  -2   9   6 2297.35  142.01
   2  -9  -5  962.45  100.76
  -2   9   5  863.03  177.93
   2  -9  -4  -57.88   92.46
  -2   9   4   26.52   52.73
   2  -9  -3 1481.12  114.35
  -2   9   3 1480.05  119.82
   2  -9  -2  -11.23   50.16
  -2   9   2   29.70   92.36
   2  -9  -1 2245.84  134.39
  -2   9   1 2296.05  138.42
   2  -9   0  541.22   87.53
  -2   9   0  366.38   91.57
  -2   9  -1 5797.95  396.59
  -2   9  -233066.32  986.03
  -2   9  -3 4247.93  214.88
  -2   9  -4  988.37   38.14
  -2   9  -4  927.03  127.89
  -2   9  -5  -29.62   78.06
  -2   9  -5  123.96   29.84
  -2   9  -6 4806.58  105.22
  -2   9  -6 5462.66  240.42
  -2   9  -722542.53  669.47
  -2   9  -718027.82  314.23
  -2   9  -8 5650.99  269.89
  -2   9  -8 5524.56  274.48
  -2   9  -9   92.26   71.45
  -2   9  -9  -16.32  131.62
  -2   9 -10   76.89   72.88
  -2   9 -10   68.07   73.23
  -2   9 -11  357.76   96.01
  -2   9 -11  343.10   94.12
  -2   9 -12   42.59  108.43
  -2   9 -12  -55.74  110.32
  -2   9 -13   34.37   68.97
  -2   9 -13    5.04   70.16
  -2   9 -14  185.82  157.78
  -2   9 -14  199.37   93.92
  -2   9 -15  162.46   91.54
  -2   9 -15  206.62   94.53
  -2   9 -16  -28.42  145.25
  -2   9 -16  -93.33   86.82
  -2   9 -17  102.19  129.59
  -2   9 -17  -39.99   70.21
  -2   9 -18  163.08  184.55
  -2   9 -18  256.26  173.96
  -2   8  20  180.84  184.17
  -2   8  19  -46.98   80.03
  -2   8  19   67.69   59.69
   2  -8 -18    0.58   61.39
  -2   8  18  -11.80   68.94
   2  -8 -17   -2.36   69.74
  -2   8  17   54.97   78.19
  -2   8  17   79.39   61.49
   2  -8 -16 1346.21  129.45
  -2   8  16 1233.69  116.80
  -2   8  16 1392.39  244.43
   2  -8 -15  129.32   78.32
  -2   8  15   96.38   70.77
  -2   8  15  186.93   85.64
   2  -8 -14   66.09  133.77
  -2   8  14  187.97   82.40
  -2   8  14  128.50   68.75
   2  -8 -13  697.95  177.39
  -2   8  13  789.20  110.55
  -2   8  13  664.79  166.79
   2  -8 -12 2508.43  148.16
  -2   8  12 2310.08  155.64
  -2   8  12 2641.01  144.14
   2  -8 -11   26.18   54.80
  -2   8  11   16.66   54.02
  -2   8  11  -72.69   56.12
   2  -8 -10 4327.57  184.28
  -2   8  10 4288.64  291.63
   2  -8  -9  246.30   76.27
  -2   8   9  250.89   76.07
   2  -8  -8  269.40  131.42
  -2   8   8  315.79   77.94
   2  -8  -7  323.72   76.14
  -2   8   7  356.46   78.60
   2  -8  -6   64.46  111.28
  -2   8   6  168.74  111.61
   2  -8  -5  456.09   80.00
  -2   8   5  488.28   80.68
   2  -8  -4  158.13   62.39
  -2   8   4  119.42   64.51
   2  -8  -3    3.40   86.48
  -2   8   3   15.01   50.30
   2  -8  -2   65.74   54.67
  -2   8   2    9.69  100.41
   2  -8  -1  138.85   66.38
  -2   8   1  194.57   65.72
   2  -8   0 2724.41  230.14
  -2   8   0 2450.00  135.31
   2  -8   1 4437.39  184.55
  -2   8  -1 4716.86  209.14
  -2   8  -215054.88  639.40
  -2   8  -3 9923.88  367.87
  -2   8  -4 6574.76  256.33
  -2   8  -5 -123.29   83.73
  -2   8  -6  754.89   22.08
  -2   8  -6  711.01  103.28
  -2   8  -7 2913.35   48.75
  -2   8  -7 3165.80  167.30
  -2   8  -7 2982.71   49.58
  -2   8  -8  375.84   86.39
  -2   8  -8  278.78   85.95
  -2   8  -9 3451.98  176.77
  -2   8  -9 3506.23  170.03
  -2   8 -10  -68.30   92.15
  -2   8 -10   78.01   96.29
  -2   8 -11  262.24   89.05
  -2   8 -11  275.84   85.82
  -2   8 -12 3100.20  178.04
  -2   8 -12 2995.89  177.23
  -2   8 -13  809.26  111.93
  -2   8 -13  655.44  194.19
  -2   8 -14   72.66  135.81
  -2   8 -14  104.78   75.09
  -2   8 -15   39.34   75.30
  -2   8 -15  125.89   78.54
  -2   8 -16  457.72  103.38
  -2   8 -16  433.74  108.55
  -2   8 -17 1287.25  221.01
  -2   8 -17  921.40  138.76
  -2   8 -18  460.00  116.23
  -2   8 -18  461.57  108.32
  -2   8 -19  -39.28  126.73
  -2   8 -19   45.42   77.49
  -2   7  21 1671.28  183.72
  -2   7  20  221.17   79.13
  -2   7  20  192.02  184.61
  -2   7  19   -7.92   69.60
   2  -7 -18   -2.93   86.43
  -2   7  18  312.05   75.91
  -2   7  18  319.09   96.44
   2  -7 -17   85.32   74.76
  -2   7  17  139.67  145.00
  -2   7  17   82.88   67.35
   2  -7 -16  -38.12   56.14
  -2   7  16   12.42   49.71
  -2   7  16   22.50   61.88
   2  -7 -15   -9.80   58.30
  -2   7  15  -11.58   63.12
  -2   7  15   -0.05   53.49
   2  -7 -14 3411.56  296.58
  -2   7  14 3985.12  199.29
  -2   7  14 3743.05  277.51
   2  -7 -13   67.87  114.08
  -2   7  13   -8.68   58.79
  -2   7  13  101.58   68.67
   2  -7 -12 4239.13  189.74
  -2   7  12 4284.70  181.19
   2  -7 -11    2.20   48.47
  -2   7  11   -6.30   82.13
   2  -7 -10 2845.70  250.37
  -2   7  10 2956.95  151.13
   2  -7  -9 2481.04  136.49
  -2   7   9 2486.78  137.26
   2  -7  -8   12.52   88.11
  -2   7   8  -23.76   51.07
   2  -7  -7  766.66   86.17
  -2   7   7  794.36  152.51
   2  -7  -6 2881.21  130.75
  -2   7   6 2916.49  134.68
   2  -7  -5  433.61   72.73
  -2   7   5  486.63   74.65
   2  -7  -4 7053.02  213.34
  -2   7   4 7139.49  216.49
   2  -7  -3   25.58   95.78
  -2   7   3   91.95   53.41
   2  -7  -2  487.08   71.18
  -2   7   2  492.68  125.23
   2  -7  -1   33.78   46.93
  -2   7   1   21.49   86.91
   2  -7   0  924.34   84.32
  -2   7   0  976.11   85.72
   2  -7   1  425.94   70.62
  -2   7  -1  516.33   72.75
  -2   7  -2  -16.33   47.38
  -2   7  -3 2689.14  214.66
  -2   7  -4  443.92   77.83
  -2   7  -5   59.66   57.81
  -2   7  -6 4020.42  267.22
  -2   7  -7 2276.18   42.23
  -2   7  -7 2554.62  131.48
  -2   7  -8  845.17  158.87
  -2   7  -8  824.13   94.08
  -2   7  -9 1403.76  107.54
  -2   7  -9 1281.52  108.85
  -2   7 -10  569.59   91.55
  -2   7 -10  590.45  149.94
  -2   7 -11   50.84   58.07
  -2   7 -11   -8.18  106.33
  -2   7 -12   94.13   69.52
  -2   7 -12   79.37   68.37
  -2   7 -13 1853.26  145.33
  -2   7 -13 1924.23  232.56
  -2   7 -14    6.32   58.23
  -2   7 -14    9.28   61.45
  -2   7 -15  953.01  197.47
  -2   7 -16  349.74   93.05
  -2   7 -17   65.03   72.32
  -2   7 -18   -2.10   57.93
  -2   7 -19   35.79   72.80
  -2   7 -20   34.68   73.90
  -2   6  22 9286.98  423.98
  -2   6  21  464.62   95.93
  -2   6  21  249.34  206.03
  -2   6  20  227.33   96.24
  -2   6  19  868.64  108.63
  -2   6  19  864.93  124.59
   2  -6 -18  137.26   76.95
  -2   6  18  100.25  121.99
  -2   6  18   80.46  144.53
   2  -6 -17  240.38   86.65
  -2   6  17  240.78   93.30
  -2   6  17  276.82   77.63
   2  -6 -16  444.73   99.53
  -2   6  16  717.25  107.11
  -2   6  16  608.75   90.48
   2  -6 -15  374.99   91.07
  -2   6  15  309.29   82.52
  -2   6  15  455.80   98.58
   2  -6 -14 7630.94  293.33
  -2   6  14 7914.09  283.71
   2  -6 -13  -24.20  123.80
  -2   6  13  -24.72  115.34
   2  -6 -1232770.15 1013.27
  -2   6  1231887.27  995.22
   2  -6 -1123167.04  718.53
  -2   6  1123437.45  685.52
   2  -6 -10 2322.21  232.51
  -2   6  10 2440.43  235.56
   2  -6  -9  537.04   77.65
  -2   6   9  436.91   78.68
   2  -6  -8   38.15   96.24
  -2   6   8   83.92   53.85
   2  -6  -7  992.52   86.17
  -2   6   7 1023.94   87.59
   2  -6  -6  569.66  120.17
  -2   6   6  491.78   70.20
   2  -6  -5  104.12   52.92
  -2   6   5  113.72   52.06
   2  -6  -4 3175.50  123.12
  -2   6   4 3163.80  126.96
   2  -6  -3 4778.94  153.78
  -2   6   3 4656.07  246.02
   2  -6  -2 3570.37  209.12
  -2   6   2 3586.28  210.73
   2  -6  -1   -1.30   70.97
  -2   6   1  -17.35   73.11
   2  -6   0 3235.63  118.61
  -2   6   0 3094.57  119.55
   2  -6   1 5499.01  162.65
  -2   6  -1 5332.94  161.80
   2  -6   2  173.54   50.06
  -2   6  -2   52.91   49.40
  -2   6  -3  871.53   76.58
  -2   6  -4   53.26   47.01
  -2   6  -5  827.40  134.38
  -2   6  -6 2378.84  114.66
  -2   6  -7    8.74   10.98
  -2   6  -7   17.94   78.05
  -2   6  -7   -5.34   43.26
  -2   6  -8  152.41    9.66
  -2   6  -8  182.94   60.30
  -2   6  -8  244.40   60.98
  -2   6  -9   60.79   89.68
  -2   6  -9   19.11   48.54
  -2   6 -10  -11.50   46.25
  -2   6 -10    3.37   44.48
  -2   6 -11  795.46   90.39
  -2   6 -11  654.03  152.20
  -2   6 -12   31.67   54.20
  -2   6 -13  228.38   70.23
  -2   6 -14  222.59  127.77
  -2   6 -15  296.93   79.88
  -2   6 -16   -2.32   92.30
  -2   6 -17  -44.98   64.23
  -2   6 -18  607.08  175.98
  -2   6 -19  256.59   86.95
  -2   6 -20    9.48  110.44
  -2   6 -21  -11.03   66.38
   2  -5 -22    0.09   73.47
  -2   5  22  -18.34   65.87
  -2   5  22   -1.87   68.53
   2  -5 -21   -1.21  138.64
  -2   5  21  171.94  128.82
  -2   5  21   91.53  142.28
  -2   5  20   20.16   67.57
   2  -5 -19  114.03  124.83
  -2   5  19   39.06  106.58
  -2   5  19   57.46   72.54
   2  -5 -18  429.37   96.16
  -2   5  18  649.99  172.60
  -2   5  18  459.96   85.58
   2  -5 -17   79.73   70.47
  -2   5  17   84.48   73.60
  -2   5  17   99.29  107.90
   2  -5 -16 4465.08  209.13
  -2   5  16 4434.27  185.87
  -2   5  16 4964.14  214.97
   2  -5 -15  173.00   75.78
  -2   5  15   93.59  120.14
  -2   5  15   97.44   77.34
   2  -5 -1415925.54  499.08
  -2   5  1414943.77  459.25
   2  -5 -13  141.94  353.24
  -2   5  13 2785.65  201.73
   2  -5 -12194045.3 8648.15
  -2   5  12190987.0 8569.31
   2  -5 -11 1049.29  116.05
  -2   5  11 1049.86  116.73
   2  -5 -10 2262.73  125.89
  -2   5  10 2299.86  124.03
   2  -5  -9 2503.96  123.59
  -2   5   9 2627.66  124.81
   2  -5  -8  164.98   56.24
  -2   5   8  111.62   96.61
   2  -5  -7  313.22   61.94
  -2   5   7  339.32   59.80
   2  -5  -6 1321.29  146.66
  -2   5   6 1343.11   84.90
   2  -5  -5  181.11   53.13
  -2   5   5  178.76   52.92
   2  -5  -4 7225.83  196.66
  -2   5   4 7045.72  193.85
   2  -5  -3  889.03   75.95
  -2   5   3  954.09   77.84
   2  -5  -215119.12  353.63
  -2   5   214792.79  348.90
   2  -5  -115659.40  363.65
  -2   5   115298.33  358.14
   2  -5   0 3012.49  113.00
  -2   5   0 2953.65  182.82
   2  -5   1  453.32   59.67
  -2   5  -1  524.19  105.48
   2  -5   2 2205.62   95.60
  -2   5  -2 2173.70  155.73
  -2   5  -3  -49.34   73.89
  -2   5  -4 2312.27   97.71
  -2   5  -5 2298.17   98.08
  -2   5  -6 1634.70   89.53
  -2   5  -7  696.47   71.45
  -2   5  -7  745.05   71.04
  -2   5  -7  713.56   25.76
  -2   5  -8  260.87   55.41
  -2   5  -8  216.01   16.21
  -2   5  -8  297.87   57.82
  -2   5  -9  156.60   95.26
  -2   5  -9  156.93   13.36
  -2   5 -10 5409.80  177.20
  -2   5 -11  263.63   64.63
  -2   5 -12  559.83   75.26
  -2   5 -13  -18.25   47.92
  -2   5 -14  224.88   66.01
  -2   5 -15    2.07   81.52
  -2   5 -16  319.51   78.11
  -2   5 -17   84.31  114.59
  -2   5 -18   24.29   60.22
  -2   5 -19   15.39  103.27
  -2   5 -20  157.69   78.63
  -2   5 -21    3.54  100.66
  -2   5 -22   22.26   66.57
   2  -4 -23   -3.32   73.57
  -2   4  23   53.13   69.13
  -2   4  23   27.59   69.93
   2  -4 -22   -9.69   83.25
  -2   4  22  154.68   78.96
  -2   4  22  264.39  128.96
   2  -4 -21    9.71   69.35
  -2   4  21   25.36   60.96
  -2   4  21  120.43  116.19
   2  -4 -20   62.24   72.70
  -2   4  20   79.03   63.29
  -2   4  20   61.59   70.55
   2  -4 -19  235.96  140.02
  -2   4  19  198.60   78.06
  -2   4  19  153.27   70.27
   2  -4 -18   27.47  114.22
  -2   4  18   98.92  113.61
  -2   4  18   43.51   57.43
   2  -4 -17  218.66   78.83
  -2   4  17  220.47   77.59
  -2   4  17  215.77   70.13
   2  -4 -16  623.36   97.24
  -2   4  16  709.12   97.57
  -2   4  16  668.58   89.19
   2  -4 -15   -2.84   59.49
  -2   4  15   42.69   53.58
   2  -4 -14  -17.44   63.80
  -2   4  14  -80.32  108.35
   2  -4 -1324178.90  704.76
  -2   4  1324416.10  709.64
   2  -4 -12 2598.59  140.14
  -2   4  12 2395.10  239.47
   2  -4 -11 3998.45  255.08
  -2   4  11 3860.88  156.21
   2  -4 -10  129.87   55.73
  -2   4  10  145.19   54.69
   2  -4  -9  163.13   53.96
  -2   4   9  126.20   52.22
   2  -4  -8 2054.81  100.49
  -2   4   8 1903.25  161.35
   2  -4  -7  -49.54   74.20
  -2   4   7  -16.89   72.23
   2  -4  -6 6639.45  182.34
  -2   4   6 6390.16  259.51
   2  -4  -5  682.65   71.95
  -2   4   5  696.92  127.43
   2  -4  -488697.89 2585.70
  -2   4   487849.45 2739.76
   2  -4  -3 7517.53  260.73
  -2   4   3 8068.47  254.65
   2  -4  -2351170.215431.92
  -2   4   2350122.015484.78
   2  -4  -111567.69  289.95
  -2   4   111715.68  299.55
   2  -4   0  584.84   64.38
  -2   4   0  529.10   67.25
   2  -4   113537.81  302.74
  -2   4  -113926.15  405.76
   2  -4   2   57.25   74.44
  -2   4  -2  119.75   42.33
  -2   4  -3 2823.03  100.56
  -2   4  -4  651.90   61.54
  -2   4  -5  157.58   47.22
  -2   4  -6 4740.11  223.74
  -2   4  -6 4943.52   95.46
  -2   4  -7 5085.92   94.32
  -2   4  -7 4921.55  152.02
  -2   4  -7 5224.17  153.33
  -2   4  -8 2952.42  113.83
  -2   4  -8 3029.27   63.66
  -2   4  -9 6129.25   93.10
  -2   4  -9 6710.68  184.46
  -2   4 -10 3625.80   57.90
  -2   4 -10 4017.31  135.06
  -2   4 -11  854.13  129.97
  -2   4 -12  185.81   55.80
  -2   4 -13   89.44   52.53
  -2   4 -14  899.20  146.40
  -2   4 -15  234.20   65.59
  -2   4 -16 1978.16  128.44
  -2   4 -17 1524.18  120.87
  -2   4 -18  496.53   92.10
  -2   4 -19   84.07   66.85
  -2   4 -20   86.02   68.77
  -2   4 -21  106.05   70.21
  -2   4 -22  -48.36  119.37
  -2   4 -23    7.28   62.63
   2  -3 -23   -3.58   90.83
  -2   3  23  284.47   79.00
  -2   3  23  190.56  135.52
   2  -3 -22   10.13   73.98
  -2   3  22   13.88   64.24
  -2   3  22   94.07   63.53
   2  -3 -21   45.28   63.18
  -2   3  21   28.58   99.18
  -2   3  21  -18.26   55.95
   2  -3 -20  -46.58   66.93
  -2   3  20   17.79  100.22
  -2   3  20  -26.83   59.29
   2  -3 -19  109.34  144.99
  -2   3  19  197.26   74.29
  -2   3  19  239.98   71.59
   2  -3 -18   51.23  112.27
  -2   3  18  -75.20   96.74
  -2   3  18  -38.11   57.70
   2  -3 -17  605.91  165.36
  -2   3  17  614.40   89.87
  -2   3  17  575.26   84.65
   2  -3 -16 2213.82  227.53
  -2   3  16 1964.71  202.27
  -2   3  16 1948.60  126.29
   2  -3 -15 4607.18  196.52
  -2   3  15 4737.01  188.29
   2  -3 -14   44.08   58.87
  -2   3  14   58.91   97.45
   2  -3 -13 2493.62  132.60
  -2   3  13 2454.54  126.18
   2  -3 -12   17.14   46.79
  -2   3  12    3.15   45.15
   2  -3 -11  157.24   58.01
  -2   3  11  200.59   55.65
   2  -3 -10 2922.02  197.39
  -2   3  10 3088.87  120.33
   2  -3  -9   90.00   46.40
  -2   3   9   63.63   45.34
   2  -3  -8 4198.08  136.48
  -2   3   8 4376.89  205.86
   2  -3  -7  278.50   54.88
  -2   3   7  356.78   92.59
   2  -3  -6   13.89   69.63
  -2   3   6   42.53   69.15
   2  -3  -5  570.70   62.73
  -2   3   5  659.18  107.61
   2  -3  -4  632.97   65.64
  -2   3   4  660.49  114.04
   2  -3  -339516.59  954.62
  -2   3   339891.22  968.14
   2  -3  -2  105.18   83.03
  -2   3   2  170.16   49.22
   2  -3  -1 9924.87  230.13
  -2   3   110299.26  241.31
   2  -3   0 1374.48   72.80
  -2   3   0 1390.08   76.43
   2  -3   1 2038.68   82.06
  -2   3  -1 2061.32  145.37
   2  -3   2   48.10   36.38
  -2   3  -2   48.44   37.79
  -2   3  -3   19.52   34.44
  -2   3  -412510.10  367.25
  -2   3  -5  345.19   90.49
  -2   3  -6  201.05   16.76
  -2   3  -6  212.73   46.51
  -2   3  -7 5448.09  120.24
  -2   3  -7 5512.90  163.60
  -2   3  -862530.44 1676.60
  -2   3  -857432.84 1382.57
  -2   3  -9 3855.69  122.37
  -2   3  -9 3676.12   64.22
  -2   3 -10 2409.56  152.82
  -2   3 -10 2232.08   66.16
  -2   3 -11 1918.43   92.03
  -2   3 -12 7364.34  211.69
  -2   3 -13 3383.27  136.71
   2  -3  14 1023.15   38.18
  -2   3 -14 1160.30   87.34
   2  -3  15  221.13   43.81
  -2   3 -15  260.59   66.04
   2  -3  16   89.40   41.80
  -2   3 -16  119.13  115.75
   2  -3  17 3031.22  120.26
  -2   3 -17 3209.03  169.95
   2  -3  18  562.53   63.55
  -2   3 -18  599.29  166.84
   2  -3  19  885.10   69.85
  -2   3 -19  830.11  107.58
   2  -3  20  987.89   73.93
  -2   3 -20 1325.83  188.68
   2  -3  21   80.25   42.20
  -2   3 -21   39.26   69.01
   2  -3  22   99.59   25.93
  -2   3 -22   27.19   72.00
  -2   3 -23   30.00   63.61
   2  -2 -23    0.04   72.10
  -2   2  23   -3.54   58.28
  -2   2  23   82.85   63.25
   2  -2 -22   95.64   83.75
  -2   2  22  201.92   73.36
  -2   2  22   97.19   68.90
   2  -2 -21  132.46   73.01
  -2   2  21    2.00  105.59
  -2   2  21  -45.09  112.77
   2  -2 -20  265.50   88.59
  -2   2  20  214.96   78.50
  -2   2  20  302.61   74.74
   2  -2 -19 1633.65  230.96
  -2   2  19 1602.47  124.93
  -2   2  19 1644.62  118.48
   2  -2 -18  476.29  171.71
  -2   2  18  531.45   87.86
  -2   2  18  592.26   87.11
   2  -2 -17   47.08   96.44
  -2   2  17   14.25   48.43
  -2   2  17  -10.15   49.92
   2  -2 -16 1503.59  185.86
  -2   2  16  800.40   94.22
  -2   2  16 1551.03  168.26
   2  -2 -15   79.12  101.10
  -2   2  15   33.39   53.70
   2  -2 -14  654.43  146.67
  -2   2  14  728.23  139.26
   2  -2 -13   42.29   96.04
  -2   2  13   82.11   54.59
   2  -2 -12  882.35  142.42
  -2   2  12  854.63  138.17
   2  -2 -11  105.24   49.26
  -2   2  11   63.68   47.54
   2  -2 -10  601.51   66.01
  -2   2  10  565.96   63.91
   2  -2  -9 3084.41  114.24
  -2   2   9 2973.66  177.70
   2  -2  -8   80.06   83.35
  -2   2   8  132.80   45.12
   2  -2  -7  712.43   65.73
  -2   2   7  878.62   65.44
   2  -2  -6 3919.15  125.63
  -2   2   6 4036.91  124.60
   2  -2  -544435.55 1085.54
  -2   2   547308.97 1160.60
   2  -2  -4 2046.25   88.50
  -2   2   4 2013.51   90.66
   2  -2  -3 2290.90  151.31
  -2   2   3 2234.69  159.30
   2  -2  -218530.73  397.34
  -2   2   218927.37  412.14
   2  -2  -1  942.94   65.62
  -2   2   1 1006.53   68.72
   2  -2   039613.79  902.17
  -2   2   041142.04 1071.94
   2  -2   1 5329.89  136.98
  -2   2  -1 5447.22  217.83
   2  -2   2 9503.55  202.66
  -2   2  -2 9423.76  208.11
  -2   2  -315962.39  334.54
  -2   2  -4 2691.46   92.09
  -2   2  -5 3814.18   96.37
  -2   2  -6 8298.87  253.18
  -2   2  -6 8270.52  171.60
  -2   2  -741311.93  985.93
  -2   2  -741942.25  969.37
  -2   2  -8 1459.57   72.62
  -2   2  -8 1377.58   65.68
  -2   2  -919988.96  448.50
  -2   2  -919324.83  367.93
   2  -2  10   61.51   31.76
  -2   2 -10   76.02   65.04
  -2   2 -10   50.45   31.40
   2  -2  11  149.96   21.36
  -2   2 -11  115.14   21.54
  -2   2 -11  199.12   42.75
   2  -2  12  379.45   46.70
   2  -2  12  249.33   49.70
  -2   2 -12  437.57   53.67
   2  -2  13  118.16   23.93
   2  -2  13  111.44   45.76
  -2   2 -13   50.10   85.81
   2  -2  14 3569.92  133.85
   2  -2  14 3306.47   84.41
  -2   2 -14 3645.63  140.97
   2  -2  15  172.71   60.55
   2  -2  15  157.99   32.07
  -2   2 -15  190.42   62.52
   2  -2  16 1553.85   66.77
   2  -2  16 1671.46  123.96
  -2   2 -16 1692.45  120.76
   2  -2  17  150.26   84.90
   2  -2  17   77.69   43.66
  -2   2 -17  131.38   87.61
   2  -2  18 3888.13  185.65
   2  -2  18 3491.76  114.31
  -2   2 -18 3681.56  192.58
   2  -2  19 3721.27  113.06
   2  -2  19 4323.03  184.74
  -2   2 -19 4412.61  198.93
   2  -2  20  621.79   47.35
   2  -2  20  751.89   90.46
  -2   2 -20  712.02   99.21
   2  -2  21  718.78   49.53
   2  -2  21  930.38   92.99
  -2   2 -21   39.13  168.38
   2  -2  22    2.08   59.88
   2  -2  22  107.77   50.63
  -2   2 -22   30.46   65.09
   2  -2  23   -0.95   61.50
   2  -2  23  123.30   51.42
  -2   2 -23   28.79  116.43
   2  -2  24  -13.02   39.42
   2  -2  24    2.42   47.03
  -2   2 -24   19.59   53.62
   2  -1 -24   23.12  150.81
  -2   1  24   37.70   77.15
  -2   1  24  143.48   62.17
   2  -1 -23   65.22   83.08
  -2   1  23  111.92   73.31
  -2   1  23   40.66  103.17
   2  -1 -22  289.37   92.28
  -2   1  22  198.33   86.01
  -2   1  22  230.06   68.75
   2  -1 -21 1012.90  123.98
  -2   1  21 1038.40  159.81
  -2   1  21  817.70  110.64
   2  -1 -20  141.80   76.93
  -2   1  20   90.41   59.19
  -2   1  20   88.81   68.15
   2  -1 -19  479.37  169.73
  -2   1  19  392.30   74.84
  -2   1  19  509.72  154.27
   2  -1 -18 3126.58  284.66
  -2   1  18 3016.31  164.29
  -2   1  18 3292.06  236.08
   2  -1 -17  941.60  109.54
  -2   1  17  963.01   89.90
  -2   1  17  971.90  101.65
   2  -1 -16  698.66   90.84
  -2   1  16  545.31   75.29
  -2   1  16  782.98  149.31
   2  -1 -15 1560.21  113.56
  -2   1  15 1509.91  109.21
   2  -1 -14 1012.39   94.30
  -2   1  14  990.74  155.61
   2  -1 -13 1083.43   92.49
  -2   1  13 1145.95   88.59
   2  -1 -12 2651.17  121.58
  -2   1  12 2685.15  118.02
   2  -1 -11 2913.01  121.85
  -2   1  11 3022.74  122.99
   2  -1 -10 1071.34   78.27
  -2   1  10 1088.40  130.53
   2  -1  -9 2279.50  166.55
  -2   1   9 2342.10  100.78
   2  -1  -8 1175.02   75.64
  -2   1   8 1181.91  129.01
   2  -1  -7 2618.74  101.30
  -2   1   7 2521.59   98.92
   2  -1  -610502.94  339.98
  -2   1   611000.16  258.51
   2  -1  -5 2949.44  104.62
  -2   1   5 3060.28  109.14
   2  -1  -4 5404.43  143.43
  -2   1   4 5488.01  146.14
   2  -1  -3 2531.72  103.07
  -2   1   3 1978.31  178.22
   2  -1  -244302.79 1191.19
  -2   1   243902.84 1044.38
   2  -1  -1 3038.59   99.87
  -2   1   1 3108.15  103.18
   2  -1   097960.39 2849.14
  -2   1   098122.24 2876.87
   2  -1   1 9053.64  188.10
  -2   1  -1 9098.06  190.50
   2  -1   2 2547.24   81.88
  -2   1  -2 2460.00  136.91
  -2   1  -312487.90  344.66
  -2   1  -4 2499.12   56.47
  -2   1  -5 1827.50   74.83
  -2   1  -5 1856.15   99.26
  -2   1  -6 1563.86   44.28
  -2   1  -6 1628.70   57.19
   2  -1   7  -27.78   32.71
  -2   1  -7   31.29   33.01
  -2   1  -7   61.12   26.75
   2  -1   8 6186.27  151.73
  -2   1  -8 6546.61  144.64
  -2   1  -8 6486.55  118.13
   2  -1   9 4021.55  106.08
   2  -1   9 3797.76   79.27
  -2   1  -9 4134.76  116.21
  -2   1  -9 4168.51  108.01
   2  -1  10  915.10   37.99
   2  -1  10  931.03   90.78
  -2   1 -10  897.52   59.43
  -2   1 -10  960.88   56.74
   2  -1  11 1380.94   63.22
   2  -1  11 1394.96   48.66
  -2   1 -11 1638.69  115.51
  -2   1 -11 1428.75   46.26
   2  -1  12  673.50   52.97
   2  -1  12  635.30   65.42
  -2   1 -12  788.42   59.11
   2  -1  13   -5.27   32.60
   2  -1  13   24.09   40.98
  -2   1 -13   37.28   35.75
   2  -1  14  460.32   58.43
   2  -1  14  536.25   71.11
  -2   1 -14  607.17  109.43
   2  -1  15 2306.25  104.83
   2  -1  15 2283.71  123.18
  -2   1 -15 2330.98  111.92
   2  -1  16 1942.61  110.87
   2  -1  16 1861.07  130.76
  -2   1 -16 1689.33  192.03
   2  -1  1720944.16  624.13
   2  -1  1720685.07  664.64
  -2   1 -1721765.36  653.14
   2  -1  18 1057.34  114.02
   2  -1  18 1107.96   98.08
  -2   1 -18 1021.94  115.19
   2  -1  19 2573.56  131.68
   2  -1  19 2300.10  144.73
  -2   1 -19 2477.78  140.47
   2  -1  20 1281.73   99.71
   2  -1  20 1227.89   68.96
  -2   1 -20 1184.99  110.96
   2  -1  21   38.72   32.40
   2  -1  21   -2.14   87.50
  -2   1 -21  -46.97   97.69
   2  -1  22  248.33   41.08
   2  -1  22    1.28  113.11
  -2   1 -22   18.64   71.45
   2  -1  23    0.13   51.37
   2  -1  23  -41.00   53.77
  -2   1 -23  -14.81   56.71
   2  -1  24    5.56   50.27
   2  -1  24    3.58   44.92
  -2   1 -24    6.93   95.30
   2   0 -24    6.86  134.83
  -2   0  24  -40.89   49.50
  -2   0  24   -8.64   68.22
   2   0 -23  447.22  100.71
  -2   0  23  420.19  113.89
  -2   0  23  -35.30   90.14
   2   0 -22 3019.00  202.43
  -2   0  22 3258.94  148.98
  -2   0  22 2995.08  296.19
   2   0 -21 1779.39  158.42
  -2   0  21 1757.91  147.87
  -2   0  21 1956.02  114.65
   2   0 -20  457.90  104.67
  -2   0  20  620.37   96.91
  -2   0  20  492.57  125.36
   2   0 -19  231.63  141.56
  -2   0  19  180.96   56.12
  -2   0  19  115.95  132.42
   2   0 -18 2156.29  243.07
  -2   0  18 1857.62  132.36
  -2   0  18 1922.44  168.62
   2   0 -17 4507.10  200.37
  -2   0  17 5042.59  170.25
  -2   0  17 4647.39  194.76
   2   0 -16  493.91   88.91
  -2   0  16  579.50  148.78
  -2   0  16  613.64   66.18
   2   0 -15   61.53   53.71
  -2   0  15   -8.76   53.16
   2   0 -14  148.26   62.15
  -2   0  14  152.49   61.06
   2   0 -13 1489.13  101.48
  -2   0  13 1437.45  165.08
   2   0 -12   -7.97   42.25
  -2   0  12   25.53   41.38
   2   0 -11 8218.72  227.28
  -2   0  11 8104.61  318.65
   2   0 -1015609.45  379.39
  -2   0  1015260.65  367.58
   2   0  -9 1008.96   82.10
  -2   0   9 1328.25   82.15
   2   0  -844028.82 1119.88
  -2   0   845461.09 1153.71
   2   0  -7 8012.57  207.45
  -2   0   7 8121.82  298.34
   2   0  -6 1885.30   88.63
  -2   0   6 1999.15   91.73
   2   0  -5 9432.47  307.43
  -2   0   5 9549.41  228.95
   2   0  -4  243.99   54.16
  -2   0   4  259.29   54.14
   2   0  -349479.06 1193.19
  -2   0   349110.66 1180.73
   2   0  -261165.43 1503.05
  -2   0   260335.38 1481.78
   2   0  -194369.98 2538.69
  -2   0   194122.42 2540.34
   2   0   0123145.8 3554.48
  -2   0   0122263.7 3537.26
   2   0   159059.37 1407.90
  -2   0  -154391.33 1240.17
   2   0   211107.24  192.68
  -2   0  -210831.46  182.19
  -2   0  -390316.45 2452.28
  -2   0  -387222.54 2313.88
  -2   0  -454373.76 1332.89
  -2   0  -453375.07 1353.82
   2   0   519335.72  374.27
  -2   0  -520034.37  438.39
  -2   0  -519732.57  419.78
   2   0   6 1792.05   54.66
   2   0   6 1807.81   58.92
  -2   0  -6 1768.80   48.61
  -2   0  -6 1861.85   51.72
   2   0   7 1916.96   60.45
   2   0   7 1741.87   56.82
  -2   0  -7 1914.65   87.25
  -2   0  -7 1876.44   54.75
   2   0   8  829.33   76.49
   2   0   8  887.08   71.75
  -2   0  -8  860.84   44.16
  -2   0  -8  859.75   40.91
   2   0   9 4587.35  103.13
   2   0   9 4616.98  109.53
  -2   0  -9 4555.01  102.59
  -2   0  -9 4694.93  111.70
   2   0  10  319.75   36.31
   2   0  10  272.40   57.50
  -2   0 -10  244.67   38.67
  -2   0 -10  238.83   58.33
   2   0  11  832.52   49.27
   2   0  11  792.88   74.76
  -2   0 -11  751.82   44.52
  -2   0 -11  847.99   52.04
   2   0  12   53.47   29.83
   2   0  12   14.38   26.70
  -2   0 -12   52.12   32.43
   2   0  13  259.77   42.04
   2   0  13  292.10   37.29
  -2   0 -13  265.95   46.20
   2   0  14 1448.16   75.02
   2   0  14 1461.61   65.50
  -2   0 -14 1492.54   84.40
   2   0  15    3.86   36.40
   2   0  15   45.18   30.61
  -2   0 -15    4.67   40.75
   2   0  16  321.13   55.75
   2   0  16  326.40   81.22
  -2   0 -16  338.46  107.51
   2   0  17 1470.20  122.32
   2   0  17 1525.90   91.73
  -2   0 -17 1505.18   98.03
   2   0  18    8.10   36.81
   2   0  18   15.91   52.19
  -2   0 -18  -27.75   43.09
   2   0  19   41.52   43.20
   2   0  19   -4.43   35.52
  -2   0 -19   54.00   48.47
   2   0  20  348.34  116.97
   2   0  20  411.55   53.45
  -2   0 -20  331.58   75.09
   2   0  21  315.26  105.88
   2   0  21  226.99   49.53
  -2   0 -21  213.68  120.69
   2   0  22   -2.21   59.85
   2   0  22  185.23   46.34
  -2   0 -22  265.53   67.47
   2   0  23   88.27   65.04
   2   0  23    1.72   48.74
  -2   0 -23    8.49   56.96
   2   0  24   -0.27   39.48
   2   0  24  -24.66   35.18
  -2   0 -24   14.87   94.54
   2   1 -24   83.43   82.88
  -2  -1  24  -18.07   76.47
  -2  -1  24   87.97   79.95
   2   1 -23  173.35  173.43
  -2  -1  23  111.05  163.39
  -2  -1  23  277.61   59.68
   2   1 -22 1056.05  134.24
  -2  -1  22 1083.29  131.04
  -2  -1  22 1044.68  139.72
   2   1 -21 1430.09  148.29
  -2  -1  21 1552.26   93.63
  -2  -1  21 1449.81  136.32
   2   1 -20  108.17   84.18
  -2  -1  20    4.81  135.25
  -2  -1  20  180.05   50.90
   2   1 -19  496.23  101.81
  -2  -1  19  613.60   65.14
  -2  -1  19  564.78   96.23
   2   1 -18   26.13  120.88
  -2  -1  18   83.81   62.75
  -2  -1  18   48.19   41.13
   2   1 -17  134.08   70.46
  -2  -1  17  126.40   66.98
  -2  -1  17  145.40   77.97
   2   1 -16  243.51   74.32
  -2  -1  16  250.46  124.46
  -2  -1  16  236.07   48.63
   2   1 -15  311.20   69.02
  -2  -1  15  281.47   65.41
  -2  -1  15   75.38   44.69
   2   1 -14  462.88   77.21
  -2  -1  14  401.14   75.07
   2   1 -13  641.98  141.71
  -2  -1  13  680.43   80.62
   2   1 -1211611.19  323.46
  -2  -1  1211589.57  311.37
   2   1 -1112879.34  337.74
  -2  -1  1112759.08  334.25
   2   1 -10 3098.30  122.76
  -2  -1  10 2976.75  120.05
   2   1  -9 2801.12  114.94
  -2  -1   9 2822.77  182.17
   2   1  -832127.84  776.89
  -2  -1   831912.56  768.68
   2   1  -741369.62 1002.85
  -2  -1   740455.03  985.82
   2   1  -6 1872.84   86.47
  -2  -1   6 1894.11  148.02
   2   1  -579787.53 2167.98
  -2  -1   579437.59 2163.96
   2   1  -4 8661.86  220.53
  -2  -1   4 8845.29  331.44
   2   1  -3204250.3 7286.83
  -2  -1   3207423.0 7390.40
   2   1  -2 1363.24   61.08
  -2  -1   2 1371.35   61.66
   2   1  -1202339.1 6943.66
  -2  -1   1198365.8 6806.69
   2   1   030488.25  576.14
  -2  -1   031916.47  654.28
   2   1   1 5094.17   71.29
  -2  -1  -1 5712.27   99.19
   2   1   2456016.421502.02
  -2  -1  -2548698.326384.65
  -2  -1  -2515415.924340.71
   2   1   3 2747.73  147.31
  -2  -1  -3 2776.33  148.36
  -2  -1  -3 2924.03   46.17
   2   1   463603.50 1566.37
   2   1   463792.91 1535.71
  -2  -1  -463091.83 1455.68
  -2  -1  -461204.44 1518.40
   2   1   5 3584.14  115.66
   2   1   5 3603.27  102.51
  -2  -1  -5 3860.00  109.57
  -2  -1  -5 3724.86   76.24
   2   1   6  117.15   25.04
   2   1   6   85.87   32.68
  -2  -1  -6  100.42   34.40
  -2  -1  -6   96.09   20.09
   2   1   717041.80  385.90
   2   1   716135.18  405.53
  -2  -1  -717352.02  434.00
  -2  -1  -716528.00  355.48
   2   1   8 8608.88  182.51
   2   1   8 8662.77  173.39
  -2  -1  -8 8607.97  167.62
  -2  -1  -8 8446.85  181.49
   2   1   9  197.84   35.97
   2   1   9  210.25   31.60
  -2  -1  -9  206.02   54.40
  -2  -1  -9  199.98   37.02
   2   1  10   42.62   27.52
   2   1  10   56.75   55.90
  -2  -1 -10   62.21   29.57
  -2  -1 -10   47.21   32.18
   2   1  11  197.06   64.86
   2   1  11  173.72   33.19
  -2  -1 -11  215.79   36.42
   2   1  12   30.27   29.10
   2   1  12    5.18   26.51
  -2  -1 -12   11.64   50.87
   2   1  13  189.84   37.80
   2   1  13  190.07   40.40
  -2  -1 -13  195.54   41.66
   2   1  14  433.03   84.21
   2   1  14  537.06   89.11
  -2  -1 -14  472.61   54.33
   2   1  15   64.34   61.09
   2   1  15   38.31   62.71
  -2  -1 -15   12.16   68.22
   2   1  16  -19.17   60.37
   2   1  16   14.52   34.79
  -2  -1 -16   34.58   38.43
   2   1  17 1095.03  113.87
   2   1  17  924.77   71.38
  -2  -1 -17  894.76   77.73
   2   1  18  322.27   54.65
   2   1  18  281.12   51.96
  -2  -1 -18  325.68  104.88
   2   1  19 1058.73   79.07
   2   1  19 1014.32   75.46
  -2  -1 -19 1088.84   89.08
   2   1  20  157.80   51.28
   2   1  20  202.06   94.37
  -2  -1 -20  224.88   61.15
   2   1  21   24.57   69.20
   2   1  21  -11.73   64.62
  -2  -1 -21   12.76   78.97
   2   1  22    1.18   47.40
   2   1  22  113.23   75.09
  -2  -1 -22   60.23   53.62
   2   1  23   -5.43   53.66
   2   1  23  235.52   49.82
  -2  -1 -23   20.92   62.38
   2   1  24   -8.10   40.07
   2   1  24   -1.25   53.68
  -2  -1 -24  -24.43   51.66
   2   2 -23   29.70   69.95
  -2  -2  23   13.36   60.08
  -2  -2  23  -25.01   67.16
   2   2 -22  -10.20  141.65
  -2  -2  22   71.06   40.10
  -2  -2  22   16.93   75.79
   2   2 -21   88.26   79.65
  -2  -2  21   17.28   77.11
  -2  -2  21  122.52   70.48
   2   2 -20   47.39   63.45
  -2  -2  20   34.09  105.36
  -2  -2  20  -24.59   32.42
   2   2 -19  100.27   75.23
  -2  -2  19  -11.52   71.72
  -2  -2  19  177.14   68.78
   2   2 -18  267.84  144.49
  -2  -2  18  208.97   79.38
  -2  -2  18  245.23   45.60
   2   2 -17   11.90   52.60
  -2  -2  17   19.19   50.14
  -2  -2  17  -13.74   28.17
   2   2 -16    5.42   58.74
  -2  -2  16   55.77   33.13
  -2  -2  16    0.75   99.95
   2   2 -15  170.21   70.36
  -2  -2  15  183.25   67.94
  -2  -2  15  207.90   40.53
   2   2 -14  612.36  145.90
  -2  -2  14  611.33   83.03
   2   2 -13 2379.12  129.03
  -2  -2  13 2445.10  127.65
   2   2 -1231940.57  850.58
  -2  -2  1230769.98  817.83
   2   2 -1145363.32 1221.20
  -2  -2  1145881.86 1394.52
   2   2 -10 5661.96  259.09
  -2  -2  10 5452.44  167.84
   2   2  -9 1219.67   81.94
  -2  -2   9 1282.90   81.22
   2   2  -8 1736.51   91.39
  -2  -2   8 1693.48   88.10
   2   2  -711608.76  275.72
  -2  -2   711414.29  265.70
   2   2  -6 9123.40  300.55
  -2  -2   6 9385.10  222.57
   2   2  -5 4212.74  125.25
  -2  -2   5 4279.63  128.96
   2   2  -4 2748.54  104.66
  -2  -2   4 2846.98  107.35
   2   2  -3123802.0 3991.81
  -2  -2   3122933.4 3736.47
   2   2  -2628031.233632.70
  -2  -2   2628682.733399.34
   2   2  -1125401.7 3713.04
  -2  -2   1127285.1 3882.97
   2   2   0 8068.17  160.69
  -2  -2   0 7970.62  158.63
   2   2   1 2433.79   48.90
  -2  -2  -1 2438.24   48.30
  -2  -2  -1 2554.89   74.41
   2   2   2721696.740043.08
  -2  -2  -2713507.139653.21
   2   2   3404158.616802.12
   2   2   3278158.511275.43
  -2  -2  -3396382.316484.99
  -2  -2  -3329019.913264.71
   2   2   4118629.1 3405.81
   2   2   4117818.4 3519.71
  -2  -2  -4118542.6 3364.37
  -2  -2  -4117447.4 3515.48
   2   2   5  197.38   33.16
   2   2   5   43.74   35.69
  -2  -2  -5   25.72   39.12
  -2  -2  -5   16.12   28.12
   2   2   6   56.61   37.55
   2   2   6  287.76   41.98
  -2  -2  -6   82.97   40.75
  -2  -2  -6  117.03   35.00
   2   2   7 2484.88   87.56
   2   2   7 2708.37   66.17
  -2  -2  -7 2471.01   89.61
  -2  -2  -7 2618.33   94.54
   2   2   8 1791.40   90.05
   2   2   8 1743.86   74.44
  -2  -2  -8 1785.72   89.39
  -2  -2  -8 1836.17   76.40
   2   2   9  176.85   41.00
   2   2   9  203.33   52.16
  -2  -2  -9  152.63   53.66
  -2  -2  -9  142.46   42.54
   2   2  10 3805.43   96.88
   2   2  10 3754.77  112.68
  -2  -2 -10 3786.79  145.68
  -2  -2 -10 3881.29  117.25
   2   2  11 4602.55  113.81
   2   2  11 4698.54  201.44
  -2  -2 -11 4801.14  174.18
   2   2  12 1588.37  106.61
   2   2  12 1581.97  132.80
  -2  -2 -12 1586.68  114.54
   2   2  13  501.05   44.89
   2   2  13  571.44   97.32
  -2  -2 -13  473.26   50.75
   2   2  14  142.15   37.38
   2   2  14  129.23   45.89
  -2  -2 -14  168.57   42.66
   2   2  15  141.13   47.11
   2   2  15  149.60   39.02
  -2  -2 -15  108.90   43.83
   2   2  16 1419.08   84.79
   2   2  16 1335.09  120.52
  -2  -2 -16 1334.79  134.03
   2   2  17 1869.85   86.98
   2   2  17 1900.77   97.96
  -2  -2 -17 1849.01  156.90
   2   2  18   82.40   40.99
   2   2  18   51.79   47.07
  -2  -2 -18   79.65   47.02
   2   2  19  548.98   58.21
   2   2  19  369.44  113.76
  -2  -2 -19  376.92   65.99
   2   2  20  428.02  103.89
   2   2  20  289.87   95.62
  -2  -2 -20  257.91   63.51
   2   2  21   98.60   49.45
   2   2  21  141.75   52.60
  -2  -2 -21   76.02   96.34
   2   2  22   -3.11   45.88
   2   2  22   66.17   48.87
  -2  -2 -22   98.76   52.56
   2   2  23    2.34   41.75
   2   2  23  -60.15   44.86
  -2  -2 -23   14.30   49.52
   2   2  24  109.46   84.68
   2   2  24   -2.52   44.60
  -2  -2 -24   51.94   55.61
   2   3 -23  417.20  112.37
  -2  -3  23  329.58   48.17
  -2  -3  23   38.91  106.82
   2   3 -22  540.92  109.81
  -2  -3  22   33.24  106.03
  -2  -3  22  446.31   81.58
   2   3 -21   96.09  154.31
  -2  -3  21   20.56  149.85
  -2  -3  21  163.95   39.14
   2   3 -20   69.11   74.77
  -2  -3  20   58.06   32.79
  -2  -3  20    1.05   71.74
   2   3 -19  -28.24   66.54
  -2  -3  19   -5.09   64.27
  -2  -3  19   41.65   29.94
   2   3 -18   87.25  104.59
  -2  -3  18    6.07   27.14
  -2  -3  18    1.04   57.65
   2   3 -17 1129.51  114.74
  -2  -3  17 1040.71   92.40
  -2  -3  17 1135.94  112.00
   2   3 -16  587.81   92.71
  -2  -3  16  590.49   45.81
  -2  -3  16  485.81  157.13
   2   3 -15 2325.01  144.30
  -2  -3  15 2522.98   82.95
  -2  -3  15 2433.32  240.96
   2   3 -14 3498.01  268.94
  -2  -3  14 3443.45  152.98
  -2  -3  14 3397.57   94.49
   2   3 -13   10.54   52.74
  -2  -3  13   43.28   50.78
   2   3 -1210553.37  315.32
  -2  -3  1210247.15  292.89
   2   3 -11  567.32  120.73
  -2  -3  11  476.26   66.27
   2   3 -10   33.31   44.72
  -2  -3  10   64.46   43.09
   2   3  -9  823.64   69.82
  -2  -3   9  806.83   68.38
   2   3  -8 4904.30  148.18
  -2  -3   8 5115.63  148.61
   2   3  -714296.29  327.83
  -2  -3   714123.24  322.93
   2   3  -6  413.56   93.12
  -2  -3   6  404.41   53.15
   2   3  -5 2492.63   92.97
  -2  -3   5 2427.98   94.47
   2   3  -4 2159.25   87.33
  -2  -3   4 2321.13  155.46
   2   3  -353765.36 1507.21
  -2  -3   355769.00 1381.61
   2   3  -2640733.335067.55
  -2  -3   2649887.335172.57
   2   3  -1752068.543273.76
  -2  -3   1723992.640798.17
  -2  -3   1721344.340960.49
   2   3   0 3400.18   76.04
  -2  -3   0 3413.89   84.68
   2   3   1107743.1 3196.41
  -2  -3  -1106618.5 3020.54
   2   3   212112.43  229.09
   2   3   211905.71  246.08
  -2  -3  -211822.34  246.26
   2   3   341323.22  948.90
   2   3   342607.74  924.38
  -2  -3  -343179.92 1126.70
  -2  -3  -341910.94  903.36
   2   3   4 5188.46  119.00
   2   3   4 4997.21  133.32
  -2  -3  -4 5004.63  119.18
  -2  -3  -4 4748.58  222.77
   2   3   5 5888.75  136.86
   2   3   5 5463.35  140.85
  -2  -3  -5 5958.56  134.03
  -2  -3  -5 5780.81  225.89
   2   3   6 7860.45  140.53
   2   3   6 7560.15  178.51
  -2  -3  -6 7640.87  182.87
  -2  -3  -6 7827.31  180.79
   2   3   710478.68  242.72
   2   3   710207.64  319.75
  -2  -3  -710149.97  241.61
  -2  -3  -710316.23  237.81
   2   3   832205.42  754.92
   2   3   833154.18  722.47
  -2  -3  -832479.80  694.46
  -2  -3  -833208.53  897.99
   2   3   9  248.50   49.67
   2   3   9  261.31   32.68
  -2  -3  -9  238.38   59.32
  -2  -3  -9  243.65   51.86
   2   3  10  735.16   64.18
   2   3  10  892.26   73.13
  -2  -3 -10  836.64   47.11
   2   3  11 9712.06  238.48
   2   3  11 9449.53  201.13
  -2  -3 -11 9644.46  208.74
   2   3  12 9510.49  243.37
   2   3  12 9437.15  270.89
  -2  -3 -12 9452.60  215.64
   2   3  13 7414.10  178.91
   2   3  13 7505.66  208.50
  -2  -3 -13 7329.73  182.93
   2   3  14 2063.99  126.25
   2   3  14 2041.55  100.54
  -2  -3 -14 2050.51   85.23
   2   3  15  965.86   59.73
   2   3  15 1032.22   79.94
  -2  -3 -15 1020.32   67.69
   2   3  16   -2.66   71.64
   2   3  16   -4.20   30.45
  -2  -3 -16   25.71   34.50
   2   3  17  181.53  101.90
   2   3  17  256.75   76.55
  -2  -3 -17  190.61   50.68
   2   3  18   84.24   39.46
   2   3  18   59.86   51.64
  -2  -3 -18   64.72   45.47
   2   3  19   26.19   36.35
   2   3  19   25.23   46.40
  -2  -3 -19   -8.24   41.03
   2   3  20  572.34  107.00
   2   3  20  576.57   79.98
  -2  -3 -20  462.07  123.06
   2   3  21  220.71   54.33
   2   3  21  251.08  119.30
  -2  -3 -21  218.48  108.87
   2   3  22  -35.85   83.95
   2   3  22  -38.53   40.58
  -2  -3 -22   87.90   47.25
   2   3  23    1.87   57.99
   2   3  23  -17.64   45.05
  -2  -3 -23   11.61   44.85
   2   3  24   55.81   50.09
   2   3  24    1.16   22.66
  -2  -3 -24   17.48   50.25
   2   4 -23  414.09  202.90
  -2  -4  23   39.19  114.12
  -2  -4  23  340.32   40.93
   2   4 -22  415.98  107.34
  -2  -4  22  245.26   65.93
  -2  -4  22    8.38  184.94
   2   4 -21  -16.07   74.28
  -2  -4  21   -1.20   73.20
  -2  -4  21   41.77   26.59
   2   4 -20   24.54  120.08
  -2  -4  20  -24.05   66.64
  -2  -4  20   31.92   43.02
   2   4 -19  -64.84   64.46
  -2  -4  19   29.15   24.06
  -2  -4  19  -14.54   62.87
   2   4 -18  228.33   82.72
  -2  -4  18    7.77   81.65
  -2  -4  18  278.65   54.67
   2   4 -17  773.02  192.58
  -2  -4  17  903.18  106.27
  -2  -4  17  822.62   45.00
   2   4 -16  966.84  111.94
  -2  -4  16  868.48  180.06
  -2  -4  16  936.55   74.56
   2   4 -15  139.19   68.50
  -2  -4  15   62.75   26.38
  -2  -4  15  -92.74  118.72
   2   4 -14 7034.16  431.84
  -2  -4  14 7027.09  217.83
  -2  -4  14 7209.90  442.33
   2   4 -13 6651.43  250.93
  -2  -4  13 6431.77  370.29
  -2  -4  13 6236.30  136.15
   2   4 -12  698.13   81.92
  -2  -4  12  558.43   81.59
   2   4 -11 1586.37   98.03
  -2  -4  11 1601.43   98.36
   2   4 -10   86.73   47.69
  -2  -4  10   64.15   84.66
   2   4  -9 4285.45  221.91
  -2  -4   9 4512.74  218.97
   2   4  -8 1175.40   77.72
  -2  -4   8 1214.57  126.78
   2   4  -7 4436.62  134.84
  -2  -4   7 4729.68  137.87
   2   4  -6 1244.51   73.69
  -2  -4   6 1536.18   75.63
   2   4  -5 3283.30  105.77
  -2  -4   5 3320.18  169.68
   2   4  -4  927.42  104.66
  -2  -4   4 1065.38   63.29
   2   4  -321034.87  560.35
  -2  -4   321610.38  388.91
  -2  -4   322362.40  485.07
   2   4  -2164692.5 5688.16
  -2  -4   2159380.9 5148.93
   2   4  -122762.72  471.37
  -2  -4   123910.29  519.02
   2   4   0 1454.85   86.65
  -2  -4   0 1593.27   54.11
   2   4   1   95.20   30.72
   2   4   1  121.17   52.11
  -2  -4  -1  122.06   32.32
   2   4   215534.23  393.63
   2   4   216332.09  354.28
  -2  -4  -215491.93  317.79
  -2  -4  -215798.26  284.98
   2   4   3 6656.25  162.88
   2   4   3 5967.10  138.17
  -2  -4  -3 6327.97  149.62
  -2  -4  -3 6407.00  152.59
   2   4   4 3328.36   72.11
   2   4   4 3265.45  102.66
  -2  -4  -4 3429.49  102.60
  -2  -4  -4 3375.66  106.16
   2   4   5  512.89   54.72
   2   4   5  472.62   92.47
  -2  -4  -5  472.70   96.87
  -2  -4  -5  475.07   31.39
   2   4   6  674.08   56.53
   2   4   6  488.85   55.86
  -2  -4  -6  592.94   57.78
  -2  -4  -6  568.94   59.02
   2   4   7  254.64   51.46
   2   4   7  276.56   30.95
  -2  -4  -7  316.33   31.72
  -2  -4  -7  289.61   53.01
   2   4   879228.85 2296.94
   2   4   877577.81 2187.55
  -2  -4  -877396.58 2079.79
  -2  -4  -877825.09 2188.88
   2   4   931979.90  767.38
   2   4   933022.99  825.97
  -2  -4  -932581.65  730.92
   2   4  10    2.59   37.13
   2   4  10  -37.36   39.90
  -2  -4 -10  -33.21   45.20
   2   4  1110389.94  260.57
   2   4  1110561.95  225.31
  -2  -4 -1110468.83  228.85
   2   4  12 1250.37   56.31
   2   4  12 1169.64   82.76
  -2  -4 -12 1244.58   61.84
   2   4  13 5273.27  185.89
   2   4  13 5437.08  170.82
  -2  -4 -13 5355.14  139.70
   2   4  14 1654.48   69.43
   2   4  14 1618.93  100.47
  -2  -4 -14 1602.22  124.83
   2   4  15   63.32   49.52
   2   4  15   49.80   56.80
  -2  -4 -15   30.18   66.41
   2   4  16  280.45   68.03
   2   4  16  347.98   46.22
  -2  -4 -16  348.07   91.53
   2   4  17   66.89   56.78
   2   4  17   -2.70   48.19
  -2  -4 -17  -38.81   65.68
   2   4  18  243.12  117.98
   2   4  18  181.38   46.27
  -2  -4 -18  224.62   93.28
   2   4  19  987.16   73.97
   2   4  19 1145.84  100.48
  -2  -4 -19 1131.22  141.99
   2   4  20  -32.25   68.02
   2   4  20   72.65   56.21
  -2  -4 -20   38.44   80.83
   2   4  21 1281.87   85.15
   2   4  21 1305.25  114.68
  -2  -4 -21 1146.37   96.43
   2   4  22 4965.64  254.44
   2   4  22 5309.08  226.92
  -2  -4 -22 4639.87  197.68
   2   4  23 1106.49  180.23
  -2  -4 -23  805.68   94.44
   2   4  24  198.42   59.58
   2   4  24    0.43   23.50
  -2  -4 -24   32.54   52.70
   2   5 -22  334.70  168.08
  -2  -5  22   32.49   96.25
   2   5 -21  367.54  101.72
  -2  -5  21  219.50   48.05
  -2  -5  21   26.48   99.58
   2   5 -20   13.86   70.29
  -2  -5  20   26.33   69.48
  -2  -5  20   10.20   19.65
   2   5 -19  224.91  150.54
  -2  -5  19    7.18   80.81
  -2  -5  19  118.17   42.14
   2   5 -18  126.00   74.25
  -2  -5  18   18.45   70.53
  -2  -5  18   54.49   21.52
   2   5 -17   48.83   67.36
  -2  -5  17   39.04   33.44
  -2  -5  17  -16.71   65.03
   2   5 -16   83.01   72.17
  -2  -5  16   96.82   21.82
  -2  -5  16  129.47  124.68
   2   5 -15   -1.93   55.65
  -2  -5  15   -5.82   96.48
  -2  -5  15  -13.47   29.12
   2   5 -14 8222.35  473.45
  -2  -5  14 8729.46  221.02
  -2  -5  14 8098.44  463.74
   2   5 -1351625.80 1581.53
  -2  -5  1350075.78 1819.51
  -2  -5  1346015.60 1157.23
   2   5 -1212267.07  389.84
  -2  -5  1212392.39  273.97
  -2  -5  1211964.17  518.87
   2   5 -11 1038.04   91.43
  -2  -5  11 1006.06   88.06
   2   5 -10  913.67   82.25
  -2  -5  10  968.56   80.98
   2   5  -9  236.68   54.27
  -2  -5   9  191.93   52.97
   2   5  -8 1824.89   91.46
  -2  -5   8 1905.86   90.10
   2   5  -7  415.48   55.24
  -2  -5   7  421.80   95.37
   2   5  -6    8.29   67.99
  -2  -5   6   48.50   39.41
   2   5  -526138.47  602.92
  -2  -5   526086.71  496.14
  -2  -5   526925.12  617.98
   2   5  -458347.11 1517.07
  -2  -5   455410.68 1315.37
   2   5  -3 9631.69  217.41
  -2  -5   310273.95  189.39
   2   5  -2 8777.31  196.60
  -2  -5   2 9196.19  191.21
   2   5  -119832.21  367.71
   2   5  -119965.65  417.34
  -2  -5   119933.42  422.46
   2   5   029351.44  726.40
   2   5   027852.07  565.11
  -2  -5   028057.25  643.88
   2   5   1 7481.85  212.86
   2   5   1 6588.48  137.73
  -2  -5  -1 6318.99  136.20
   2   5   234653.64  764.37
   2   5   237101.19  882.30
  -2  -5  -235496.60  790.84
  -2  -5  -235991.60  769.67
   2   5   3  183.64   29.87
   2   5   3  189.75   37.46
  -2  -5  -3  195.78   69.95
  -2  -5  -3  210.16   29.28
   2   5   4 2020.43   58.30
   2   5   4 1932.25  124.86
  -2  -5  -4 1889.64   76.19
  -2  -5  -4 1838.70   56.22
   2   5   5  149.53   41.43
   2   5   5  157.55   26.91
  -2  -5  -5  169.27   48.31
  -2  -5  -5  174.54   76.17
   2   5   6  236.09   29.79
   2   5   6  226.60   48.55
  -2  -5  -6  247.85   31.32
  -2  -5  -6  266.73   49.92
   2   5   7  892.99   43.23
   2   5   7  903.42   68.41
  -2  -5  -7  889.09   76.77
  -2  -5  -7  846.69   70.64
   2   5   817321.94  345.79
   2   5   817853.36  516.49
  -2  -5  -817868.61  430.95
   2   5   9 3764.30  128.35
   2   5   9 3683.85  195.26
  -2  -5  -9 3737.82  142.01
   2   5  10 4793.03  154.07
   2   5  10 4833.95  230.61
  -2  -5 -10 4942.95  118.38
   2   5  11    5.51   73.77
   2   5  11   23.50   44.38
  -2  -5 -11   25.91   49.41
   2   5  12   84.40   81.61
   2   5  12   36.40   28.07
  -2  -5 -12   55.94   31.70
   2   5  13  251.16   39.01
   2   5  13  274.85  108.35
  -2  -5 -13  249.75   75.60
   2   5  14  286.26   66.08
   2   5  14  296.40   69.47
  -2  -5 -14  303.53   47.76
   2   5  15  317.52   71.56
   2   5  15  355.07   44.14
  -2  -5 -15  384.98   52.37
   2   5  16 1532.27  112.58
   2   5  16 1503.42   74.24
  -2  -5 -16 1645.01   84.78
   2   5  17   12.88   56.14
   2   5  17   49.18   61.76
  -2  -5 -17   38.03   41.63
   2   5  18   49.36   64.08
   2   5  18   78.02   41.04
  -2  -5 -18   87.69   48.19
   2   5  19 1126.23  186.76
   2   5  19 1214.30   74.23
  -2  -5 -19 1060.43   86.36
   2   5  20  -18.84  105.87
  -2  -5 -20  -38.85   46.29
   2   5  21   65.82   54.55
   2   5  21   11.80   35.59
  -2  -5 -21  -40.53   41.78
   2   5  22  -25.83   65.20
   2   5  22   24.07   66.47
  -2  -5 -22   99.22   51.42
   2   5  23  -11.15   20.97
   2   5  23    9.88   58.34
  -2  -5 -23   -5.51   47.14
   2   5  24   72.57  113.50
   2   5  24   46.45   38.82
  -2  -5 -24    2.45   52.80
   2   6 -22  349.39  111.86
  -2  -6  22   60.56  111.46
   2   6 -21 2853.51  380.35
  -2  -6  21 3109.95  232.75
   2   6 -20 1853.81  187.48
  -2  -6  20 1792.31  184.52
   2   6 -19  185.88   89.12
  -2  -6  19   86.62   28.23
  -2  -6  19   38.37   90.66
   2   6 -18  116.28  135.85
  -2  -6  18   69.68   15.40
  -2  -6  18  -14.13   79.61
   2   6 -17  374.93   89.76
  -2  -6  17  267.11   31.50
  -2  -6  17   -7.56   90.96
   2   6 -16  365.84   88.23
  -2  -6  16   16.96  158.45
   2   6 -15 1216.93  116.39
  -2  -6  15 1045.79   44.24
  -2  -6  15 1247.63  201.19
   2   6 -14   76.16   68.41
  -2  -6  14   92.65   12.90
  -2  -6  14   87.08  119.77
   2   6 -13 -182.14  113.54
  -2  -6  13   38.50   59.20
  -2  -6  13   39.21   18.48
   2   6 -12 2529.90  147.16
  -2  -6  12 2257.10   53.57
  -2  -6  12 2653.68  140.34
   2   6 -11 2472.27  210.77
  -2  -6  11 2508.52  130.63
  -2  -6  11 2162.57   34.07
   2   6 -10  462.05   67.71
  -2  -6  10  334.12   17.37
  -2  -6  10  402.17   68.91
   2   6  -9 1720.49  165.02
  -2  -6   9 1707.64  100.23
   2   6  -8   -1.28   40.19
  -2  -6   8  -16.32   40.26
  -2  -6   8   18.94    6.73
   2   6  -7 1433.59   80.83
  -2  -6   7 1374.65   22.58
   2   6  -6  525.95   95.84
  -2  -6   6  477.72   15.17
   2   6  -5 2031.41   87.39
  -2  -6   5 1978.65   38.20
   2   6  -422881.79  551.42
  -2  -6   423381.84  445.15
   2   6  -3139359.9 4652.83
  -2  -6   3132277.1 4074.40
   2   6  -266212.02 1639.14
   2   6  -266774.84 1810.44
  -2  -6   266033.59 1695.13
   2   6  -1   37.95   38.01
   2   6  -1   70.10   19.93
  -2  -6   1   92.99   19.69
   2   6   0   67.97   41.22
   2   6   0   80.06   58.87
  -2  -6   0   87.37   39.60
   2   6   1 1745.24   56.58
   2   6   1 1783.85   65.53
  -2  -6  -1 1770.20   56.59
   2   6   2 3521.34   90.92
   2   6   2 3575.95  139.94
  -2  -6  -2 3555.20  138.06
  -2  -6  -2 3635.36   92.54
   2   6   3 2361.29  110.64
   2   6   3 2340.11   78.24
  -2  -6  -3 2377.50   70.96
  -2  -6  -3 2276.68   77.60
   2   6   4  191.30   40.44
   2   6   4  206.27   32.35
  -2  -6  -4  219.61   41.54
  -2  -6  -4  171.08   57.01
   2   6   5  180.20   40.65
   2   6   5  153.18   28.91
  -2  -6  -5  149.78   42.22
  -2  -6  -5  126.35   30.52
   2   6   6 1284.68   50.13
   2   6   6 1231.97   72.22
  -2  -6  -6 1338.73   88.34
   2   6   7  149.04   29.51
   2   6   7  199.70   81.42
  -2  -6  -7  165.37   56.07
   2   6   8  987.52  122.86
   2   6   8  988.65   78.02
  -2  -6  -8 1067.61   86.66
   2   6   9   -8.24   69.60
   2   6   9   23.83   23.52
  -2  -6  -9  -16.33   47.04
   2   6  10 1459.45  155.91
   2   6  10 1562.37   59.70
  -2  -6 -10 1520.84   65.86
   2   6  11 2767.44  203.84
   2   6  11 2792.10   84.52
  -2  -6 -11 2819.87   92.01
   2   6  12 3373.62  232.62
   2   6  12 3351.79   97.21
  -2  -6 -12 3448.54  107.50
   2   6  13  899.39   91.88
   2   6  13  940.37  154.40
  -2  -6 -13  857.17   61.93
   2   6  14    4.26   50.97
   2   6  14  -30.26   89.19
  -2  -6 -14   27.82   34.37
   2   6  15  -54.74   32.08
   2   6  15  -22.38   53.39
  -2  -6 -15   23.96   37.17
   2   6  16  279.11   43.91
   2   6  16  203.01   74.89
   2   6  17   -9.91   32.93
   2   6  17   -0.91   55.81
  -2  -6 -17  -32.36   67.03
   2   6  18  672.91   64.29
   2   6  18  925.45  104.33
  -2  -6 -18  878.24   75.56
   2   6  19  -35.12   61.01
   2   6  19  -24.72   62.98
  -2  -6 -19   75.86   42.59
   2   6  20   88.83  124.88
   2   6  20   99.32   43.39
  -2  -6 -20   78.69   50.25
   2   6  21  295.09   91.08
   2   6  21  447.85   88.44
  -2  -6 -21  200.87   63.30
   2   6  22  -28.69   21.57
   2   6  22  158.37   60.60
  -2  -6 -22   68.80   43.28
   2   6  23    2.79   22.17
   2   6  23  309.53   69.54
  -2  -6 -23   29.13   51.09
   2   6  24   22.34   23.53
   2   6  24  261.37   75.02
  -2  -6 -24  149.28   94.55
   2   7 -21 7150.38  395.92
   2   7 -20 4069.04  269.63
   2   7 -19 1660.14  142.71
  -2  -7  19   16.13  129.88
   2   7 -18 2309.96  149.80
  -2  -7  18   30.36  134.12
   2   7 -17  -96.33  125.41
  -2  -7  17  -12.63   71.88
   2   7 -16   86.01   71.48
  -2  -7  16   12.67   72.51
   2   7 -15  -30.28   59.85
  -2  -7  15   14.07   60.00
   2   7 -14  -51.55   64.56
  -2  -7  14  -22.90   64.11
   2   7 -13  520.87   92.17
   2   7 -12  907.69  104.29
   2   7 -11 2567.71  136.36
   2   7 -10 2012.55  119.54
   2   7  -9  425.33   70.31
   2   7  -8  676.47   74.09
   2   7  -7 1783.33  155.47
   2   7  -6 4262.14  144.24
   2   7  -5 4616.97  141.32
   2   7  -4  699.46  103.00
  -2  -7   4  666.22   16.99
   2   7  -3   14.56   65.92
  -2  -7   3   53.99   11.91
   2   7  -2 7111.54  177.93
   2   7  -2 7103.56  123.31
   2   7  -2 6955.71  180.13
  -2  -7   2 7296.43  123.28
   2   7  -1 1225.36   69.53
   2   7  -1 1282.65   40.00
  -2  -7   1 1326.09   39.85
   2   7   0  133.78   24.85
   2   7   0  106.53   65.69
  -2  -7   0   92.12   24.30
   2   7   1 2211.35   65.04
   2   7   1 2203.51   75.72
  -2  -7  -1 1703.44   59.14
   2   7   2  923.38   52.64
   2   7   2  902.86   51.98
   2   7   3 6691.08  155.95
   2   7   3 6853.66  210.75
  -2  -7  -3 7135.01  221.43
   2   7   4  377.75   39.53
   2   7   4  361.66   46.01
  -2  -7  -4  355.78   41.28
   2   7   5 4852.15  163.01
   2   7   5 4657.06  132.76
  -2  -7  -5 5022.20  119.71
   2   7   619888.65  464.06
   2   7   620573.43  427.61
  -2  -7  -620845.88  440.25
   2   7   733580.97  956.83
   2   7   733282.19  750.30
  -2  -7  -733639.48  770.30
   2   7   8 2279.04  120.03
   2   7   8 2351.74  175.92
  -2  -7  -8 2400.93   82.07
   2   7   9  301.61   66.10
   2   7   9  340.10  105.00
  -2  -7  -9  263.56   42.01
   2   7  10  888.85   53.23
   2   7  10 1042.24   85.34
  -2  -7 -10 1021.10  102.38
   2   7  11 4019.04  112.28
   2   7  11 4073.39  253.41
  -2  -7 -11 4160.60  123.87
   2   7  12  683.39  154.30
   2   7  12  711.45   54.06
  -2  -7 -12  718.07   61.21
   2   7  13  345.66   79.75
   2   7  13  403.70  140.06
  -2  -7 -13  398.56   53.56
   2   7  14 1757.58  209.25
   2   7  14 1610.32   76.48
  -2  -7 -14 1739.77  140.78
   2   7  15  687.28  101.63
   2   7  15  719.66   62.99
  -2  -7 -15  755.31   70.50
   2   7  16 1143.86  120.37
   2   7  16 1040.26   71.17
  -2  -7 -16 1013.41   84.42
   2   7  17  890.44  114.46
   2   7  17  769.95  116.16
  -2  -7 -17  729.77   80.64
   2   7  18 1012.90   71.05
   2   7  18 1144.37  121.65
  -2  -7 -18 1066.95  141.22
   2   7  19   57.82   61.64
   2   7  19  -19.41   58.93
  -2  -7 -19  -18.51   72.38
   2   7  20  880.83  209.76
   2   7  20  947.61   70.14
  -2  -7 -20  928.08  140.12
   2   7  21   14.27   46.04
   2   7  21  137.81  118.82
  -2  -7 -21   -6.53   80.58
   2   7  22   19.03   20.61
   2   7  22   51.94   69.64
  -2  -7 -22  -27.98   82.43
   2   7  23   -2.61   35.81
   2   7  23   90.63   74.42
  -2  -7 -23  210.41   89.35
   2   8 -20 1151.32  176.63
   2   8 -19  152.62  104.67
   2   8 -18  484.46  204.49
   2   8 -17  775.32  122.74
   2   8 -16  128.82  143.39
   2   8 -15    8.10   62.07
   2   8 -14  648.02  103.87
   2   8 -13   -8.18   58.23
   2   8 -12 5305.06  224.66
   2   8 -1112564.90  404.57
   2   8 -10 3085.96  156.92
   2   8  -9 6108.48  212.29
   2   8  -8 5890.28  199.65
   2   8  -7  290.96   64.05
   2   8  -6  569.29  119.54
   2   8  -5  261.49   55.46
   2   8  -4  213.65   56.53
   2   8  -4  279.39   53.34
   2   8  -3 4261.29  222.71
   2   8  -3 4688.24  146.95
   2   8  -2  951.53   51.28
   2   8  -2  815.54   70.54
   2   8  -114441.79  342.64
   2   8  -115028.28  289.54
   2   8   0   74.16   24.35
   2   8   0   80.82   37.95
   2   8   1 7459.18  156.03
   2   8   1 7199.35  173.11
   2   8   2  466.35   46.42
   2   8   2  446.28   41.53
   2   8   3 3661.93  102.35
   2   8   3 3584.76  151.57
  -2  -8  -3 3750.97  106.69
   2   8   4  644.53   48.32
   2   8   4  640.11   53.21
  -2  -8  -4  638.63   52.21
   2   8   5  565.71   54.81
   2   8   5  518.88   46.62
  -2  -8  -5  551.87   50.23
   2   8   6   60.49   43.34
   2   8   6   95.56   33.31
  -2  -8  -6  100.92   37.00
   2   8   7  610.50  119.29
   2   8   7  758.71   87.33
  -2  -8  -7  727.89   55.45
   2   8   8   79.84   82.20
   2   8   8   12.84   55.56
  -2  -8  -8   47.65   34.65
   2   8   9 1257.50  161.60
   2   8   9 1324.69   65.16
  -2  -8  -9 1387.35  116.11
   2   8  10  966.85   60.16
   2   8  10 1012.17  160.04
  -2  -8 -10 1060.40   66.63
   2   8  11 2815.44  229.41
   2   8  11 2679.50   94.84
  -2  -8 -11 2834.02  105.30
   2   8  12 5581.60  321.28
   2   8  12 5301.96  148.80
  -2  -8 -12 5492.19  160.40
   2   8  13 1540.54  212.75
   2   8  13 1765.60  127.36
  -2  -8 -13 1620.42   87.86
   2   8  14  -28.70   58.75
   2   8  14  -72.89  102.52
  -2  -8 -14   10.02   38.57
   2   8  15 1496.24  137.76
   2   8  15 1495.86   83.07
  -2  -8 -15 1395.12  158.76
   2   8  1622928.10  617.12
   2   8  1624188.87  758.61
  -2  -8 -1622714.04  652.08
   2   8  1713545.41  472.83
   2   8  1714488.95  499.12
  -2  -8 -1712967.41  396.14
   2   8  18 1854.45  162.45
   2   8  18 1912.38  100.37
  -2  -8 -18 1615.44  113.67
   2   8  19  233.27   51.19
   2   8  19  302.11   97.56
  -2  -8 -19  307.02  107.22
   2   8  20   17.93  137.72
   2   8  20   57.52   55.93
  -2  -8 -20   78.77   88.49
   2   8  21    7.04   18.64
   2   8  21  -39.45  117.14
  -2  -8 -21    0.98   77.14
   2   8  22   14.61   34.16
   2   8  22   13.44   75.53
  -2  -8 -22   90.37   84.43
   2   9 -19  700.01  253.85
   2   9 -18 1335.65  168.43
   2   9 -17  630.56  214.57
   2   9 -16  143.44   87.26
   2   9 -15    0.59   59.49
   2   9 -14  331.06   91.99
   2   9 -13  161.11   80.89
   2   9 -12 3706.80  188.19
   2   9 -11 4040.17  195.28
   2   9 -10  154.96   71.18
   2   9  -9  -11.19   52.30
   2   9  -8  650.48   84.65
   2   9  -7  389.72   72.96
   2   9  -6   37.23   51.70
   2   9  -6   83.35   54.97
   2   9  -5  187.84   61.87
   2   9  -5  224.42  101.55
   2   9  -4   29.61   37.95
   2   9  -4  -30.44   40.84
   2   9  -3  607.19   24.94
   2   9  -3  625.59  128.03
   2   9  -3  648.08   72.11
   2   9  -2 4355.02   86.66
   2   9  -2 4411.16  150.97
   2   9  -113163.86  313.45
   2   9  -112592.21  325.02
   2   9   0 9451.15  245.80
   2   9   0 8842.76  230.89
   2   9   1 1707.95   81.49
   2   9   1 1782.79   63.47
   2   9   2 2263.24   77.02
   2   9   2 2040.31  141.35
   2   9   3 2199.08   82.58
   2   9   3 2090.72   84.70
  -2  -9  -3 2230.64   90.21
   2   9   4  313.09   82.45
   2   9   4  272.44   46.79
  -2  -9  -4  236.27   89.78
   2   9   5 7104.81  174.55
   2   9   5 6808.48  188.06
  -2  -9  -5 7538.42  262.10
   2   9   6 1369.29   70.26
   2   9   6 1247.51   83.65
  -2  -9  -6 1414.97   76.45
   2   9   7  393.40   48.71
   2   9   7  385.38   62.95
  -2  -9  -7  376.23   52.78
   2   9   8  212.23   61.27
   2   9   8  218.17   44.18
  -2  -9  -8  152.28   86.85
   2   9   9 4136.59  270.40
   2   9   9 4130.63  127.12
  -2  -9  -9 4112.62  134.98
   2   9  10  132.16   41.30
   2   9  10  177.76  114.40
  -2  -9 -10   88.66   46.04
   2   9  11 1168.05   70.89
   2   9  11 1305.24  183.30
  -2  -9 -11 1248.75  127.60
   2   9  12   19.85   34.03
   2   9  12   33.01   98.73
  -2  -9 -12    8.89   37.92
   2   9  13  943.06  181.29
   2   9  13  923.69   65.59
  -2  -9 -13  876.93  122.35
   2   9  14  -24.55   60.84
   2   9  14  -15.00   62.02
  -2  -9 -14  -13.76   41.49
   2   9  15  299.57   96.90
   2   9  15  411.33  101.18
  -2  -9 -15  454.09   63.72
   2   9  16 3375.80  201.94
   2   9  16 3035.45  122.77
  -2  -9 -16 3037.93  221.44
   2   9  17  105.03   89.99
   2   9  17  118.64   49.06
  -2  -9 -17   91.72   58.02
   2   9  18   56.84   74.62
   2   9  18   67.42   81.34
  -2  -9 -18   55.53   51.85
   2   9  19   10.28   71.35
   2   9  19   -3.41   29.68
  -2  -9 -19  -28.45   45.17
   2   9  20 2823.08  330.68
  -2  -9 -20 2525.23  135.82
   2   9  21  255.17  206.38
  -2  -9 -21  480.69  124.43
   2   9  22  179.61   76.50
   2   9  22    0.94   19.46
   2  10 -18    4.67   78.10
   2  10 -17  602.96  127.51
   2  10 -16   80.67   86.33
   2  10 -15  179.60   92.82
   2  10 -14   48.19   75.72
   2  10 -13  390.94  177.18
   2  10 -12  568.20  108.05
   2  10 -10 4344.39  209.33
   2  10  -9 4954.01  339.62
   2  10  -8 1691.92  127.50
   2  10  -8 1652.61  128.32
   2  10  -7   87.60  109.02
   2  10  -7  104.12   65.32
   2  10  -6   85.47   58.91
   2  10  -6   71.10  106.43
   2  10  -5  148.46   57.49
   2  10  -5   40.17   59.98
   2  10  -4  907.15  151.18
   2  10  -4  971.76  148.95
   2  10  -3  132.73   57.76
   2  10  -3   85.19   58.57
   2  10  -3  124.48   30.64
   2  10  -2 3804.00  161.24
   2  10  -2 3257.01   75.08
   2  10  -127935.95  633.23
   2  10  -127630.19  895.07
   2  10   0 2224.30   75.65
   2  10   0 3539.84  134.74
   2  10   1  571.31   63.61
   2  10   1  509.49   44.68
   2  10   2 3945.69  173.82
   2  10   2 3937.75  137.25
   2  10   3   54.33   45.78
   2  10   3  107.70   41.03
   2  10   4  184.43   80.66
   2  10   4  115.80   48.19
  -2 -10  -4  176.68   51.17
   2  10   5  504.16  106.94
   2  10   5  464.03   58.40
  -2 -10  -5  518.23   61.98
   2  10   6  452.18   55.61
   2  10   6  344.55   63.12
  -2 -10  -6  367.14  108.82
   2  10   7 5329.67  161.84
   2  10   7 4986.63  183.33
  -2 -10  -7 5230.43  165.40
   2  10   8 5667.77  209.80
   2  10   8 5703.50  179.28
  -2 -10  -8 6247.86  192.13
   2  10   913769.86  344.60
   2  10   913800.12  401.25
  -2 -10  -913263.91  353.40
   2  10  10  982.47  103.76
   2  10  10 1429.48  135.42
  -2 -10 -10 1024.36   83.69
   2  10  11  559.16   92.23
   2  10  11  628.06  104.81
  -2 -10 -11  793.11  116.78
   2  10  12  821.72  108.11
   2  10  12  836.57   97.55
  -2 -10 -12  655.18   70.01
   2  10  13  991.32  112.07
   2  10  13 1006.57   70.01
  -2 -10 -13  944.34  130.79
   2  10  14  -37.05   62.53
   2  10  14  -29.78   35.46
  -2 -10 -14   -4.74   41.47
   2  10  15  699.85   63.00
   2  10  15  641.43  106.87
  -2 -10 -15  531.27   70.39
   2  10  16   62.72   69.52
   2  10  16   11.71   73.99
  -2 -10 -16   54.05   81.29
   2  10  17  512.83  110.40
   2  10  17  444.99   59.01
  -2 -10 -17  436.51  118.51
   2  10  18  124.60   81.34
   2  10  18   23.76   30.29
  -2 -10 -18   80.55   50.67
   2  10  19   20.38   36.09
   2  10  19  110.00  152.81
  -2 -10 -19   84.35   51.24
   2  10  20  129.02  138.86
   2  10  20    7.96   20.61
  -2 -10 -20   31.10   48.17
   2  10  21   69.63   86.20
   2  10  21   34.50   21.40
   2  11 -17   53.76   88.05
   2  11 -16 -133.65  169.50
   2  11 -15   14.83   73.45
   2  11 -14  710.96  124.14
   2  11 -13  114.15   86.54
   2  11 -12  233.31   93.47
   2  11 -11  183.71   85.59
   2  11 -11  191.96   90.56
   2  11 -10   52.28   71.36
   2  11 -10   82.24   75.84
   2  11  -9  427.32  102.80
   2  11  -9  487.53  100.06
   2  11  -8 2669.46  279.04
   2  11  -8 2866.94  174.24
   2  11  -7   44.46   60.82
   2  11  -7   28.94   62.71
   2  11  -6  168.99   70.78
   2  11  -6  134.33   67.67
   2  11  -5  266.54   71.10
   2  11  -5  238.45   72.00
   2  11  -4  806.78  152.44
   2  11  -4  745.86   89.38
   2  11  -3  465.28   74.68
   2  11  -3  354.28   39.10
   2  11  -3  426.66   77.02
   2  11  -2 1034.67   39.26
   2  11  -2  986.67  168.47
   2  11  -1 3492.50   90.30
   2  11  -1 3552.76  156.94
   2  11   017904.00  434.48
   2  11   019251.65  568.33
   2  11   146134.43 1424.50
   2  11   149459.51 1698.76
   2  11   231405.87  824.81
   2  11   234120.49  944.28
   2  11   3  102.57   55.34
   2  11   3 1026.96   78.82
   2  11   4 2532.32  114.24
   2  11   4 2464.08  106.58
   2  11   5  426.64   61.14
   2  11   5  369.82  104.12
  -2 -11  -5  333.93   65.46
   2  11   6 3324.53  130.46
   2  11   6 2935.71  217.75
  -2 -11  -6 3465.95  138.57
   2  11   7 4249.62  238.50
   2  11   7 4222.86  168.71
  -2 -11  -7 4358.39  161.47
   2  11   8 2605.96  150.25
   2  11   8 3293.49  218.43
  -2 -11  -8 3174.41  140.58
   2  11   922872.10  724.95
   2  11   921315.63  638.40
  -2 -11  -922469.07  747.99
   2  11  10 2287.25  117.31
   2  11  10 2007.10  139.90
  -2 -11 -10 2125.68  117.54
   2  11  11   95.26   65.16
   2  11  11   79.64   45.07
  -2 -11 -11   49.15   87.27
   2  11  12  609.98   63.40
   2  11  12  679.25   94.67
  -2 -11 -12  541.42   71.11
   2  11  13  103.85   44.27
   2  11  13  152.49   72.20
  -2 -11 -13   86.01   51.28
   2  11  14  103.80   75.58
   2  11  14  128.05   76.74
  -2 -11 -14  101.29   51.14
   2  11  15   31.15   70.06
   2  11  15   47.11   38.94
  -2 -11 -15    6.96   44.44
   2  11  16    5.61   74.50
   2  11  16   87.08   40.23
  -2 -11 -16   13.05   47.54
   2  11  17 2891.24  197.40
  -2 -11 -17 2791.11  215.81
   2  11  18  -59.03  131.64
   2  11  18  -10.81   20.24
  -2 -11 -18   -4.94   47.01
   2  11  19  -14.89   20.77
   2  11  19  -93.03  140.51
  -2 -11 -19  -27.91   48.73
   2  12 -15  -36.09   80.62
   2  12 -15    8.37   76.89
   2  12 -14   19.77  155.62
   2  12 -14  136.10   96.59
   2  12 -13   54.89   84.45
   2  12 -13 -143.35   80.35
   2  12 -12  210.96  181.76
   2  12 -12  419.43  108.98
   2  12 -11   28.92   74.55
   2  12 -11   72.79  138.63
   2  12 -10   92.26   81.14
   2  12 -10  153.15   84.68
   2  12  -9  176.10   79.47
   2  12  -9   53.04   79.57
   2  12  -8  665.88  108.19
   2  12  -8  715.64  108.90
   2  12  -7   -3.90   56.84
   2  12  -7  -12.12   58.43
   2  12  -6   55.22   66.75
   2  12  -6  104.24   68.14
   2  12  -5  261.46   77.24
   2  12  -5  274.60  133.72
   2  12  -4  469.19  142.36
   2  12  -4  392.41   81.19
   2  12  -3  227.64   21.33
   2  12  -3  374.51   75.37
   2  12  -3  409.79  122.73
   2  12  -2  827.71   57.51
   2  12  -2 1020.29   91.11
   2  12  -1   15.56   49.30
   2  12  -1   30.23   21.47
   2  12   0  320.80   62.48
   2  12   0  354.21   67.18
   2  12   1  -16.50   50.44
   2  12   1   48.69   49.32
   2  12   2  515.04   56.70
   2  12   2  696.05   83.71
   2  12   3 2194.59  151.02
   2  12   3 2122.67  193.83
   2  12   4  987.87   86.45
   2  12   4  875.01   71.71
   2  12   5 1120.83   85.19
   2  12   5 1041.88   80.10
   2  12   6   30.14   46.54
   2  12   6   56.26   47.65
  -2 -12  -6   25.54   49.39
   2  12   7 1173.95  150.61
   2  12   7  893.41  162.52
  -2 -12  -7 1276.84  161.61
   2  12   8 7443.51  334.61
   2  12   8 6148.92  364.13
  -2 -12  -8 6836.96  225.22
   2  12   910876.75  308.11
   2  12   910453.67  335.33
  -2 -12  -910589.28  306.17
   2  12  10 3942.52  143.68
   2  12  10 3388.54  174.67
  -2 -12 -10 3577.39  154.26
   2  12  11 3052.93  125.05
   2  12  11 2722.59  162.78
  -2 -12 -11 2997.48  213.60
   2  12  12 1801.10  154.85
   2  12  12 1615.44  133.92
  -2 -12 -12 1584.54  102.57
   2  12  13  -17.46   68.98
   2  12  13    1.56   62.25
  -2 -12 -13  -32.88   77.61
   2  12  14  718.07   67.92
   2  12  14  672.77  109.28
  -2 -12 -14  628.96   77.48
   2  12  15  115.47   75.09
   2  12  15   63.77   34.17
  -2 -12 -15   34.26   51.83
   2  12  16  399.14  178.81
  -2 -12 -16  302.66  119.85
   2  12  17  335.97  194.50
  -2 -12 -17  309.60  119.75
   2  12  18  413.09  214.67
  -2 -12 -18  485.64   79.20
   2  13 -14  173.12  107.52
   2  13 -14  196.63  110.93
   2  13 -13  -38.15   75.00
   2  13 -13   23.77   79.23
   2  13 -12  156.72  102.05
   2  13 -11  343.69  108.95
   2  13 -11  375.74  112.20
   2  13 -10   90.64  164.44
   2  13 -10  202.24  156.68
   2  13  -9   29.11   78.30
   2  13  -9   76.45   78.72
   2  13  -8  108.83   74.52
   2  13  -8   -5.45   75.50
   2  13  -7  124.51   79.43
   2  13  -7   99.37  137.47
   2  13  -6   16.57   60.87
   2  13  -6    9.98   61.90
   2  13  -5  289.26   82.78
   2  13  -5  261.70   82.36
   2  13  -4   36.61   55.78
   2  13  -4  -12.99   55.06
   2  13  -3  795.81   96.15
   2  13  -3  858.26  104.41
   2  13  -2  212.63   69.07
   2  13  -2  210.10   24.63
   2  13  -2  252.19   75.70
   2  13  -1   26.37   38.38
   2  13  -1   54.93   53.47
   2  13   0  966.04   50.57
   2  13   0 1246.87   95.36
   2  13   1   36.31   90.46
   2  13   1   34.93   29.31
   2  13   2  460.66   83.60
   2  13   2  564.19   75.93
   2  13   3  372.83   49.57
   2  13   3  320.86   69.76
   2  13   4   37.93   68.32
   2  13   4   71.72   89.53
   2  13   5  324.71   65.37
   2  13   5  239.81   99.21
   2  13   6 2296.83  118.92
   2  13   6 2128.34  112.77
   2  13   7   55.59   84.87
   2  13   7  -22.52   49.69
  -2 -13  -7  -68.31   51.62
   2  13   8 1544.23  163.90
   2  13   8 1500.67  108.38
  -2 -13  -8 1560.53  171.22
   2  13   9   -1.98   44.36
   2  13   9  -71.20   52.71
  -2 -13  -9    4.98   46.31
   2  13  10  165.35   55.80
   2  13  10  198.53  122.67
  -2 -13 -10  117.91  104.33
   2  13  11 2125.80  176.36
   2  13  11 1933.23  230.48
  -2 -13 -11 2023.43  118.17
   2  13  12   29.30  106.19
   2  13  12  313.48  153.88
  -2 -13 -12  387.98   70.42
   2  13  13  -12.32   36.11
   2  13  13  -16.75  114.10
  -2 -13 -13  -59.97   84.17
   2  13  14  -11.18   23.06
   2  13  14   55.17  119.12
  -2 -13 -14  126.70   47.95
   2  13  15  122.96  128.30
   2  13  15  -24.18   38.60
  -2 -13 -15  116.30   51.31
   2  13  16   16.30   22.54
   2  13  16  117.65   76.24
  -2 -13 -16  -28.32   86.31
   2  14 -11 2284.59  215.78
   2  14 -11 2180.53  209.46
   2  14 -10 3751.79  258.54
   2  14 -10 4076.56  405.70
   2  14  -9 1043.71  146.54
   2  14  -9  744.04  248.77
   2  14  -8  602.88  120.23
   2  14  -8  613.10  122.21
   2  14  -7    2.72   63.13
   2  14  -7    3.49   64.27
   2  14  -6  215.13   87.61
   2  14  -6  120.23  149.61
   2  14  -5  -83.01   72.48
   2  14  -5  -46.79   69.99
   2  14  -4   80.16   72.08
   2  14  -4   97.33   70.32
   2  14  -3  -43.71   55.97
   2  14  -3   26.09   60.93
   2  14  -2   67.93   60.62
   2  14  -2   42.30   66.70
   2  14  -2   50.58   33.68
   2  14  -1  168.72   62.92
   2  14  -1   69.29   24.57
   2  14  -1   66.78   68.45
   2  14   0  271.22   34.59
   2  14   0  330.37   73.36
   2  14   1  265.07   69.30
   2  14   1  171.73   62.24
   2  14   2   20.11   30.43
   2  14   2   28.51   89.99
   2  14   3   22.46   57.28
   2  14   3   21.23   52.00
   2  14   4  599.45   61.69
   2  14   4  799.16   85.98
   2  14   5    3.01   34.13
   2  14   5  -17.96   75.80
   2  14   6  124.67   94.79
   2  14   6  213.98   64.35
   2  14   7  169.75   59.65
   2  14   7  104.24   57.43
   2  14   8  372.25  117.00
   2  14   8  284.69   70.12
  -2 -14  -8  355.79   71.75
   2  14   9   -7.22   44.92
   2  14   9   44.43   50.05
  -2 -14  -9    0.72   47.93
   2  14  10  474.63   87.91
   2  14  10  564.38   73.53
  -2 -14 -10  424.82  133.62
   2  14  11   -9.47   67.72
   2  14  11  118.54   65.89
  -2 -14 -11   56.99   56.03
   2  14  12  -10.65   23.83
   2  14  12   87.35   60.66
  -2 -14 -12  105.07   83.58
   2  14  13   -0.80   25.79
   2  14  13  214.02   71.65
  -2 -14 -13  135.00   53.50
   2  14  14    5.53   39.62
   2  14  14  -14.96   70.64
  -2 -14 -14   67.53   50.48
   2  15  -8 1294.33  168.56
   2  15  -8 1284.99  279.45
   2  15  -7 1133.37  150.97
   2  15  -7 1121.28  150.46
   2  15  -6   60.61   85.08
   2  15  -6   83.17   87.03
   2  15  -5 1928.54  278.15
   2  15  -5 1664.21  271.99
   2  15  -4 1641.86  153.67
   2  15  -4 1651.02  156.65
   2  15  -3  147.07  183.78
   2  15  -3  634.40  105.36
   2  15  -2   87.43   71.78
   2  15  -2   92.88   76.29
   2  15  -1   75.89   67.72
   2  15  -1   86.07   72.90
   2  15   0  188.09   72.39
   2  15   0  114.65   29.71
   2  15   1  167.16   68.29
   2  15   1   95.09   33.17
   2  15   2   -6.56   48.47
   2  15   2   20.22   52.00
   2  15   3   10.93   33.01
   2  15   3   45.38   92.94
   2  15   4   83.48   66.51
   2  15   4    6.02   57.74
   2  15   5  165.10   51.81
   2  15   5  274.11  118.62
   2  15   6  -10.79   38.61
   2  15   6   24.85   48.11
   2  15   7  -20.19   46.36
   2  15   7  -27.99   51.99
   2  15   8    9.54   79.21
   2  15   8  -21.46   76.69
   2  15   9   19.75   37.81
   2  15   9  542.97  108.18
   2  15  10  -48.85   54.07
   2  15  10    4.48   25.04
  -2 -15 -10  -17.92   50.53
   2  15  11   69.33   65.07
   2  15  11   -3.61   44.59
  -2 -15 -11   83.04   56.53
   2  16  -4  107.42   83.42
   2  16  -4  -79.91  139.56
   2  16  -3  144.15   90.25
   2  16  -3  100.88   88.17
   2  16  -2   21.36   68.50
   2  16  -2  -25.15  128.02
   2  16  -1 2544.65  176.64
   2  16  -1 2674.39  189.12
   2  16   0  248.19   84.52
   2  16   0   -3.64   87.74
   2  16   1 1084.90  127.52
   2  16   2  925.50  114.56
   2  16   2  799.72   59.78
   2  16   3   96.81   69.68
   2  16   3   47.84   64.86
   2  16   4  307.76   78.98
   2  16   4  175.58   50.29
   2  16   5 1185.23  105.87
   2  16   5  876.43   79.27
   2  16   6 1433.38  138.69
   2  16   6  272.21  117.29
   2  16   7  172.21   52.53
   2  16   7    0.27   32.58
   3 -13  -8   89.31  166.05
  -3  13   8  196.53   69.43
  -3  13   8   62.01  102.68
   3 -13  -7   86.44   90.10
  -3  13   7  126.70   94.81
  -3  13   7   58.56   61.09
   3 -13  -6    0.10   82.05
  -3  13   6   67.00   53.27
  -3  13   6   33.04   89.48
   3 -13  -5   57.24  169.08
  -3  13   5  174.87   59.24
  -3  13   5  205.33  107.39
   3 -13  -4  -29.89   83.46
  -3  13   4   99.02   48.01
  -3  13   4   11.43   92.30
   3 -13  -3  517.73  113.69
  -3  13   3  490.06  129.69
  -3  13   3  345.10   61.64
  -3  13   2  188.81   53.19
  -3  13   2  306.90  116.50
  -3  13   1 5942.40  264.22
  -3  13   1 7207.20  528.83
  -3  13   0 1127.05  115.29
  -3  13   0 2203.06  201.40
  -3  13  -1 1827.53  293.54
  -3  13  -1 1003.25   50.77
  -3  13  -2  270.10  121.39
  -3  13  -3   17.33  148.33
  -3  13  -4   33.10   87.25
  -3  13  -5  -64.41   91.90
  -3  13  -6  -62.68  165.04
  -3  13  -7   55.79   80.62
  -3  13  -7  -77.88   83.56
   3 -12 -11   18.78   88.68
  -3  12  11  144.74   76.31
  -3  12  11   54.59  156.44
   3 -12 -10  -42.88   82.32
  -3  12  10   96.66  118.55
  -3  12  10  148.57   85.63
   3 -12  -9  -26.21  137.11
  -3  12   9   51.20  146.02
  -3  12   9   76.11  106.34
   3 -12  -8  149.90   89.19
  -3  12   8   74.40  117.94
  -3  12   8  156.12   96.28
   3 -12  -7  349.94  101.63
  -3  12   7  248.53  110.31
  -3  12   7  342.02  128.83
   3 -12  -6  267.61  177.23
  -3  12   6  412.52  110.68
  -3  12   6  292.03   69.95
   3 -12  -5   24.16   69.68
  -3  12   5   24.73   75.48
  -3  12   5    4.46   45.85
   3 -12  -4   69.17   88.12
  -3  12   4  284.23   95.48
  -3  12   4  133.15   53.95
   3 -12  -3  254.68   98.36
  -3  12   3  272.09  104.98
  -3  12   3  202.08   94.43
   3 -12  -2  440.84  109.06
  -3  12   2  509.10  207.43
  -3  12   2  489.12   99.72
  -3  12   1  158.53   98.18
  -3  12   1  150.59   74.35
  -3  12   0  336.31   77.31
  -3  12   0  404.42  193.38
  -3  12  -1   40.65   29.76
  -3  12  -1  100.84   84.70
  -3  12  -2  449.45   38.48
  -3  12  -2  669.94  119.02
  -3  12  -3   11.88   71.35
  -3  12  -3   -9.14   33.96
  -3  12  -4   54.10   84.63
  -3  12  -5   71.79  154.23
  -3  12  -6  320.40  110.12
  -3  12  -7  -98.43   82.59
  -3  12  -7   48.46   82.66
  -3  12  -8  654.37  137.49
  -3  12  -8  553.46  138.90
  -3  12  -9  480.14  228.63
  -3  12  -9  537.06  138.04
  -3  12 -10 1186.18  162.19
  -3  12 -10 1051.76  165.31
  -3  12 -11  -12.19  157.76
  -3  12 -11  107.69  160.54
   3 -11 -14  167.55  102.64
  -3  11  14  238.54   99.81
  -3  11  14  191.05   98.38
   3 -11 -13  793.63  271.14
  -3  11  13 1524.89  157.74
  -3  11  13 1721.64  260.36
   3 -11 -12  240.95  101.96
  -3  11  12  271.65  102.40
  -3  11  12  247.38  171.78
   3 -11 -11  461.96  104.85
  -3  11  11  285.50  188.79
  -3  11  11  351.02   96.67
   3 -11 -10  -38.02  126.83
  -3  11  10    7.92   75.59
  -3  11  10   60.04   64.36
   3 -11  -9    8.91   70.35
  -3  11   9 -108.68  129.81
  -3  11   9  -26.86   58.35
   3 -11  -8  -47.65   69.51
  -3  11   8  -24.10   54.82
  -3  11   8   10.88   75.19
   3 -11  -7  435.09  176.80
  -3  11   7  359.15   77.51
  -3  11   7  492.55  106.41
   3 -11  -6    0.54   64.05
  -3  11   6  -20.52   67.13
  -3  11   6   -0.83   45.21
   3 -11  -5  687.93  111.77
  -3  11   5  881.36  121.02
  -3  11   5  502.91   77.11
   3 -11  -4 1371.76  130.88
  -3  11   4 1598.40  233.78
  -3  11   4  746.90   81.94
   3 -11  -3  -49.27   76.85
  -3  11   3   60.54   77.66
  -3  11   3   55.15   42.87
   3 -11  -2  390.88   93.09
  -3  11   2  210.29   51.23
  -3  11   2  368.68  172.32
   3 -11  -1  -30.71   67.65
  -3  11   1  -70.25   71.28
  -3  11   1   -4.09   33.54
  -3  11   0   60.29   34.56
  -3  11   0  140.69  142.14
  -3  11  -1  998.35  129.26
  -3  11  -1  943.14   56.65
  -3  11  -2  160.60  129.33
  -3  11  -2   24.68   26.71
  -3  11  -3  114.96   81.65
  -3  11  -3   79.36   44.02
  -3  11  -4    4.13   17.49
  -3  11  -4   34.32  114.84
  -3  11  -5   14.93   26.56
  -3  11  -5  -32.12   69.16
  -3  11  -6  738.47  215.87
  -3  11  -7  -44.22   81.14
  -3  11  -8 1410.15  154.54
  -3  11  -8 1339.61  151.84
  -3  11  -9 1392.64  254.46
  -3  11  -9  852.26  249.22
  -3  11 -10  160.62   97.42
  -3  11 -10  149.88  100.31
  -3  11 -11   69.10   88.34
  -3  11 -11    3.49  148.12
  -3  11 -12  -34.59   83.98
  -3  11 -12  -51.73   86.84
  -3  11 -13   -5.41  137.71
  -3  11 -13  -25.11  137.48
   3 -10 -16 1402.59  169.34
  -3  10  16 1629.89  175.37
  -3  10  16 1544.38  261.55
   3 -10 -15 7493.02  355.06
  -3  10  15 8786.65  584.25
  -3  10  15 7760.30  335.41
   3 -10 -14    0.30  155.65
  -3  10  14   79.10   91.80
  -3  10  14   75.86  148.40
   3 -10 -13  668.34  122.00
  -3  10  13  679.13  119.58
  -3  10  13  767.72  123.22
   3 -10 -12  779.43  126.80
  -3  10  12 1039.81  123.56
  -3  10  12 1026.75  127.04
   3 -10 -11  414.28  103.03
  -3  10  11  451.47  105.85
  -3  10  11  410.90   95.95
   3 -10 -10   93.76  133.80
  -3  10  10   -7.84   78.47
  -3  10  10  120.69   67.96
   3 -10  -9  198.25   77.03
  -3  10   9  -14.29   65.95
  -3  10   9  160.69  142.04
   3 -10  -8   30.69   72.56
  -3  10   8   71.74   76.04
   3 -10  -7 1180.38  128.81
  -3  10   7 1355.68  135.10
   3 -10  -6  125.94   84.12
  -3  10   6  179.45   86.85
   3 -10  -5  255.70  172.05
  -3  10   5  455.79  106.44
   3 -10  -4 5750.59  243.42
  -3  10   4 6270.98  401.69
   3 -10  -3  141.89  125.52
  -3  10   3   -5.24   76.58
   3 -10  -2  799.80  115.37
  -3  10   2 1031.50  118.70
   3 -10  -1  294.87  158.39
  -3  10   1  331.82   93.35
   3 -10   0 2042.70  150.25
  -3  10   0 2264.96  160.48
  -3  10  -1 1766.91  248.18
  -3  10  -2   25.52   68.67
  -3  10  -3 1443.49  235.13
  -3  10  -4   82.57   74.27
  -3  10  -4   36.53   21.55
  -3  10  -5  799.09  204.06
  -3  10  -5  623.85   32.81
  -3  10  -6 3818.17  107.73
  -3  10  -6 4925.67  222.42
  -3  10  -7   89.90   89.67
  -3  10  -7  144.08   12.49
  -3  10  -8  845.43  126.67
  -3  10  -8  931.40  127.44
  -3  10  -9  189.18   92.40
  -3  10  -9  165.34   93.69
  -3  10 -10  273.39   92.54
  -3  10 -10  166.75   95.91
  -3  10 -11   90.90   81.06
  -3  10 -11   40.84  141.16
  -3  10 -12  -14.90   73.66
  -3  10 -12  -32.03   73.23
  -3  10 -13  -44.23  151.45
  -3  10 -13  143.38   87.87
  -3  10 -14  146.57   95.20
  -3  10 -14  137.55  164.57
  -3  10 -15  250.72  187.57
  -3  10 -15  340.29  188.63
   3  -9 -17  270.87  104.29
  -3   9  17  347.73  195.02
  -3   9  17  289.18  101.72
   3  -9 -16 1075.65  140.76
  -3   9  16 1048.70  131.12
  -3   9  16 1000.49  157.11
   3  -9 -15    4.38   74.53
  -3   9  15  -63.92   81.98
  -3   9  15  -38.80   71.40
   3  -9 -14  187.41  162.74
  -3   9  14  212.78   98.24
  -3   9  14  307.82   89.10
   3  -9 -13  382.92   98.16
  -3   9  13  314.55   95.05
  -3   9  13  341.39   98.42
   3  -9 -12   18.08   68.39
  -3   9  12  -54.50  119.13
  -3   9  12   55.56   67.37
   3  -9 -11  132.25  140.76
  -3   9  11  132.03   81.71
   3  -9 -10  118.06   81.18
  -3   9  10  231.85   85.08
   3  -9  -9  117.18   81.45
  -3   9   9  250.27   84.13
   3  -9  -8  345.81  182.67
  -3   9   8  617.35  111.22
   3  -9  -7 7054.24  280.23
  -3   9   7 7832.60  439.98
   3  -9  -6 2149.91  265.23
  -3   9   6 2238.69  166.71
   3  -9  -5 4760.02  217.73
  -3   9   5 5089.07  220.52
   3  -9  -4 1415.27  222.24
  -3   9   4 1394.14  227.07
   3  -9  -3  728.81  100.29
  -3   9   3  674.62  106.84
   3  -9  -2  412.66  153.17
  -3   9   2  420.39   92.03
   3  -9  -1  962.32  109.09
  -3   9   1 1050.55  193.30
   3  -9   0  391.90   88.38
  -3   9   0  402.81   90.69
   3  -9   1   21.05   57.96
  -3   9  -1    6.13   61.41
  -3   9  -2 2078.34  143.74
  -3   9  -3 5753.52  251.64
  -3   9  -4 8817.89  330.14
  -3   9  -510389.35  405.13
  -3   9  -628408.60  921.44
  -3   9  -7  843.56  122.66
  -3   9  -7  718.21   25.77
  -3   9  -8  148.07   77.61
  -3   9  -8   91.00   13.25
  -3   9  -8  147.42   78.91
  -3   9  -8   82.02    7.72
  -3   9  -9   39.04  127.14
  -3   9  -9   63.04   74.76
  -3   9 -10  -10.66   68.03
  -3   9 -10  -47.66   67.08
  -3   9 -11  753.45  115.10
  -3   9 -11  745.38  194.63
  -3   9 -12  126.33   80.25
  -3   9 -12   39.73  140.18
  -3   9 -13  -17.14  139.22
  -3   9 -13  112.81   79.09
  -3   9 -14  294.31   91.63
  -3   9 -14  121.66   91.63
  -3   9 -15  163.94   84.22
  -3   9 -15   48.76   85.03
  -3   9 -16  273.61   94.94
  -3   9 -16  165.55   97.83
  -3   9 -17  -61.83   78.68
  -3   9 -17   32.87  140.23
   3  -8 -19  -21.08   80.96
  -3   8  19  -92.87   69.15
  -3   8  19    1.22   88.16
   3  -8 -18  100.44   92.20
  -3   8  18   37.81  171.85
  -3   8  18  208.59   81.09
   3  -8 -17   38.55   75.68
  -3   8  17   11.10   82.97
  -3   8  17   54.64   68.35
   3  -8 -16  172.13   93.61
  -3   8  16  234.42  100.16
  -3   8  16  295.61   86.43
   3  -8 -15 -128.86  124.38
  -3   8  15   -1.16   75.68
  -3   8  15  -36.54  116.66
   3  -8 -14  152.73   81.87
  -3   8  14  116.47   85.51
  -3   8  14  146.65   79.27
   3  -8 -13  360.69   94.55
  -3   8  13  293.67  159.40
   3  -8 -12  456.32  102.14
  -3   8  12  645.56  101.88
   3  -8 -11 1267.32  212.06
  -3   8  11 1295.93  130.55
   3  -8 -10   -3.37   57.56
  -3   8  10   35.78  104.13
   3  -8  -9    3.11   60.56
  -3   8   9   44.57   62.63
   3  -8  -8  619.44   95.81
  -3   8   8  673.50  101.74
   3  -8  -7  179.99   74.94
  -3   8   7  205.25  135.30
   3  -8  -6   15.37  101.98
  -3   8   6   24.13   59.36
   3  -8  -5  472.65   89.22
  -3   8   5  554.54   92.47
   3  -8  -4    4.96   53.85
  -3   8   4   28.19   98.60
   3  -8  -3  156.72   69.55
  -3   8   3  168.32   72.14
   3  -8  -2  399.52   78.23
  -3   8   2  326.86   82.95
   3  -8  -1    5.61  100.98
  -3   8   1  -57.67  105.62
   3  -8   0 4131.17  175.91
  -3   8   0 3936.23  177.96
   3  -8   1 2834.56  160.03
  -3   8  -1 2886.89  159.20
  -3   8  -2 4133.57  345.05
  -3   8  -323516.18  708.53
  -3   8  -412718.71  493.88
  -3   8  -544847.12 1535.98
  -3   8  -636448.13 1113.82
  -3   8  -7 -256.10  111.00
  -3   8  -8 1050.25   33.37
  -3   8  -8  549.53  114.96
  -3   8  -8 1214.58  118.15
  -3   8  -9  508.84   98.96
  -3   8  -9  546.23   98.55
  -3   8 -10  102.23  116.05
  -3   8 -10   30.67   65.72
  -3   8 -11   29.95   59.07
  -3   8 -11  -50.23  104.84
  -3   8 -12  277.79   89.73
  -3   8 -12  337.79   89.35
  -3   8 -13   18.25   64.42
  -3   8 -13   10.24  111.97
  -3   8 -14  826.78  115.02
  -3   8 -14  663.60  198.47
  -3   8 -15  914.14  123.62
  -3   8 -15  822.78  127.99
  -3   8 -16 4648.69  357.55
  -3   8 -16 4213.63  239.72
  -3   8 -17  779.08  115.90
  -3   8 -17  520.56  124.77
  -3   8 -18   99.88   88.51
  -3   8 -18  152.87  145.27
   3  -7 -20   -4.50   74.66
  -3   7  20   36.28   78.53
   3  -7 -19  263.87   99.91
  -3   7  19  208.88   83.62
  -3   7  19  268.11  179.87
   3  -7 -18  182.70   90.50
  -3   7  18  135.88   96.08
  -3   7  18  201.10   80.30
   3  -7 -17  947.85  126.06
  -3   7  17  760.11  116.07
  -3   7  17 1041.20  132.69
   3  -7 -16   53.36   78.60
  -3   7  16   94.34   82.84
   3  -7 -15 2376.33  280.08
  -3   7  15 2361.55  160.81
   3  -7 -14    6.34   69.81
  -3   7  14  132.24  116.27
   3  -7 -13  456.25   99.09
  -3   7  13  471.09   95.57
   3  -7 -12 1803.58  137.94
  -3   7  12 1684.28  134.16
   3  -7 -11  223.03  132.01
  -3   7  11  130.15  133.98
   3  -7 -10   -0.76   52.22
  -3   7  10   -6.87   53.97
   3  -7  -9  473.53   89.41
  -3   7   9  557.12   90.27
   3  -7  -8   71.95   62.64
  -3   7   8   56.39  111.72
   3  -7  -7  149.74   69.24
  -3   7   7  194.20   70.43
   3  -7  -6  982.98   98.01
  -3   7   6 1013.42  100.62
   3  -7  -5  -44.48   58.19
  -3   7   5 -112.36  106.79
   3  -7  -4 2001.88  120.68
  -3   7   4 1973.45  124.34
   3  -7  -3  -23.42   81.24
  -3   7   3    8.47   46.58
   3  -7  -2  233.14   66.63
  -3   7   2  119.09   68.75
   3  -7  -1 1037.86   95.90
  -3   7   1 1008.39  171.77
   3  -7   0 1054.87  162.27
  -3   7   0  768.32   94.01
   3  -7   1 2453.45  133.36
  -3   7  -1 2355.30  131.66
   3  -7   2 2705.12  138.28
  -3   7  -2 2498.78  150.90
  -3   7  -3 8577.09  449.68
  -3   7  -418501.01  557.55
  -3   7  -5   19.46   63.13
  -3   7  -6 3390.53  178.89
  -3   7  -7 4571.86  193.85
  -3   7  -8  947.00  122.57
  -3   7  -8 1876.16   49.60
  -3   7  -8 2027.66  139.55
  -3   7  -9 1431.48  118.04
  -3   7  -9 1486.29  125.08
  -3   7 -10  302.09   80.44
  -3   7 -10  310.99   78.25
  -3   7 -11 -125.60  115.15
  -3   7 -11  -36.20  116.45
  -3   7 -12  801.42  102.89
  -3   7 -12  687.36  106.30
  -3   7 -13 3223.99  186.66
  -3   7 -13 3550.30  188.70
  -3   7 -14  254.65  149.55
  -3   7 -14  214.41   89.03
  -3   7 -15 2246.30  154.27
  -3   7 -15 1765.42  263.02
  -3   7 -16 2240.59  165.02
  -3   7 -16 2253.81  262.41
  -3   7 -17    3.57   65.30
  -3   7 -17  -23.31   62.14
  -3   7 -18    5.20   75.02
  -3   7 -18   97.36   71.76
  -3   7 -19  226.77   92.47
  -3   7 -19  185.71   87.59
  -3   7 -20  132.06   79.42
  -3   7 -20   36.48   82.75
   3  -6 -21 1886.95  189.53
  -3   6  21 2363.41  198.41
   3  -6 -20  202.46   98.99
  -3   6  20  174.17   88.00
  -3   6  20  287.94  175.17
   3  -6 -19  314.85  102.56
  -3   6  19  290.32   90.02
  -3   6  19  355.50  104.50
   3  -6 -18   92.56   72.57
  -3   6  18   15.24   69.37
  -3   6  18   -4.15   76.29
   3  -6 -17  301.82   94.54
  -3   6  17  239.82   99.09
   3  -6 -16 1583.11  147.67
  -3   6  16 1841.75  139.64
   3  -6 -15  438.49  172.34
  -3   6  15  472.44  162.30
   3  -6 -14 3096.96  179.41
  -3   6  14 3128.56  173.41
   3  -6 -13  130.99   81.14
  -3   6  13  224.21   77.81
   3  -6 -12  124.53   79.49
  -3   6  12  187.31   78.06
   3  -6 -11  431.57  171.38
  -3   6  11  675.67   95.44
   3  -6 -10  718.31  100.51
  -3   6  10  852.75  178.98
   3  -6  -9  826.17   98.58
  -3   6   9  784.19   99.38
   3  -6  -8  -22.42   45.26
  -3   6   8   22.12   46.00
   3  -6  -7   57.21   58.07
  -3   6   7   90.41   59.25
   3  -6  -6   74.97   57.26
  -3   6   6   64.07  102.96
   3  -6  -5  446.56   74.66
  -3   6   5  399.50   75.36
   3  -6  -4  984.33   86.84
  -3   6   4  993.48   89.94
   3  -6  -3  532.89   76.32
  -3   6   3  588.00   77.05
   3  -6  -2 2876.84  206.44
  -3   6   2 2862.63  129.13
   3  -6  -1  461.91   70.68
  -3   6   1  492.94  127.22
   3  -6   0  135.82   55.26
  -3   6   0  122.23   99.41
   3  -6   1  860.09   80.75
  -3   6  -1  914.49   81.06
   3  -6   2 2335.73  113.95
  -3   6  -2 2342.56  114.44
  -3   6  -3   78.98   51.79
  -3   6  -4 1645.71  171.20
  -3   6  -5 1186.51   94.56
  -3   6  -6 7370.38  230.67
  -3   6  -7  164.58   68.24
  -3   6  -8  400.94   29.85
  -3   6  -8  466.69   77.48
  -3   6  -8  457.52   76.76
  -3   6  -9 2446.91  206.51
  -3   6  -9 2120.65  124.61
  -3   6  -9 1973.46   50.20
  -3   6 -10  293.42   19.65
  -3   6 -10  319.44   71.90
  -3   6 -10  344.83   73.01
  -3   6 -11  -21.85   53.46
  -3   6 -11  101.90   54.66
  -3   6 -11   27.80   10.40
  -3   6 -12  475.86  141.25
  -3   6 -12  444.99  146.47
  -3   6 -13 3524.11  179.33
  -3   6 -13 3721.99  175.76
  -3   6 -14 1732.79  128.61
  -3   6 -14 1573.25  134.87
  -3   6 -15  541.09  102.50
  -3   6 -15  545.77  161.44
  -3   6 -16 1465.66  135.55
  -3   6 -16 1587.69  128.47
  -3   6 -17  340.16  149.28
  -3   6 -18   89.90   70.07
  -3   6 -19  -32.50  113.44
  -3   6 -20  324.75   90.83
  -3   6 -21   90.44  135.57
   3  -5 -21  -11.10   73.63
  -3   5  21  -44.08   73.29
  -3   5  21   39.39   72.66
   3  -5 -20   91.28   85.05
  -3   5  20   41.08  149.12
   3  -5 -19  136.56   76.06
  -3   5  19    1.50   72.30
  -3   5  19   29.66   77.57
   3  -5 -18   15.94   65.26
  -3   5  18  -50.15   67.28
  -3   5  18   -5.42   62.10
   3  -5 -17   34.29   60.22
  -3   5  17  -61.74   62.73
  -3   5  17   29.10   54.61
   3  -5 -16  948.05  119.09
  -3   5  16  972.18  108.58
   3  -5 -15    6.26  122.94
  -3   5  15   62.35   65.60
   3  -5 -14 6881.86  274.63
  -3   5  14 6595.37  403.85
   3  -5 -13   33.41   74.04
  -3   5  13   57.78   72.14
   3  -5 -12 5711.80  260.01
  -3   5  12 5274.87  251.05
   3  -5 -1126320.96 1013.12
  -3   5  1126029.63  799.94
   3  -5 -10 7108.23  251.07
  -3   5  10 7129.11  251.82
   3  -5  -9  138.76   69.76
  -3   5   9  230.51   68.52
   3  -5  -8  216.89  116.20
  -3   5   8  196.93  114.48
   3  -5  -7 1754.92  107.96
  -3   5   7 1726.30  107.34
   3  -5  -6    7.34   47.73
  -3   5   6   53.94   48.79
   3  -5  -5  600.36   72.66
  -3   5   5  584.46   74.30
   3  -5  -420242.63  489.11
  -3   5   420454.32  495.13
   3  -5  -3   69.22   49.95
  -3   5   3  102.93   51.12
   3  -5  -2  890.68  136.03
  -3   5   2 1005.62  136.65
   3  -5  -1  459.90  113.83
  -3   5   1  532.39  115.57
   3  -5   0  506.14   64.25
  -3   5   0  626.47  114.32
   3  -5   1  130.15   45.43
  -3   5  -1   43.16   46.76
   3  -5   2   69.72   46.44
  -3   5  -2  141.02   46.75
   3  -5   3 1684.09   87.06
  -3   5  -3 1472.28   85.97
  -3   5  -4  214.58   52.35
  -3   5  -5  -15.67   70.64
  -3   5  -6 2182.43  104.75
  -3   5  -7   18.28   42.42
  -3   5  -8  254.41  102.19
  -3   5  -8  273.22   59.27
  -3   5  -8  218.74   27.67
  -3   5  -9  380.50  109.98
  -3   5  -9  348.42   65.47
  -3   5  -9  300.99   28.13
  -3   5 -10 1149.92  141.98
  -3   5 -10  903.81   23.86
  -3   5 -10  960.66  150.62
  -3   5 -11  439.94   67.16
  -3   5 -11  398.08   70.32
  -3   5 -11  310.39   25.76
  -3   5 -12 1240.69   98.15
  -3   5 -12 1269.22  104.11
  -3   5 -13  -60.95   94.62
  -3   5 -14   16.01   49.23
  -3   5 -15  820.42   93.30
  -3   5 -16  162.70  117.90
  -3   5 -17  334.56   78.65
  -3   5 -18  -41.71  105.11
  -3   5 -19   83.86   67.44
  -3   5 -20  -43.76  110.19
  -3   5 -21  -13.71   59.90
  -3   5 -22   86.81  128.68
   3  -4 -22  965.35  139.77
  -3   4  22 1030.83  132.60
  -3   4  22  890.59  142.45
   3  -4 -21  -24.00   68.45
  -3   4  21   -5.31   63.69
  -3   4  21   10.00   63.39
   3  -4 -20    1.34   77.98
  -3   4  20  116.53   75.22
  -3   4  20   51.10   71.02
   3  -4 -19    3.39   74.51
  -3   4  19   48.36   71.65
  -3   4  19   96.68   66.68
   3  -4 -18  367.19  100.49
  -3   4  18  485.88   96.91
  -3   4  18  406.28   93.46
   3  -4 -17   50.38   71.87
  -3   4  17   82.54   68.48
   3  -4 -16  429.40   99.20
  -3   4  16  652.69   94.03
   3  -4 -15  255.08  160.51
  -3   4  15  301.79   84.80
   3  -4 -14 9913.39  556.56
  -3   4  14 9914.94  362.22
   3  -4 -13 -192.54   88.59
  -3   4  13  -40.94   83.69
   3  -4 -1244648.81 1427.25
  -3   4  1244415.38 1402.18
   3  -4 -1111121.64  392.08
  -3   4  1111365.41  561.71
   3  -4 -10 3532.03  280.83
  -3   4  10 3588.81  174.32
   3  -4  -9 1821.46  117.86
  -3   4   9 1968.00  114.79
   3  -4  -8 6955.31  215.19
  -3   4   8 7251.32  218.02
   3  -4  -7 1932.22  104.71
  -3   4   7 1990.96  174.44
   3  -4  -6 1756.79  164.72
  -3   4   6 1739.41   97.06
   3  -4  -5 2437.79  109.53
  -3   4   5 2349.93  107.88
   3  -4  -4  357.22   61.14
  -3   4   4  340.73   60.19
   3  -4  -3 6144.56  182.22
  -3   4   3 6324.41  182.00
   3  -4  -212670.07  423.06
  -3   4   212741.23  312.94
   3  -4  -122469.46  646.94
  -3   4   121676.42  509.72
   3  -4   0  923.47   70.09
  -3   4   0  984.79   75.65
   3  -4   1 2135.35   91.74
  -3   4  -1 2065.62   91.64
   3  -4   2  800.67   63.24
  -3   4  -2  706.25   64.02
   3  -4   3 1167.69   72.04
  -3   4  -3 1069.69   71.43
  -3   4  -4 2356.15   94.39
  -3   4  -5  -22.75   35.85
  -3   4  -6  159.46   46.13
  -3   4  -7  151.74   81.56
  -3   4  -7  128.94   28.91
  -3   4  -8  427.07   56.58
  -3   4  -8  362.69   20.16
  -3   4  -8  382.02   57.49
  -3   4  -9   22.39   40.01
  -3   4  -9   45.40   38.51
  -3   4  -9   12.67   12.57
  -3   4 -10 1656.54   92.00
  -3   4 -10 1734.81   96.62
  -3   4 -10 1532.14   37.72
  -3   4 -11   37.86   24.29
  -3   4 -11   46.49   79.19
  -3   4 -12   66.96   26.06
  -3   4 -12  115.08   86.09
  -3   4 -13 2020.47  110.15
  -3   4 -14  266.68   63.26
  -3   4 -15 1434.89  100.32
  -3   4 -16  358.07   73.37
  -3   4 -17  406.63  133.25
  -3   4 -18   19.92   53.28
  -3   4 -19   12.21   92.28
  -3   4 -20  -28.43   57.53
  -3   4 -21   61.57  109.33
  -3   4 -22  123.04   71.38
   3  -3 -22   -5.32  140.45
  -3   3  22   92.41   68.60
  -3   3  22    2.60   72.97
   3  -3 -21  -52.71   61.56
  -3   3  21   81.49   93.60
  -3   3  21   42.25   97.40
   3  -3 -20  165.77   84.35
  -3   3  20   95.43   75.62
  -3   3  20  107.35   76.76
   3  -3 -19  300.18   93.86
  -3   3  19  228.31  147.04
  -3   3  19  277.80   85.15
   3  -3 -18  661.37  102.38
  -3   3  18  636.61   93.06
  -3   3  18  211.67   90.51
   3  -3 -17  250.83   86.60
  -3   3  17  330.68  139.86
   3  -3 -16  323.42   87.63
  -3   3  16  302.16   85.28
   3  -3 -15  128.58   75.03
  -3   3  15   74.31  134.34
   3  -3 -14 8719.41  496.21
  -3   3  14 8799.09  325.50
   3  -3 -13 2767.10  289.00
  -3   3  13 2860.76  284.39
   3  -3 -12 2089.98  151.82
  -3   3  12 2128.48  144.47
   3  -3 -11  846.67   97.19
  -3   3  11  699.49  100.33
   3  -3 -10  376.49   73.87
  -3   3  10  457.29   73.25
   3  -3  -9 1036.85  147.25
  -3   3   9 1000.11   84.98
   3  -3  -8 4792.35  160.93
  -3   3   8 4931.80  158.22
   3  -3  -7  841.97  132.38
  -3   3   7  982.21  130.20
   3  -3  -6  407.61   59.96
  -3   3   6  356.20  104.52
   3  -3  -5 9627.68  247.02
  -3   3   5 9281.13  234.27
   3  -3  -436166.70 1045.69
  -3   3   435561.38  860.65
   3  -3  -329493.01  863.65
  -3   3   328404.89  862.64
   3  -3  -262998.53 1908.25
  -3   3   263189.50 1929.31
   3  -3  -153447.23 1526.65
  -3   3   152936.78 1355.42
   3  -3   0 2424.52  103.02
  -3   3   0 2586.28  106.46
   3  -3   1 3762.82  116.49
  -3   3  -1 3815.41  118.01
   3  -3   2 3275.62  163.59
  -3   3  -2 3305.69  170.36
   3  -3   3 3780.22  113.10
  -3   3  -3 3650.94  178.57
  -3   3  -4 4645.61  199.89
  -3   3  -5  106.65   74.35
  -3   3  -616984.27  484.52
  -3   3  -7  921.20   71.09
  -3   3  -7 1143.89   56.47
  -3   3  -8   36.03   29.91
  -3   3  -8   92.66   40.18
  -3   3  -8    6.43   66.75
  -3   3  -9 3026.21  167.07
  -3   3  -9 2889.46   85.66
  -3   3 -10  149.19   80.53
  -3   3 -10  174.20   20.26
  -3   3 -11  842.40   52.75
  -3   3 -11  832.85   68.46
  -3   3 -12    2.34   15.18
  -3   3 -12   16.59   35.96
  -3   3 -13  419.66   61.37
  -3   3 -13  385.78   26.95
  -3   3 -14 1232.76  146.23
  -3   3 -15  108.11   53.44
  -3   3 -16  919.38  149.25
  -3   3 -17  -52.46   53.51
  -3   3 -18 2056.81  127.66
  -3   3 -19  334.01   73.97
  -3   3 -20 1492.79  119.32
  -3   3 -21  164.74   67.68
  -3   3 -22  -38.21   61.31
  -3   3 -23  -11.46   57.39
   3  -2 -23  -41.15  133.82
  -3   2  23 -143.52  103.39
  -3   2  23   41.49   67.56
   3  -2 -22  166.56  143.02
  -3   2  22   57.22   66.13
  -3   2  22   17.69  131.61
   3  -2 -21   23.64  147.88
  -3   2  21  253.95  122.08
  -3   2  21   98.10   79.33
   3  -2 -20   14.63   64.21
  -3   2  20   -1.38   60.29
  -3   2  20    6.93   54.89
   3  -2 -19   24.64   69.98
  -3   2  19   36.87   64.06
  -3   2  19   48.53   59.98
   3  -2 -18  150.86   68.69
  -3   2  18   36.85   64.17
  -3   2  18  -54.38   59.45
   3  -2 -17   57.88   67.36
  -3   2  17   19.57  111.96
   3  -2 -16   36.10   66.95
  -3   2  16  100.87   63.24
   3  -2 -15   22.90   58.30
  -3   2  15    6.44  102.41
   3  -2 -14  518.54   87.16
  -3   2  14  439.09   87.96
   3  -2 -13  491.10   83.17
  -3   2  13  432.87  143.98
   3  -2 -12 4541.22  287.53
  -3   2  12 4914.16  182.32
   3  -2 -11 1988.33  192.44
  -3   2  11 1961.36  114.13
   3  -2 -10 3480.07  141.28
  -3   2  10 3590.84  138.98
   3  -2  -9  233.38   59.85
  -3   2   9  289.56   57.82
   3  -2  -8 4183.66  220.50
  -3   2   8 4096.23  138.01
   3  -2  -7   79.04   46.68
  -3   2   7   76.99   80.47
   3  -2  -6 1558.00  146.90
  -3   2   6 1582.33   85.45
   3  -2  -5 8803.92  220.05
  -3   2   5 8821.33  219.45
   3  -2  -466718.95 1797.07
  -3   2   466234.39 1766.58
   3  -2  -3  547.71   62.29
  -3   2   3  513.72   61.85
   3  -2  -2 4312.32  127.67
  -3   2   2 4418.98  203.74
   3  -2  -1 1121.10   68.84
  -3   2   1 1242.95   73.08
   3  -2   0   26.52   34.17
  -3   2   0   31.99   35.62
   3  -2   1 8676.46  196.10
  -3   2  -1 9096.41  205.59
   3  -2   2 1179.15   63.91
  -3   2  -2 1157.86   66.27
   3  -2   332341.97  833.98
  -3   2  -333530.46  749.33
  -3   2  -4  349.46   47.54
  -3   2  -5 8073.47  184.49
  -3   2  -668646.93 1852.50
  -3   2  -669116.21 1874.14
  -3   2  -776565.74 2129.33
  -3   2  -774614.23 2090.78
  -3   2  -774378.22 2100.75
  -3   2  -8 7274.40  191.21
  -3   2  -8 7396.86  185.23
  -3   2  -915014.55  417.70
  -3   2  -914259.74  275.80
  -3   2 -10 4534.25  129.20
  -3   2 -10 4345.21  126.33
  -3   2 -11  172.73   43.90
  -3   2 -11  205.81   43.25
  -3   2 -12 5257.51  112.76
  -3   2 -12 5617.77  159.11
  -3   2 -13  450.76  101.19
  -3   2 -13  406.78   32.53
  -3   2 -14    5.90   37.06
   3  -2  15   17.30   22.81
  -3   2 -15    3.79   42.90
   3  -2  16 1677.23   62.33
  -3   2 -16 1635.18  190.61
   3  -2  17 1118.07   56.16
  -3   2 -17 1240.65  105.78
   3  -2  18   -6.40   23.99
  -3   2 -18   43.10   85.97
   3  -2  19 1398.20   62.37
  -3   2 -19 1511.53  113.93
   3  -2  20 1158.37   57.15
  -3   2 -20 1189.56  172.47
   3  -2  21  133.84   32.13
  -3   2 -21  163.07   68.29
   3  -2  22  138.61   32.44
  -3   2 -22  -13.95  118.25
   3  -2  23   25.12   26.16
  -3   2 -23    5.95   55.97
   3  -1 -23   52.45   85.80
  -3   1  23   78.45  108.05
  -3   1  23  101.97  137.05
   3  -1 -22   30.60  123.40
  -3   1  22   -6.72   65.24
  -3   1  22  -25.06   52.99
   3  -1 -21   29.47  134.98
  -3   1  21   24.35   70.74
  -3   1  21   62.87   57.72
   3  -1 -20  121.49  140.24
  -3   1  20  130.34  133.05
  -3   1  20   66.75   61.20
   3  -1 -19   15.08   63.15
  -3   1  19  -43.74   58.61
  -3   1  19    8.38   50.02
   3  -1 -18  530.64   93.44
  -3   1  18  639.85  153.94
  -3   1  18   29.70   76.03
   3  -1 -17  704.89  108.81
  -3   1  17  731.52  102.40
   3  -1 -16  151.92   71.91
  -3   1  16   80.87   66.88
   3  -1 -15  466.10   86.53
  -3   1  15  345.46  141.16
   3  -1 -14  107.98   62.12
  -3   1  14   42.24   59.27
   3  -1 -13  436.97   81.51
  -3   1  13  590.78  134.67
   3  -1 -12 1925.27  116.57
  -3   1  12 1932.96  116.79
   3  -1 -11 1364.44   96.48
  -3   1  11 1341.82  159.11
   3  -1 -10    5.22   45.75
  -3   1  10   51.75   43.02
   3  -1  -9  432.97  107.48
  -3   1   9  432.81   61.46
   3  -1  -8 2787.26  113.26
  -3   1   8 2903.70  111.93
   3  -1  -7 4260.90  135.67
  -3   1   7 4353.88  134.94
   3  -1  -6   13.51   38.67
  -3   1   6   37.60   37.76
   3  -1  -5 3661.49  120.53
  -3   1   5 3762.29  120.09
   3  -1  -4 2225.73   91.63
  -3   1   4 2332.89   94.95
   3  -1  -3  545.17   56.77
  -3   1   3  633.31   58.77
   3  -1  -2 5821.18  146.00
  -3   1   2 6092.47  153.40
   3  -1  -1 3452.34  162.49
  -3   1   1 3514.43  169.91
   3  -1   0   87.39   35.93
  -3   1   0  100.17   38.45
   3  -1   1   16.30   30.39
  -3   1  -1   57.81   32.35
   3  -1   2  977.70   54.90
  -3   1  -2 1005.79   57.68
   3  -1   3 5431.86  182.66
  -3   1  -3 5298.60  123.88
  -3   1  -410279.25  276.49
  -3   1  -531860.59  678.08
  -3   1  -533201.62  730.23
  -3   1  -6120490.0 3685.39
  -3   1  -6120460.3 3631.16
  -3   1  -6110152.2 3327.78
  -3   1  -710710.12  255.33
  -3   1  -710216.53  210.30
  -3   1  -8 8073.94  224.69
  -3   1  -8 7709.48  149.21
  -3   1  -919943.50  508.45
  -3   1  -920756.90  477.62
   3  -1  10   93.89   24.89
  -3   1 -10  102.24   24.06
  -3   1 -10   43.97   58.20
   3  -1  11  548.57   60.36
  -3   1 -11  526.58   33.75
  -3   1 -11  481.08   48.60
   3  -1  12 2812.67   76.39
  -3   1 -12 2961.70   99.82
  -3   1 -12 2822.97   73.48
   3  -1  13 2900.31   81.43
  -3   1 -13 2860.30   79.95
  -3   1 -13 2972.95  107.91
   3  -1  14  862.96   48.79
  -3   1 -14  901.89  121.52
   3  -1  1520318.59  579.79
  -3   1 -1520900.18  568.60
   3  -1  1636699.60 1138.86
  -3   1 -1637657.83 1328.56
   3  -1  1746574.08 1505.48
   3  -1  1741777.51 1304.54
  -3   1 -1748083.44 1542.20
   3  -1  1810355.74  374.65
   3  -1  1810083.06  332.48
  -3   1 -1811217.87  512.57
   3  -1  1910291.00  354.66
   3  -1  19 8471.57  305.79
  -3   1 -1911639.81  377.46
   3  -1  20   55.59   59.61
   3  -1  20   36.72   51.62
  -3   1 -20   55.98  101.59
   3  -1  21  229.99   63.63
   3  -1  21  -37.47   56.50
  -3   1 -21  161.05   62.46
   3  -1  22  346.96   45.61
   3  -1  22   -1.52   66.95
  -3   1 -22  595.09   75.79
   3  -1  23   56.32   33.43
  -3   1 -23    3.56  102.90
   3  -1  24   92.30   35.00
  -3   1 -24  -13.52   63.12
   3   0 -23  319.51  121.19
  -3   0  23  605.68   79.57
  -3   0  23  421.58  112.06
   3   0 -22  -20.30   83.31
  -3   0  22   79.46   78.54
  -3   0  22   89.14   54.68
   3   0 -21  115.79  151.17
  -3   0  21   63.05  141.46
  -3   0  21  126.45   59.13
   3   0 -20  582.13  186.66
  -3   0  20  547.99  103.91
  -3   0  20  479.44  134.27
   3   0 -19  160.84   80.25
  -3   0  19  127.32   76.05
  -3   0  19  126.02   58.14
   3   0 -18  294.16   82.29
  -3   0  18  344.80  138.26
  -3   0  18   58.08   60.67
   3   0 -17  467.73   96.16
  -3   0  17  404.88   93.97
   3   0 -16  195.46   77.16
  -3   0  16  125.52   74.50
   3   0 -15   -3.65   52.68
  -3   0  15  -17.75   89.98
   3   0 -14 1624.34  116.49
  -3   0  14 1510.62  113.03
   3   0 -13  536.59   80.92
  -3   0  13  527.85  136.98
   3   0 -12  324.43   69.61
  -3   0  12  340.45   67.10
   3   0 -11   85.02   53.09
  -3   0  11   85.07   50.93
   3   0 -10 7186.30  214.92
  -3   0  10 7632.16  218.56
   3   0  -9 1537.95   91.21
  -3   0   9 1504.01   89.74
   3   0  -8 7170.16  196.31
  -3   0   8 7213.17  191.96
   3   0  -7 1863.62  149.03
  -3   0   7 1732.29   88.19
   3   0  -6   68.22   40.43
  -3   0   6   49.06   40.36
   3   0  -5 4207.24  129.73
  -3   0   5 4293.69  126.19
   3   0  -4  624.73   58.80
  -3   0   4  729.97   59.81
   3   0  -311897.79  256.95
  -3   0   312146.47  262.80
   3   0  -2  283.98   44.40
  -3   0   2  325.66   46.45
   3   0  -1  105.79   37.48
  -3   0   1   -5.50   68.85
   3   0   0  418.07   47.24
  -3   0   0  430.33   47.07
   3   0   1 6646.42  143.40
  -3   0  -1 7205.24  216.63
   3   0   227723.38  634.13
  -3   0  -226485.70  535.97
   3   0   318664.93  424.33
  -3   0  -319346.66  416.41
  -3   0  -440433.12  859.10
  -3   0  -440193.41  903.13
  -3   0  -523589.71  459.90
  -3   0  -522742.12  543.03
  -3   0  -610530.25  200.19
  -3   0  -610603.95  236.18
  -3   0  -7 1222.69   43.58
  -3   0  -7 1092.47   76.20
   3   0   8 1792.19   93.31
  -3   0  -8 1686.80   51.60
  -3   0  -8 1768.65   55.61
   3   0   9  327.28   34.37
  -3   0  -9  367.35   32.82
  -3   0  -9  361.88   31.88
   3   0  10 2156.21   98.70
   3   0  10 1742.62   61.26
  -3   0 -10 2181.69   62.96
  -3   0 -10 2294.61   66.01
   3   0  11  354.61   34.58
   3   0  11  291.38   35.93
  -3   0 -11  324.27   35.26
  -3   0 -11  344.38   38.51
   3   0  12  101.37   30.30
   3   0  12   98.78   31.87
  -3   0 -12  106.76   60.57
  -3   0 -12  131.34   30.31
   3   0  13 6428.59  209.42
   3   0  13 6513.36  223.66
  -3   0 -13 6648.20  169.85
  -3   0 -13 6555.86  157.52
   3   0  14 3794.02  173.87
   3   0  14 3826.36  165.87
  -3   0 -14 3927.69  189.90
   3   0  1512594.71  415.84
   3   0  1512610.28  304.70
  -3   0 -1512594.80  337.28
   3   0  1632953.93  887.85
   3   0  1632805.46 1078.46
  -3   0 -1633613.68  943.45
   3   0  17 7587.78  212.75
   3   0  17 7566.73  335.72
  -3   0 -17 8164.12  263.79
   3   0  18   17.00   80.23
   3   0  18   46.59   36.72
  -3   0 -18   37.50   90.03
   3   0  19 3695.57  200.45
   3   0  19 3991.78  244.66
  -3   0 -19 3867.78  167.82
   3   0  20 1178.52  126.00
   3   0  20 1190.81  153.71
  -3   0 -20 1186.33  166.14
   3   0  21   43.33   70.70
   3   0  21   97.29   52.70
  -3   0 -21  106.29   57.42
   3   0  22  718.20   64.21
   3   0  22  708.95   81.56
  -3   0 -22  921.25   90.25
   3   0  23  110.29   39.32
   3   0  23    1.94   45.29
  -3   0 -23   17.74  100.99
   3   0  24  -31.02   33.51
   3   0  24    0.60   23.27
  -3   0 -24   11.27   50.72
   3   1 -23  -22.35   74.03
  -3  -1  23    2.78   44.07
  -3  -1  23  -27.78   71.10
   3   1 -22   21.61   81.19
  -3  -1  22    7.06  133.96
  -3  -1  22   68.27   83.65
   3   1 -21  369.33  109.92
  -3  -1  21  515.30  106.91
  -3  -1  21  513.19   70.73
   3   1 -20   13.69  123.61
  -3  -1  20   32.33   66.90
  -3  -1  20  -94.04   75.13
   3   1 -19  119.05  154.46
  -3  -1  19  229.63   84.24
  -3  -1  19  263.25   58.44
   3   1 -18   63.18   67.71
  -3  -1  18   43.86   43.80
  -3  -1  18 -113.46  112.73
   3   1 -17  -22.78   62.20
  -3  -1  17  -19.96   60.74
   3   1 -16 1301.00  121.15
  -3  -1  16 1202.98  112.50
   3   1 -15 1055.75  107.43
  -3  -1  15 1157.53  181.15
   3   1 -14  267.99   75.41
  -3  -1  14  313.58   74.84
   3   1 -13 1761.69  195.75
  -3  -1  13 1751.20  115.60
   3   1 -12 2856.85  223.48
  -3  -1  12 2975.52  216.16
   3   1 -11  242.99  104.73
  -3  -1  11  182.44   56.64
   3   1 -10 1525.09   95.14
  -3  -1  10 1576.43   91.46
   3   1  -9  -49.99   41.25
  -3  -1   9   24.65   38.79
   3   1  -844581.38 1140.59
  -3  -1   844998.09 1148.00
   3   1  -720560.74  622.11
  -3  -1   719900.86  600.25
   3   1  -619317.29  571.73
  -3  -1   619516.57  453.38
   3   1  -567042.99 1792.50
  -3  -1   568251.16 1951.65
   3   1  -4  773.67   62.78
  -3  -1   4  868.91   65.71
   3   1  -323066.32  501.48
  -3  -1   323726.80  509.80
   3   1  -2  137.09   44.53
  -3  -1   2  170.77   44.59
   3   1  -148832.91 1141.07
  -3  -1   148442.11 1137.30
   3   1   013844.47  264.01
  -3  -1   014325.67  270.80
   3   1   1 1203.48   44.98
  -3  -1  -1 1245.86   46.05
   3   1   2 1097.97   63.74
  -3  -1  -2 1080.10   62.24
  -3  -1  -3 5361.12  120.60
  -3  -1  -3 4756.00  139.37
  -3  -1  -4 1351.52   61.88
  -3  -1  -4 1200.67  116.03
   3   1   5  442.51   45.75
  -3  -1  -5  435.28   48.98
  -3  -1  -5  440.73   25.06
   3   1   6 4901.30  177.73
  -3  -1  -6 4904.45  122.46
  -3  -1  -6 4889.59   88.92
   3   1   7 6402.22  203.67
  -3  -1  -7 6420.59  157.97
  -3  -1  -7 6585.29  212.31
   3   1   8   48.89   28.50
   3   1   8    4.47   36.22
  -3  -1  -8   55.82   30.22
  -3  -1  -8   51.73   35.71
   3   1   9 1452.11   99.78
   3   1   9 1470.07   47.73
  -3  -1  -9 1528.86   62.53
  -3  -1  -9 1483.12   73.81
   3   1  10 3068.27   73.61
   3   1  10 2972.80   87.44
  -3  -1 -10 3169.63   75.32
  -3  -1 -10 3139.72   89.98
   3   1  11 2152.92   98.17
   3   1  11 2170.81   75.02
  -3  -1 -11 2246.12   66.49
  -3  -1 -11 2156.65  119.70
   3   1  12 4402.96  170.02
   3   1  12 4262.50  104.82
  -3  -1 -12 4468.08  109.97
  -3  -1 -12 4373.43  115.04
   3   1  13  322.78   36.67
   3   1  13  241.30   76.22
  -3  -1 -13  307.55   44.53
  -3  -1 -13  313.39   41.94
   3   1  14 3998.89  113.84
   3   1  14 4123.93  183.31
  -3  -1 -14 4205.76  124.46
   3   1  15  877.54   57.13
   3   1  15  800.48   61.99
  -3  -1 -15  827.52  109.13
   3   1  16 8292.67  221.82
   3   1  16 8224.04  213.74
  -3  -1 -16 8328.72  231.44
   3   1  17  127.64   40.42
   3   1  17   36.04   76.21
  -3  -1 -17  109.77   81.50
   3   1  18 1636.04  132.08
   3   1  18 1451.27  137.28
  -3  -1 -18 1576.31   91.58
   3   1  19  -35.54   63.28
   3   1  19   81.47   62.61
  -3  -1 -19    5.53   41.19
   3   1  20   -4.70   35.68
   3   1  20   59.58   61.71
  -3  -1 -20  -98.43   71.86
   3   1  21  108.22   46.40
   3   1  21   14.39   45.20
  -3  -1 -21  131.12   51.63
   3   1  22   69.60   46.07
   3   1  22  132.84   47.71
  -3  -1 -22   62.09   55.54
   3   1  23   -3.98   33.90
   3   1  23   72.54   41.00
  -3  -1 -23    8.13   87.37
   3   1  24   64.65   65.65
   3   1  24   -1.92   35.38
  -3  -1 -24  -12.97   47.10
   3   2 -23   54.16  150.70
  -3  -2  23   -7.57  147.46
  -3  -2  23   58.23   76.30
   3   2 -22  232.54   97.91
  -3  -2  22   56.15   95.75
  -3  -2  22  210.63   53.07
   3   2 -21  162.95   81.46
  -3  -2  21  -31.08   78.50
  -3  -2  21   60.86   75.05
   3   2 -20  516.27  100.20
  -3  -2  20   18.06   96.05
  -3  -2  20  315.32   54.45
   3   2 -19  -65.08  110.56
  -3  -2  19   29.20  104.38
  -3  -2  19   18.49   60.58
   3   2 -18   53.15   66.80
  -3  -2  18   15.09   37.63
  -3  -2  18   16.21   62.10
   3   2 -17  110.79   65.90
  -3  -2  17  144.85   62.92
  -3  -2  17  -28.90   37.93
   3   2 -16  283.01   80.39
  -3  -2  16  210.14   74.71
   3   2 -15   64.92   65.15
  -3  -2  15   81.90  107.73
   3   2 -14  789.96  166.81
  -3  -2  14  781.65   91.99
   3   2 -13 4949.91  197.29
  -3  -2  13 4852.33  186.98
   3   2 -12 1255.47  102.64
  -3  -2  12 1225.48   99.01
   3   2 -11 3224.27  139.19
  -3  -2  11 3324.20  216.06
   3   2 -10   40.62   48.05
  -3  -2  10   81.76   47.33
   3   2  -9 5318.56  170.21
  -3  -2   9 5277.92  164.18
   3   2  -822898.64  558.05
  -3  -2   823291.39  563.87
   3   2  -774076.33 2286.43
  -3  -2   772338.92 2207.23
   3   2  -622018.57  630.24
  -3  -2   621145.80  497.06
   3   2  -519731.96  548.24
  -3  -2   519681.80  439.51
   3   2  -4 5974.94  232.53
  -3  -2   4 6187.57  237.34
   3   2  -3 4006.47  115.91
  -3  -2   3 4081.43  114.62
   3   2  -2 1978.17   78.59
  -3  -2   2 2101.72   77.91
   3   2  -1  612.61   47.79
  -3  -2   1  893.46   84.07
   3   2   011316.64  208.49
  -3  -2   011484.83  208.89
   3   2   186065.05 2260.78
  -3  -2  -183411.10 2199.16
   3   2   2265705.110040.08
  -3  -2  -2289741.811670.44
  -3  -2  -2274736.010394.27
  -3  -2  -3385142.317540.54
  -3  -2  -3484960.322083.77
  -3  -2  -3616354.129698.41
   3   2   4157498.0 5328.80
  -3  -2  -4158163.6 5133.67
  -3  -2  -4143977.8 4348.11
  -3  -2  -4144515.4 4410.32
   3   2   5  643.57   97.22
  -3  -2  -5  574.24   60.27
  -3  -2  -5  607.13   31.81
   3   2   6  214.86   42.04
   3   2   6  235.90   30.77
  -3  -2  -6  305.63   30.98
  -3  -2  -6  289.56   83.27
   3   2   741354.72  945.94
   3   2   740921.11  970.10
  -3  -2  -743653.11 1139.36
  -3  -2  -741343.24  890.63
   3   2   8 3733.11   73.77
   3   2   8 3601.43  104.28
  -3  -2  -8 3704.75  171.25
  -3  -2  -8 3867.85   74.78
   3   2   9  498.55   48.37
   3   2   9  484.23   29.52
  -3  -2  -9  483.39   86.57
  -3  -2  -9  460.94   48.66
   3   2  10  542.90   51.58
   3   2  10  650.58   57.34
  -3  -2 -10  611.99   34.71
  -3  -2 -10  572.49   52.13
   3   2  11 1031.88   61.93
   3   2  11 1144.03   73.95
  -3  -2 -11 1041.45   46.55
  -3  -2 -11  940.11   62.87
   3   2  12   11.22   33.77
   3   2  12    3.11   42.39
  -3  -2 -12   13.61   61.81
  -3  -2 -12  106.21   46.35
   3   2  13  199.40   80.67
   3   2  13  253.37   58.97
  -3  -2 -13  209.07   37.12
  -3  -2 -13  235.01   45.93
   3   2  14 1226.93  121.83
   3   2  14 1139.74   56.80
  -3  -2 -14 1159.57   61.40
   3   2  15  202.58   82.48
   3   2  15  147.15   37.14
  -3  -2 -15  228.66   41.27
   3   2  16 3007.04  179.02
   3   2  16 2850.40   96.68
  -3  -2 -16 2934.95  164.32
   3   2  17  511.51   52.22
   3   2  17  577.11  109.32
  -3  -2 -17  547.61   58.28
   3   2  18   91.22   43.94
   3   2  18   47.29   61.86
  -3  -2 -18    9.85   40.84
   3   2  19  135.50   75.10
   3   2  19  188.16   52.41
  -3  -2 -19  169.53   87.00
   3   2  20   20.78   34.53
   3   2  20   -8.44   40.88
  -3  -2 -20   42.50   69.19
   3   2  21  -39.51   36.72
   3   2  21   22.57   42.40
  -3  -2 -21  -21.71   41.29
   3   2  22  144.80   42.11
   3   2  22  -11.18   48.49
  -3  -2 -22    6.28   48.17
   3   2  23   24.46   67.01
   3   2  23   -0.85   38.73
  -3  -2 -23  -21.63   68.78
   3   2  24    1.85   34.85
   3   2  24   21.13   43.76
  -3  -2 -24   13.76   46.79
   3   3 -23  534.04  121.55
  -3  -3  23  426.03   55.23
  -3  -3  23   46.13  119.80
   3   3 -22   70.24  166.23
  -3  -3  22   10.96   90.10
  -3  -3  22  159.33   71.96
   3   3 -21  252.76  100.56
  -3  -3  21   26.86   98.49
  -3  -3  21  277.72   46.70
   3   3 -20  657.42  114.81
  -3  -3  20   21.55  188.85
  -3  -3  20  553.16   91.70
   3   3 -19  204.37   83.64
  -3  -3  19   -4.16  135.89
  -3  -3  19  107.02   38.99
   3   3 -18  123.05  133.19
  -3  -3  18   11.67   73.18
  -3  -3  18  109.71   37.51
   3   3 -17  370.39   92.63
  -3  -3  17  369.21   47.66
  -3  -3  17  368.39   87.72
   3   3 -16 1547.25  129.29
  -3  -3  16 1532.35  122.48
   3   3 -15  142.13   70.58
  -3  -3  15   73.83  119.25
   3   3 -14 1025.37  179.78
  -3  -3  14  849.57  175.48
   3   3 -13 1853.61  123.17
  -3  -3  13 1751.92  118.90
   3   3 -12  -31.63   48.17
  -3  -3  12   16.98   46.83
   3   3 -11  335.80   69.45
  -3  -3  11  314.98   66.90
   3   3 -10  519.77  119.26
  -3  -3  10  503.70   66.44
   3   3  -9   63.74   45.86
  -3  -3   9    8.99   76.37
   3   3  -8  674.86   69.29
  -3  -3   8  772.93  113.63
   3   3  -7 6766.67  187.68
  -3  -3   7 6818.04  260.68
   3   3  -6 1323.67  130.65
  -3  -3   6 1373.25   74.60
   3   3  -5  945.57   64.91
  -3  -3   5 1011.79   64.12
   3   3  -444776.01 1096.69
  -3  -3   446228.96 1254.74
   3   3  -3278895.911609.19
  -3  -3   3290499.012202.96
   3   3  -262358.18 1711.76
  -3  -3   259810.45 1508.00
   3   3  -1 1866.30  102.76
  -3  -3   1 1799.91  103.71
   3   3   0 1509.41   49.94
  -3  -3   0 1553.32   47.75
   3   3   1 3123.97   58.28
  -3  -3  -1 3228.44   82.83
  -3  -3  -1 3480.78  172.27
  -3  -3  -2 2228.65   98.43
   3   3   3102297.7 2950.73
  -3  -3  -3102982.8 3208.10
   3   3   4147799.7 4541.31
  -3  -3  -4111309.7 3154.60
  -3  -3  -4152266.4 4916.68
   3   3   536449.15  726.37
   3   3   537101.48  856.72
  -3  -3  -535898.91  712.12
  -3  -3  -539049.56  909.47
   3   3   6  233.91   47.11
   3   3   6  253.37   28.18
  -3  -3  -6  260.48   49.95
  -3  -3  -6  246.56   27.46
   3   3   754539.91 1384.97
   3   3   755694.86 1339.62
  -3  -3  -752837.37 1199.87
  -3  -3  -756756.25 1574.09
   3   3   8 1062.69   67.35
   3   3   8 1069.18   34.48
  -3  -3  -8 1017.64   68.90
  -3  -3  -8 1014.48   56.06
   3   3   9  885.76  110.20
   3   3   9  961.74   36.35
  -3  -3  -9 1022.84   37.69
  -3  -3  -9  962.71   66.33
   3   3  10 5710.00  156.25
   3   3  10 6003.32  155.72
  -3  -3 -10 5906.57  120.34
  -3  -3 -10 5793.75  159.09
   3   3  11 7171.78  190.26
   3   3  11 7355.83  194.30
  -3  -3 -11 7213.75  271.94
  -3  -3 -11 7372.45  153.55
   3   3  1233286.41  850.51
   3   3  1232918.23  777.51
  -3  -3 -1234708.40  876.55
  -3  -3 -1233740.72  799.45
   3   3  1325778.24  655.49
   3   3  1325742.04  598.09
  -3  -3 -1325940.41  610.33
   3   3  14 2231.95  105.03
   3   3  14 2208.42   75.44
  -3  -3 -14 2307.26   81.61
   3   3  15   41.82   43.79
  -3  -3 -15   54.48   33.05
   3   3  16  521.96   63.69
   3   3  16  369.54   44.18
  -3  -3 -16  463.48   49.49
   3   3  17   82.86   49.17
   3   3  17   92.84   34.00
  -3  -3 -17   69.21   68.23
   3   3  18    0.32   39.18
   3   3  18   -9.44   27.55
  -3  -3 -18   56.39   55.68
   3   3  19  146.26   54.78
   3   3  19  114.21   68.11
  -3  -3 -19   99.65   45.87
   3   3  20   40.17   84.27
   3   3  20   46.49   35.43
  -3  -3 -20   19.30   40.73
   3   3  21  407.15  128.19
   3   3  21  457.04   57.71
  -3  -3 -21  514.76   64.59
   3   3  22   17.84   64.89
   3   3  22   39.22   50.03
  -3  -3 -22   38.87   79.34
   3   3  23   18.69   48.84
   3   3  23   -0.70   36.13
  -3  -3 -23  111.04   80.05
   3   3  24   -0.28   21.24
   3   3  24  149.66   51.30
  -3  -3 -24   11.12   48.18
   3   4 -23   85.61   88.92
  -3  -4  23  -26.80   86.06
  -3  -4  23   43.30   56.58
   3   4 -22 1884.86  188.01
  -3  -4  22 1982.41  186.37
  -3  -4  22 1722.65   85.22
   3   4 -21   -1.53  130.37
  -3  -4  21  -61.19   72.25
  -3  -4  21   10.76   49.11
   3   4 -20  -61.29   65.34
  -3  -4  20  -38.42  112.09
  -3  -4  20    8.10   25.63
   3   4 -19  345.53   89.45
  -3  -4  19   22.39   87.03
  -3  -4  19  168.40   61.66
   3   4 -18  -55.99   64.22
  -3  -4  18  -26.48   62.20
  -3  -4  18   30.46   26.39
   3   4 -17   62.32  129.67
  -3  -4  17   -8.88   71.19
  -3  -4  17  101.75   31.68
   3   4 -16  302.40   87.59
  -3  -4  16  327.65   83.95
  -3  -4  16  244.58   37.59
   3   4 -15 3798.13  187.10
  -3  -4  15 3707.43  178.17
   3   4 -14   68.96  119.82
  -3  -4  14   -4.01  113.82
   3   4 -13  333.28   84.79
  -3  -4  13  310.99  143.94
   3   4 -12 1707.33  120.17
  -3  -4  12 1649.63  111.02
   3   4 -11 1573.24  178.21
  -3  -4  11 1560.08  101.03
   3   4 -10  693.31   74.46
  -3  -4  10  732.65   74.80
   3   4  -9 2667.98  111.44
  -3  -4   9 2651.88  111.23
   3   4  -8 2149.23  159.15
  -3  -4   8 2209.46   94.42
   3   4  -7  262.62   50.00
  -3  -4   7  271.25   49.38
   3   4  -6 8651.45  214.18
  -3  -4   6 8528.76  207.66
   3   4  -516269.78  462.10
  -3  -4   516306.77  458.86
   3   4  -4114408.2 3532.25
  -3  -4   4112913.4 3466.43
   3   4  -3125988.8 4162.89
  -3  -4   3122638.7 3823.18
   3   4  -225699.21  559.51
  -3  -4   226574.36  573.74
   3   4  -1 8190.43  167.67
  -3  -4   1 8393.94  168.78
  -3  -4   1 8332.95  167.57
   3   4   0  129.11   23.46
  -3  -4   0   52.22   24.21
  -3  -4   0  164.58   56.29
   3   4   1  384.20   42.88
   3   4   1  338.49   41.66
  -3  -4  -1  373.55   42.71
   3   4   2  184.52   29.63
   3   4   2  243.30   39.29
   3   4   2  274.78   33.73
  -3  -4  -2  260.46   42.26
   3   4   3 1675.83   73.09
   3   4   3 1799.89   51.96
  -3  -4  -3 1799.21   78.53
   3   4   4 5954.19  106.68
   3   4   4 5908.03  147.91
  -3  -4  -4 5970.28  104.93
  -3  -4  -4 6106.00  155.02
   3   4   5 2018.14   53.51
   3   4   5 1903.43   85.34
  -3  -4  -5 1952.19   87.03
  -3  -4  -5 1961.99   53.37
   3   4   629362.76  591.80
   3   4   627860.86  636.86
  -3  -4  -627755.48  634.18
  -3  -4  -626598.75  500.48
   3   4   7 2814.30  169.21
   3   4   7 2969.72   57.34
  -3  -4  -7 2746.84  177.43
  -3  -4  -7 2802.55   56.40
   3   4   8 7139.93  190.90
   3   4   8 7671.70  136.93
  -3  -4  -8 7422.39  171.38
  -3  -4  -8 7424.37  193.02
   3   4   9 1411.31   80.44
   3   4   9 1547.17   44.55
  -3  -4  -9 1439.30   83.01
  -3  -4  -9 1601.38   75.84
   3   4  10   44.94   39.92
   3   4  10   46.47   19.72
  -3  -4 -10   53.14   21.47
  -3  -4 -10   90.74   40.28
   3   4  11  545.50  102.47
   3   4  11  474.69   54.45
  -3  -4 -11  452.47   61.21
  -3  -4 -11  486.77   60.77
   3   4  12 1242.98   50.40
   3   4  12 1138.15  141.75
  -3  -4 -12 1298.56   55.67
  -3  -4 -12 1235.17   84.92
   3   4  13 3789.99  215.21
   3   4  13 3474.68   91.59
  -3  -4 -13 3541.24   99.97
   3   4  14 2774.09   81.37
   3   4  14 2954.63  199.83
  -3  -4 -14 2669.30   89.51
   3   4  15  595.66   45.32
   3   4  15  649.97  127.99
  -3  -4 -15  665.88   52.20
   3   4  16  623.89  128.65
   3   4  16  612.82   77.77
  -3  -4 -16  605.97   53.83
   3   4  17  140.25   55.09
   3   4  17  106.33   33.78
  -3  -4 -17  107.98   40.41
   3   4  18   21.57   44.92
   3   4  18  -20.46   27.88
  -3  -4 -18   -1.86   33.56
   3   4  19  697.63   85.28
  -3  -4 -19  763.61   66.60
   3   4  20  335.85   76.76
   3   4  20  413.99   50.48
  -3  -4 -20  360.36   58.62
   3   4  21  834.25   96.26
   3   4  21  769.38   64.51
  -3  -4 -21  787.00  124.29
   3   4  22  578.67  140.39
   3   4  22  317.93   80.62
  -3  -4 -22  410.13  111.36
   3   4  23  754.92  162.68
  -3  -4 -23  662.21   79.85
   3   4  24  283.18   77.03
  -3  -4 -24  241.37   64.17
   3   5 -22 1678.04  183.58
  -3  -5  22 1621.47  302.55
   3   5 -21  795.74  130.92
  -3  -5  21  530.91   71.81
  -3  -5  21   -2.43  220.86
   3   5 -20  -57.70  128.68
  -3  -5  20  -33.18   70.63
  -3  -5  20  -13.01   23.64
   3   5 -19  177.75   96.48
  -3  -5  19   -6.51   93.32
  -3  -5  19  291.17   33.05
   3   5 -18  -34.56   63.61
  -3  -5  18   27.53   61.13
  -3  -5  18   -8.58   36.29
   3   5 -17  236.88  154.61
  -3  -5  17  -11.55   85.48
  -3  -5  17  280.87   30.88
   3   5 -16  518.86  100.89
  -3  -5  16  458.26   94.39
  -3  -5  16  482.25   61.49
   3   5 -15 2053.23  144.38
  -3  -5  15 1917.67  133.08
  -3  -5  15 1715.91   58.31
   3   5 -14 2404.42  267.80
  -3  -5  14 2033.01  256.76
   3   5 -1318751.05  616.01
  -3  -5  1318280.56  810.54
   3   5 -12 9490.02  342.89
  -3  -5  12 9434.25  471.18
   3   5 -11 5442.42  308.49
  -3  -5  11 5665.01  303.32
   3   5 -10 1642.80  100.25
  -3  -5  10 1653.06  167.16
   3   5  -9   52.16   45.17
  -3  -5   9   51.12   44.48
   3   5  -8  573.43   67.21
  -3  -5   8  740.48   64.81
   3   5  -7  617.86   65.10
  -3  -5   7  940.47   64.84
   3   5  -6 3141.19  113.03
  -3  -5   6 3478.42  114.02
   3   5  -5 4624.30  136.21
  -3  -5   5 4811.83  206.12
   3   5  -438701.95  935.04
  -3  -5   439231.92  935.55
   3   5  -311638.57  337.57
  -3  -5   311672.18  211.85
  -3  -5   312005.59  262.64
   3   5  -2  122.20   32.17
  -3  -5   2  140.02   39.89
  -3  -5   2   47.34   33.50
   3   5  -1 2254.37   68.31
  -3  -5   1 2242.65   63.00
   3   5   0 7752.36  149.93
  -3  -5   0 8116.08  165.03
   3   5   115913.13  299.36
   3   5   115802.79  318.20
   3   5   115776.96  346.76
  -3  -5  -115598.74  318.42
   3   5   2 8609.83  189.76
   3   5   2 9257.61  206.94
  -3  -5  -2 8930.91  198.12
   3   5   3   90.26   34.22
   3   5   3  104.07   35.94
  -3  -5  -3   91.55   36.50
   3   5   4 2324.99   86.44
   3   5   4 2383.64   50.01
  -3  -5  -4 2305.13   48.30
  -3  -5  -4 2333.79  142.46
   3   5   5 8359.76  138.56
   3   5   5 8119.63  193.67
  -3  -5  -5 8321.03  202.12
  -3  -5  -5 8428.79  172.71
   3   5   666638.29 1785.49
   3   5   667953.68 1730.35
  -3  -5  -665084.97 1584.34
  -3  -5  -666668.73 1784.32
   3   5   752250.93 1276.43
   3   5   750093.05 1292.74
  -3  -5  -752110.49 1275.46
  -3  -5  -750406.93 1284.00
   3   5   8 4320.68  207.35
   3   5   8 4060.87   82.21
  -3  -5  -8 3868.16  132.71
  -3  -5  -8 4057.77   83.15
   3   5   9 1356.46  135.79
   3   5   9 1395.70   66.64
  -3  -5  -9 1479.44   73.64
  -3  -5  -9 1375.53   81.32
   3   5  10 3837.22  129.98
   3   5  10 3872.97  115.32
  -3  -5 -10 3885.23  125.89
  -3  -5 -10 3840.77  134.86
   3   5  11 1348.86   46.81
   3   5  11 1176.65   82.55
  -3  -5 -11 1176.38   83.61
  -3  -5 -11 1182.63   49.12
   3   5  12  671.14   72.21
   3   5  12  655.31   38.21
  -3  -5 -12  728.92   73.74
   3   5  13    6.77   41.86
   3   5  13    8.43   47.02
  -3  -5 -13   51.33   27.65
   3   5  14 1038.22   50.47
   3   5  14 1020.81   89.99
  -3  -5 -14 1031.46   57.26
   3   5  15  304.21   36.54
   3   5  15  315.70   67.55
  -3  -5 -15  248.21   42.82
   3   5  16   34.15   29.12
   3   5  16   30.20   52.43
  -3  -5 -16   50.93   58.23
   3   5  17 3315.76  154.32
   3   5  17 3101.14  147.62
  -3  -5 -17 3106.87  169.74
   3   5  18  -24.11   89.53
   3   5  18   15.18   28.92
  -3  -5 -18   12.77   60.89
   3   5  19  342.12   75.64
   3   5  19  199.29  129.79
  -3  -5 -19  256.95   90.06
   3   5  20  177.75   68.80
  -3  -5 -20   99.81   83.39
   3   5  21  -18.11   31.80
   3   5  21   67.02   54.39
  -3  -5 -21   47.63   67.17
   3   5  22  102.97   54.88
   3   5  22  -10.77   33.65
  -3  -5 -22  -22.96   39.99
   3   5  23  105.58   56.25
   3   5  23    0.70   17.93
  -3  -5 -23  -27.01   41.89
   3   5  24   53.21  111.18
   3   5  24    7.56   32.81
  -3  -5 -24   57.00   47.22
   3   6 -22  -40.07  150.05
  -3  -6  22   -0.94  146.69
   3   6 -21  214.50   95.24
  -3  -6  21  -36.66   91.02
   3   6 -20   40.93   73.35
  -3  -6  20  -19.30   70.91
   3   6 -19  -49.45  123.28
  -3  -6  19   16.86   30.21
  -3  -6  19   -3.04   67.39
   3   6 -18  103.90   79.87
  -3  -6  18   57.04   20.08
  -3  -6  18    4.71   74.08
   3   6 -17  103.06   70.59
  -3  -6  17   23.68   18.29
  -3  -6  17   22.70   65.81
   3   6 -16  445.53  171.38
  -3  -6  16  461.51   45.36
  -3  -6  16   20.87   94.54
   3   6 -15  -39.22   57.53
  -3  -6  15    9.07   15.09
  -3  -6  15    7.63   56.39
   3   6 -14   -5.58   63.45
  -3  -6  14   56.98   17.92
  -3  -6  14   36.44   62.83
   3   6 -13 1373.59  229.36
  -3  -6  13 1556.23  124.44
   3   6 -1214951.39  501.09
  -3  -6  1214614.33  457.00
   3   6 -11 9953.53  354.92
  -3  -6  1110211.31  321.47
   3   6 -10  313.65   67.31
  -3  -6  10  269.12   66.49
   3   6  -9 1011.16   84.89
  -3  -6   9 1057.91   83.51
   3   6  -8  459.27   63.51
  -3  -6   8  457.77   62.02
   3   6  -7 3013.06  115.29
  -3  -6   7 2976.56  176.53
   3   6  -613158.53  318.81
  -3  -6   613519.55  321.39
   3   6  -5  252.08   81.33
  -3  -6   5  203.51   16.52
  -3  -6   5  276.05   47.14
   3   6  -4 8244.18  213.42
  -3  -6   4 8310.64  143.69
   3   6  -353069.39 1384.74
  -3  -6   354117.90 1350.98
   3   6  -2  850.59  100.53
  -3  -6   2 1036.28   63.96
   3   6  -1 3233.32  139.80
  -3  -6   1 3291.69   74.63
   3   6   0 8200.96  216.56
   3   6   0 8174.41  173.43
   3   6   0 7820.37  219.02
  -3  -6   0 8142.68  162.87
   3   6   1   32.13   25.90
   3   6   1   40.70   43.76
  -3  -6  -1   40.06   25.67
   3   6   2  829.33   67.15
   3   6   2  852.72   50.06
  -3  -6  -2  825.46   84.21
   3   6   3  548.91   90.31
   3   6   3  664.44   59.50
  -3  -6  -3  737.14   51.67
   3   6   4 9983.47  226.60
   3   6   410313.39  186.00
  -3  -6  -410783.50  235.27
  -3  -6  -410099.92  306.42
   3   6   5 1453.13   43.99
   3   6   5 1431.59   74.94
  -3  -6  -5 1517.85   74.09
  -3  -6  -5 1369.40   75.41
   3   6   615904.86  362.12
   3   6   615649.36  286.90
  -3  -6  -615898.62  295.42
  -3  -6  -615771.63  360.80
   3   6   7 2892.11   62.36
   3   6   7 2582.75  166.00
  -3  -6  -7 2955.21  100.49
  -3  -6  -7 2681.22  105.10
   3   6   8 3322.71  101.88
   3   6   8 3144.50  115.37
  -3  -6  -8 3227.21   73.33
  -3  -6  -8 3215.50  186.66
   3   6   9 1933.35   94.36
   3   6   9 1884.23   53.53
  -3  -6  -9 1915.24   98.30
  -3  -6  -9 1940.82   57.64
   3   6  10 2367.67  107.70
   3   6  10 2295.42   62.26
  -3  -6 -10 2414.52   67.99
  -3  -6 -10 2257.93  106.81
   3   6  11  825.46   78.84
   3   6  11  879.32   40.73
  -3  -6 -11  884.59   46.25
   3   6  12  413.54   35.44
   3   6  12  531.79   69.42
  -3  -6 -12  370.44   69.30
   3   6  13  280.40   34.20
   3   6  13  333.76   65.00
  -3  -6 -13  177.63   37.96
   3   6  14  264.29   34.04
   3   6  14  243.41   68.44
  -3  -6 -14  261.76   40.14
   3   6  15 1108.17   89.29
   3   6  15 1198.53  103.96
  -3  -6 -15 1155.28  104.90
   3   6  16 4487.31  124.75
   3   6  16 5016.99  196.47
  -3  -6 -16 4463.79  137.47
   3   6  17 6565.89  242.74
   3   6  17 5957.19  217.27
  -3  -6 -17 5883.49  176.99
   3   6  18 2800.40  156.61
   3   6  18 2578.88   94.31
  -3  -6 -18 2563.16  108.56
   3   6  19  167.05  131.33
   3   6  19  215.78   68.24
  -3  -6 -19  161.67   47.36
   3   6  20  137.63  133.39
   3   6  20  170.81   41.71
  -3  -6 -20  244.60   50.11
   3   6  21  137.65   66.01
   3   6  21  266.25   81.99
  -3  -6 -21  295.21   53.67
   3   6  22    5.57   60.69
   3   6  22   26.09   18.21
  -3  -6 -22  -37.55   40.54
   3   6  23  331.44   88.92
  -3  -6 -23  256.71   61.29
   3   6  24   29.26   32.43
   3   6  24  -32.75   66.53
  -3  -6 -24   37.43   45.94
   3   7 -21  188.67   99.04
  -3  -7  21   -6.05  100.74
   3   7 -20  198.22  166.24
  -3  -7  20   43.78   93.92
   3   7 -19  307.07   99.07
  -3  -7  19    5.46   97.20
   3   7 -18  162.93   86.23
  -3  -7  18    8.77   85.30
   3   7 -17  -18.58   65.66
  -3  -7  17   12.40   18.85
  -3  -7  17    0.63   66.75
   3   7 -16  356.94   92.30
  -3  -7  16  283.76   28.53
  -3  -7  16  389.28   94.36
   3   7 -15  661.13  177.71
  -3  -7  15  547.30   33.73
  -3  -7  15  830.96  104.83
   3   7 -14    4.05   60.74
  -3  -7  14   16.62   10.51
  -3  -7  14   93.29   60.22
   3   7 -13 1414.27  118.05
  -3  -7  13 1221.24  117.57
   3   7 -12   -7.53   56.03
  -3  -7  12   16.33    9.67
  -3  -7  12    5.52   55.51
   3   7 -11  118.53   66.80
  -3  -7  11  123.16   65.37
   3   7 -10    7.69   88.36
  -3  -7  10   17.82   49.44
   3   7  -9  200.82   57.91
  -3  -7   9  157.10   58.56
  -3  -7   9  133.77   16.95
   3   7  -8 1748.70  166.77
  -3  -7   8 1769.92   39.84
   3   7  -7 1390.84   85.55
  -3  -7   7 1330.44   36.14
   3   7  -6 2089.23  155.01
  -3  -7   6 2009.47   49.79
   3   7  -5  279.22   48.07
  -3  -7   5  256.54   25.90
   3   7  -4  837.19   61.22
  -3  -7   4  816.60   40.89
   3   7  -3 6871.90  247.55
  -3  -7   3 7320.12  127.83
   3   7  -2 4680.12  193.00
  -3  -7   2 4918.98   94.26
   3   7  -1  230.82   41.03
   3   7  -1  254.65   42.44
   3   7  -1  309.67   29.39
  -3  -7   1  251.60   47.40
   3   7   0  118.93   26.78
   3   7   0   86.42   32.76
   3   7   0   46.70   32.87
  -3  -7   0   96.21   25.31
   3   7   1 1005.99   85.38
   3   7   1 1047.16   85.29
  -3  -7  -1 1008.66   81.42
   3   7   2  706.03   42.06
   3   7   2  652.14   47.69
  -3  -7  -2  692.12   45.25
   3   7   3  231.38   45.36
   3   7   3  441.44   60.19
  -3  -7  -3  438.62   42.65
   3   7   413747.68  312.68
   3   7   413243.48  370.70
  -3  -7  -413124.55  254.44
  -3  -7  -412835.16  282.80
   3   7   5  170.79   45.45
   3   7   5  247.97   28.45
  -3  -7  -5  288.46   54.13
  -3  -7  -5  240.36   45.52
   3   7   6 6483.94  248.70
   3   7   6 6552.41  128.56
  -3  -7  -6 6358.02  250.46
  -3  -7  -6 6643.82  134.81
   3   7   717576.88  394.76
   3   7   716386.89  393.22
  -3  -7  -717142.87  341.09
  -3  -7  -716293.83  395.16
   3   7   818572.18  367.16
   3   7   817625.48  434.36
  -3  -7  -818051.17  433.60
  -3  -7  -817942.25  365.77
   3   7   9   77.10   49.75
   3   7   9  101.85   44.99
  -3  -7  -9  117.36   29.11
   3   7  10  931.57   72.40
   3   7  10  934.77   82.57
  -3  -7 -10  953.86   49.02
   3   7  11   48.42   25.22
   3   7  11   36.12   50.18
  -3  -7 -11   24.38   27.92
   3   7  12   88.88   28.09
   3   7  12   63.37   56.62
  -3  -7 -12  111.46   56.49
   3   7  13  167.28   54.05
   3   7  13   59.34   63.27
  -3  -7 -13  148.97   36.25
   3   7  14  817.00   80.34
   3   7  14  706.89   95.59
  -3  -7 -14  820.32   93.56
   3   7  15  435.09   43.46
   3   7  15  503.78   83.87
  -3  -7 -15  418.41   50.45
   3   7  16 3278.85  102.38
   3   7  16 3747.50  178.40
  -3  -7 -16 3231.79  117.77
   3   7  17 3885.67  178.07
   3   7  17 4472.25  205.33
  -3  -7 -17 3981.27  211.30
   3   7  18  133.01   36.35
   3   7  18   73.23   75.92
  -3  -7 -18  139.63   77.66
   3   7  19  125.20   64.78
   3   7  19  207.90   76.70
  -3  -7 -19   90.06   44.82
   3   7  20   81.78  133.88
   3   7  20   84.82   36.32
  -3  -7 -20   94.18   44.85
   3   7  21  200.17  167.32
  -3  -7 -21  438.00   61.15
   3   7  22  135.60   59.50
   3   7  22  -15.62   16.29
  -3  -7 -22   44.71   38.30
   3   7  23  528.60  100.65
  -3  -7 -23  332.96   65.46
   3   8 -20  263.55  121.10
   3   8 -19  155.49  183.17
   3   8 -18  276.81  104.49
   3   8 -17  149.11   90.00
   3   8 -16  -35.29  125.33
   3   8 -15  981.74  121.79
   3   8 -14  192.22  144.19
   3   8 -13  369.02   88.93
   3   8 -12  346.96   83.26
   3   8 -11  141.06   67.30
   3   8 -10   -6.38   48.26
   3   8  -9   49.73   53.96
   3   8  -8 4191.11  157.08
  -3  -8   8 3542.48   51.05
   3   8  -7  869.34   78.92
  -3  -8   7  906.57   23.83
   3   8  -6   11.63   37.76
  -3  -8   6    8.07    7.53
   3   8  -5 1017.36   74.01
  -3  -8   5 1017.91   35.80
   3   8  -4  804.34  112.42
  -3  -8   4  861.18   38.95
   3   8  -3   93.96   40.16
  -3  -8   3   97.05   16.09
   3   8  -2  313.54   45.81
   3   8  -2  294.85   46.75
  -3  -8   2  299.06   23.08
   3   8  -1  115.05   36.35
   3   8  -1   91.65   41.07
   3   8  -1   93.99   37.71
  -3  -8   1   74.93   37.65
   3   8   0 3285.06   96.40
   3   8   0 3230.90   80.70
  -3  -8   0 3277.28  111.56
   3   8   1  445.75   39.00
   3   8   1  468.89   42.59
  -3  -8  -1  455.47   35.76
   3   8   2 3851.19  145.13
   3   8   2 3911.86  153.79
  -3  -8  -2 3728.64   95.66
   3   8   3   16.95   31.43
   3   8   3   27.23   25.99
  -3  -8  -3  107.89   51.22
   3   8   4   11.55   29.01
   3   8   4    8.13   21.99
  -3  -8  -4  -20.97   28.20
  -3  -8  -4   14.02   24.00
   3   8   5  230.34   46.09
   3   8   5  215.50   55.36
  -3  -8  -5  207.42   44.77
  -3  -8  -5  242.40   34.79
   3   8   6 3889.59   94.75
   3   8   6 4030.33  203.21
  -3  -8  -6 4067.65  100.70
  -3  -8  -6 3531.66  121.89
   3   8   7 5061.44  161.04
   3   8   7 4883.27  158.98
  -3  -8  -7 5115.87  122.56
   3   8   8 8488.92  241.26
   3   8   8 8673.45  182.21
  -3  -8  -8 8735.13  190.49
   3   8   9 1848.04  110.13
   3   8   9 1913.08   66.11
  -3  -8  -9 1840.78   70.29
   3   8  10 2082.33  110.36
   3   8  10 2088.79  118.37
  -3  -8 -10 2098.40  122.08
   3   8  11  318.67   65.51
   3   8  11  335.48   71.96
  -3  -8 -11  287.29   73.34
   3   8  12  945.91   97.31
   3   8  12  927.98   87.04
  -3  -8 -12  959.25   58.40
   3   8  13  108.96   66.22
   3   8  13  127.65   57.61
  -3  -8 -13   85.82   66.12
   3   8  14 1136.66  107.63
   3   8  14  929.65   54.65
  -3  -8 -14  884.25   63.01
   3   8  15 1599.27  133.02
   3   8  15 1609.13   71.81
  -3  -8 -15 1587.78  133.15
   3   8  16 8811.22  228.74
   3   8  16 9157.55  339.18
  -3  -8 -16 8537.75  244.87
   3   8  17 9095.20  317.94
   3   8  17 9771.91  364.84
  -3  -8 -17 8772.29  263.76
   3   8  18 1790.37   82.52
   3   8  18 2008.78  156.88
  -3  -8 -18 1653.74   96.57
   3   8  19  169.60   74.39
   3   8  19  409.00   93.34
  -3  -8 -19  165.15   91.68
   3   8  20  462.99  102.13
  -3  -8 -20  265.62  102.46
   3   8  21  580.76  188.22
  -3  -8 -21  393.37  110.97
   3   8  22   17.38  116.78
   3   8  22    1.21   28.45
  -3  -8 -22  -70.41   70.23
   3   8  23  -35.77   69.44
   3   8  23   -0.18   17.44
  -3  -8 -23  192.57   70.62
   3   9 -19  564.27  141.10
   3   9 -18  661.21  135.72
   3   9 -17  263.31  103.17
   3   9 -16  138.02   87.41
   3   9 -15  -84.13  137.02
   3   9 -14  549.46  106.52
   3   9 -13 1150.42  123.75
   3   9 -12 1506.89  131.38
   3   9 -11  361.16   83.29
   3   9 -10 2309.96  137.06
   3   9  -9   19.24   51.04
   3   9  -8  115.28   57.81
   3   9  -7 2295.90  118.11
   3   9  -6  330.52   63.81
   3   9  -5  378.25   55.85
  -3  -9   5  161.05   12.85
   3   9  -4 1497.49   88.11
   3   9  -4 1510.71   91.97
  -3  -9   4 1496.08   33.92
   3   9  -3   47.65   37.67
   3   9  -3    0.22   38.60
  -3  -9   3   15.00   13.86
   3   9  -2  569.06   62.27
   3   9  -2  739.67   62.40
  -3  -9   2  725.71   31.16
   3   9  -1  183.08   44.57
   3   9  -1  224.47   27.74
   3   9  -1  233.83   47.77
  -3  -9   1  239.49   25.47
   3   9   0  207.22   43.91
   3   9   0  269.71   31.38
  -3  -9   0  248.90   29.29
   3   9   1 2137.92   80.07
   3   9   1 2244.85   72.17
  -3  -9  -1 2153.61   66.25
   3   9   2   59.25   31.44
   3   9   2   71.81   31.68
  -3  -9  -2   33.18   28.49
   3   9   3 1040.77   61.91
   3   9   3 1150.28   57.87
   3   9   4  101.52   37.46
   3   9   4   52.41   31.15
   3   9   5  441.13   53.22
   3   9   5  523.59   70.05
  -3  -9  -5  325.46   43.97
   3   9   6  177.93   34.35
   3   9   6  163.99   88.10
  -3  -9  -6  140.16   37.54
   3   9   7 1793.27   68.74
   3   9   7 1793.47   99.19
  -3  -9  -7 1934.64   73.96
   3   9   8  343.70   42.42
   3   9   8  526.73   68.50
  -3  -9  -8  433.51   46.90
   3   9   9  508.46   76.13
   3   9   9  440.17   75.16
  -3  -9  -9  468.88   83.74
   3   9  10   49.32   55.54
   3   9  10   68.26   56.26
  -3  -9 -10   30.34   61.69
   3   9  11 3860.35  159.09
   3   9  11 3652.44  169.71
  -3  -9 -11 4048.26  118.76
   3   9  12  394.82   73.10
   3   9  12  311.87   80.68
  -3  -9 -12  276.40   83.21
   3   9  13  338.11   83.38
   3   9  13  376.56   73.12
  -3  -9 -13  376.07   49.47
   3   9  14   26.03   31.89
   3   9  14   92.98   64.71
  -3  -9 -14   65.52   63.70
   3   9  15  481.55   50.65
   3   9  15  478.37  102.44
  -3  -9 -15  561.58   59.18
   3   9  16  106.37   39.68
   3   9  16   61.81   81.09
  -3  -9 -16   92.28   81.57
   3   9  17  -11.45   59.42
   3   9  17  -16.93   73.78
  -3  -9 -17  -17.66   40.81
   3   9  18  519.09   56.95
   3   9  18  609.71  120.59
  -3  -9 -18  391.36   66.87
   3   9  19  474.06  116.06
  -3  -9 -19  465.48   67.06
   3   9  20  402.34  107.77
  -3  -9 -20  274.91   63.10
   3   9  21 1562.91  275.19
  -3  -9 -21 1350.12  155.65
   3   9  22   23.55   28.40
   3   9  22   21.31  125.37
  -3  -9 -22 -102.69   70.18
   3  10 -18  979.41  155.08
   3  10 -17 4043.94  272.41
   3  10 -16  152.85  164.32
   3  10 -15   54.48   78.65
   3  10 -14  408.13  103.81
   3  10 -13 1236.23  131.89
   3  10 -12   44.50   69.31
   3  10 -11  -16.63  105.42
   3  10 -10  356.13   83.40
   3  10  -9  429.68  146.17
   3  10  -8 1813.22  119.16
   3  10  -7  317.01  125.42
   3  10  -6   -8.32   46.04
   3  10  -5  -38.69   40.90
   3  10  -5   43.22   41.83
   3  10  -4 1603.97   99.23
   3  10  -4 1326.49  168.08
   3  10  -3 7081.54  214.80
   3  10  -3 6985.24  214.23
   3  10  -2 1029.67   80.08
   3  10  -2 1018.61   41.93
   3  10  -2  881.76  148.38
   3  10  -1 4440.21  219.74
   3  10  -1 4306.89  103.04
   3  10  -1 4581.10  153.95
   3  10   0   30.10   70.78
   3  10   0   46.71   25.94
   3  10   1   34.32   27.52
   3  10   1   17.96   36.23
   3  10   2  338.07   44.75
   3  10   2  362.82   47.92
   3  10   3  372.83   47.43
   3  10   3  302.34   47.45
   3  10   4  -37.49   37.73
   3  10   4   17.52   62.25
   3  10   5 8428.03  230.14
   3  10   5 8489.84  274.49
  -3 -10  -5 8584.67  212.78
   3  10   6  901.81  110.91
   3  10   6  823.05  136.55
  -3 -10  -6 1281.82  124.64
   3  10   714705.51  410.90
   3  10   714008.13  380.70
  -3 -10  -714190.61  332.25
   3  10   8   42.41   51.16
   3  10   8   27.21   31.34
  -3 -10  -8    8.86   35.04
   3  10   9 1911.34   76.76
   3  10   9 1817.61  118.55
  -3 -10  -9 2021.63  136.63
   3  10  10  201.11   40.82
   3  10  10  218.31   69.42
  -3 -10 -10  213.72   46.12
   3  10  11  324.81   43.97
   3  10  11  332.17   77.97
  -3 -10 -11  294.08   48.71
   3  10  12  670.19   52.43
   3  10  12  668.95   94.32
  -3 -10 -12  661.91  100.37
   3  10  13  927.18   96.62
   3  10  13  923.11  108.05
  -3 -10 -13  992.54   66.07
   3  10  14   40.49   70.03
   3  10  14   76.46   59.37
  -3 -10 -14   87.81   68.38
   3  10  15  365.45   78.34
   3  10  15  439.56   92.15
  -3 -10 -15  289.40   53.48
   3  10  16   28.75   67.84
   3  10  16   35.70   31.58
  -3 -10 -16  -13.66   36.50
   3  10  17 1080.32  140.75
   3  10  17 1196.58   68.57
  -3 -10 -17 1049.98  133.52
   3  10  18 2197.92  173.55
  -3 -10 -18 1790.05  104.16
   3  10  19 3010.19  206.54
  -3 -10 -19 2628.96  129.77
   3  10  20    7.52   17.87
   3  10  20  153.81   81.46
  -3 -10 -20   75.66   44.29
   3  10  21   15.22  147.79
   3  10  21   33.13   30.80
  -3 -10 -21   29.51   45.16
   3  11 -17   75.96  164.82
   3  11 -16  124.75   95.44
   3  11 -15   39.77   78.50
   3  11 -14   86.58  144.60
   3  11 -13   71.37   79.64
   3  11 -12 1319.72  230.65
   3  11 -11 2765.89  176.49
   3  11 -10 -102.97  127.79
   3  11  -9   93.48   69.72
   3  11  -8   14.48   55.02
   3  11  -8  -34.55   58.75
   3  11  -7 2536.26  149.03
   3  11  -7 2480.29  151.51
   3  11  -6   56.94   59.83
   3  11  -6   54.66  103.39
   3  11  -5   49.39   61.82
   3  11  -5  193.72   61.31
   3  11  -4 4194.87  268.47
   3  11  -4 4214.65  273.45
   3  11  -310132.40  307.34
   3  11  -3 9695.55  298.05
   3  11  -2 6309.93  312.91
   3  11  -2 6383.14  140.10
   3  11  -2 7021.10  336.50
   3  11  -1  324.40   67.29
   3  11  -1  361.61   33.85
   3  11  -1  391.48   71.48
   3  11   0  101.39   49.09
   3  11   0   61.30   29.44
   3  11   119105.09  456.47
   3  11   118239.51  481.96
   3  11   2 5890.02  230.26
   3  11   2 5578.98  176.96
   3  11   3 2216.28   94.66
   3  11   3 2204.63  167.90
   3  11   4 3762.25  195.77
   3  11   4 3698.06  193.20
   3  11   5  -65.58   44.65
   3  11   5  -31.58   75.10
   3  11   6 6615.15  217.55
   3  11   6 7479.32  307.93
  -3 -11  -6 7340.99  211.08
   3  11   733421.78 1017.22
   3  11   732686.27 1113.70
  -3 -11  -734086.30 1052.98
   3  11   813057.48  466.08
   3  11   812815.76  399.32
  -3 -11  -813138.25  352.33
   3  11   9 4904.88  222.44
   3  11   9 4621.38  200.84
  -3 -11  -9 4690.56  151.41
   3  11  10 2544.51  151.26
   3  11  10 2344.40  140.22
  -3 -11 -10 2514.90  166.16
   3  11  11  106.50   39.25
   3  11  11   67.73   65.76
  -3 -11 -11   73.27   42.76
   3  11  12  263.13   45.37
   3  11  12  261.17   80.00
  -3 -11 -12  291.83   86.97
   3  11  13  125.44   37.52
   3  11  13   94.76   70.82
  -3 -11 -13   44.75   42.59
   3  11  14  453.57   48.81
   3  11  14  481.84   95.34
  -3 -11 -14  262.36   95.89
   3  11  15    4.19   63.88
   3  11  15  -28.45   31.35
  -3 -11 -15    3.60   35.94
   3  11  16   75.80   60.03
   3  11  16    5.18   81.94
  -3 -11 -16  145.01   45.79
   3  11  17 2421.79  177.08
  -3 -11 -17 2258.66  174.38
   3  11  18  199.29   97.89
  -3 -11 -18  154.55   92.73
   3  11  19   -6.30   28.77
   3  11  19  104.98   72.57
  -3 -11 -19  -34.97   39.39
   3  11  20  311.66  192.98
  -3 -11 -20  262.35   60.51
   3  12 -16  202.01  106.82
   3  12 -15  177.99  171.58
   3  12 -14  -61.18   80.91
   3  12 -13   26.82   74.02
   3  12 -12  404.07  102.83
   3  12 -11   39.95   80.66
   3  12 -11   91.66   76.68
   3  12 -10   35.33  105.68
   3  12 -10  -19.78   63.38
   3  12  -9  -62.07   57.87
   3  12  -9   54.42   61.29
   3  12  -8   43.20  112.23
   3  12  -8   51.67  116.83
   3  12  -7 1945.54  140.31
   3  12  -7 2048.29  141.09
   3  12  -6   28.01   91.47
   3  12  -6   -6.16   51.80
   3  12  -5 1188.38  104.61
   3  12  -5 1260.21  109.23
   3  12  -4   93.39   99.12
   3  12  -4   34.21   54.65
   3  12  -3  202.26   66.87
   3  12  -3  327.89   69.62
   3  12  -2 2637.39   71.44
   3  12  -2 2787.18  130.72
   3  12  -2 3141.52  225.57
   3  12  -1   55.72   50.98
   3  12  -1   84.30   25.57
   3  12  -1   61.75   57.32
   3  12   0  261.82  105.79
   3  12   0  295.32   35.91
   3  12   1   81.58   36.59
   3  12   1  176.95   96.29
   3  12   2 1640.09  138.99
   3  12   2 1664.76  107.29
   3  12   3 2422.83  111.09
   3  12   3 2358.64  120.96
   3  12   4  513.58  111.11
   3  12   4  477.93   67.86
   3  12   5 3017.83  131.35
   3  12   5 3573.67  213.30
   3  12   615112.77  448.73
   3  12   616472.69  586.69
   3  12   733000.01  992.35
   3  12   735150.65 1164.39
  -3 -12  -734720.24  970.50
   3  12   811209.67  522.93
   3  12   811856.95  357.57
  -3 -12  -812831.14  497.81
   3  12   9  176.76  126.54
   3  12   9  171.69   52.27
  -3 -12  -9  164.10   56.22
   3  12  10 2131.67  143.18
   3  12  10 2495.99  101.94
  -3 -12 -10 2280.30  173.14
   3  12  11 4543.26  138.56
   3  12  11 3991.43  195.97
  -3 -12 -11 4187.63  144.76
   3  12  12 2194.08   92.00
   3  12  12 2035.07  145.31
  -3 -12 -12 2015.48  161.20
   3  12  13   70.47   56.17
   3  12  13   40.45   61.24
  -3 -12 -13  -27.34   37.34
   3  12  14  207.99   73.07
   3  12  14  147.24   84.24
  -3 -12 -14  164.52   86.59
   3  12  15  187.52   90.00
  -3 -12 -15  209.11   53.01
   3  12  16  237.99   96.37
  -3 -12 -16  186.76   55.34
   3  12  17 2758.40  206.07
  -3 -12 -17 2660.64  196.16
   3  12  18  387.35  118.48
  -3 -12 -18  328.01  110.24
   3  12  19    7.72   18.84
   3  12  19  153.37  139.00
  -3 -12 -19   25.81   41.55
   3  13 -14   70.90   69.24
   3  13 -14  -85.35   74.61
   3  13 -13  181.42  150.37
   3  13 -13   27.81   89.84
   3  13 -12  224.17  106.61
   3  13 -12  328.92  102.71
   3  13 -11   27.18   71.56
   3  13 -11   14.15  133.40
   3  13 -10   22.52   71.80
   3  13 -10   50.18   75.79
   3  13  -9  115.63   83.15
   3  13  -9  116.21   79.88
   3  13  -8  530.25  172.78
   3  13  -8  489.62  100.01
   3  13  -7   71.11   63.32
   3  13  -7  -14.57   61.65
   3  13  -6  210.90   74.60
   3  13  -6  211.29  135.04
   3  13  -5   60.07   98.27
   3  13  -5   20.74   59.90
   3  13  -4   53.48   57.52
   3  13  -4   76.07  105.74
   3  13  -3   39.63   92.51
   3  13  -3   38.85   56.59
   3  13  -2   18.26   50.14
   3  13  -2   77.37   96.39
   3  13  -1   64.89   91.26
   3  13  -1   81.10   25.18
   3  13  -1   80.73   58.49
   3  13   0  167.36   53.11
   3  13   0  206.83   54.01
   3  13   0   17.55   61.98
   3  13   1   53.06   47.61
   3  13   1  -29.10   45.33
   3  13   2 3184.52  214.53
   3  13   2 2869.10  106.01
   3  13   3 5866.91  259.83
   3  13   3 5996.74  202.22
   3  13   4  750.21   79.54
   3  13   4  594.94   70.09
   3  13   5 3321.01  217.98
   3  13   5 3702.74  145.62
   3  13   6  997.41   93.45
   3  13   6 1449.45  156.29
   3  13   7 8169.60  273.49
   3  13   7 9163.12  351.09
   3  13   8  -24.98   50.16
   3  13   8  -33.63   43.49
  -3 -13  -8   21.44   43.06
   3  13   9  -66.69   94.39
   3  13   9   25.66   40.56
  -3 -13  -9   75.16   75.83
   3  13  10 1655.95  206.80
   3  13  10 1833.95   93.55
  -3 -13 -10 1765.77   97.69
   3  13  11   51.83   39.48
   3  13  11  -17.06  107.89
  -3 -13 -11   11.10   43.18
   3  13  12   85.16   68.08
   3  13  12  115.21  117.05
  -3 -13 -12   10.61   43.90
   3  13  13   53.10   60.10
   3  13  13  -16.10   23.85
  -3 -13 -13    5.47   38.26
   3  13  14 1031.95  128.08
  -3 -13 -14 1216.15  138.95
   3  13  15  276.66   98.93
  -3 -13 -15  301.19   62.36
   3  13  16  822.99  223.91
  -3 -13 -16  690.35   79.27
   3  13  17 3658.73  371.62
  -3 -13 -17 3208.21  227.14
   3  14 -12   49.39   84.46
   3  14 -12   30.66   88.39
   3  14 -11  -14.28  157.10
   3  14 -11 -100.04   90.57
   3  14 -10  249.98  176.55
   3  14 -10  225.88   99.98
   3  14  -9   11.95   72.34
   3  14  -9   55.23   74.98
   3  14  -8  190.07  158.50
   3  14  -8  251.35   89.54
   3  14  -7  255.31   89.15
   3  14  -7  172.73  146.46
   3  14  -6   27.92   67.34
   3  14  -6  160.05  123.05
   3  14  -5   57.86   70.36
   3  14  -5  194.14   74.29
   3  14  -4   84.98  102.71
   3  14  -4   -7.06  111.16
   3  14  -3  296.24   78.49
   3  14  -3  199.86   72.17
   3  14  -2   61.25   94.19
   3  14  -2   23.07  104.55
   3  14  -1   32.23   46.98
   3  14  -1   16.71   36.54
   3  14  -1  -19.03   54.36
   3  14   0  177.57   63.57
   3  14   0  108.88   53.67
   3  14   0  173.29   67.41
   3  14   1 2407.03  123.30
   3  14   1 2086.31   80.93
   3  14   2 1052.59   87.91
   3  14   2  809.70   57.98
   3  14   3  102.99   66.16
   3  14   3   37.39   93.09
   3  14   4  144.12   47.69
   3  14   4  230.44   58.95
   3  14   5  946.13   80.65
   3  14   5 1221.48   89.26
   3  14   6   -4.77   67.87
   3  14   6    3.89   40.23
   3  14   7  531.92  115.90
   3  14   7  432.01   72.37
   3  14   8  112.97   61.46
   3  14   8  174.39   54.38
   3  14   9   69.96   55.16
   3  14   9   68.39   44.08
  -3 -14  -9  -16.27   47.22
   3  14  10  -10.64   55.37
   3  14  10   70.55   37.75
  -3 -14 -10  -26.66   44.71
   3  14  11  -64.65   39.74
   3  14  11  136.60   56.19
  -3 -14 -11   64.83   75.81
   3  14  12 1336.40  216.79
  -3 -14 -12 1472.85   98.20
   3  14  13  880.49  203.68
  -3 -14 -13  919.44   84.12
   3  14  14   86.34  155.21
  -3 -14 -14  214.46   99.58
   3  14  15  412.80  204.47
  -3 -14 -15  650.55   75.04
   3  15  -9  -69.64  140.31
   3  15  -9  -25.39   80.60
   3  15  -8   84.79  145.82
   3  15  -8   72.79   81.69
   3  15  -7   65.06   69.95
   3  15  -7  -89.16   67.42
   3  15  -6  185.63  137.94
   3  15  -6   56.42  145.86
   3  15  -5   89.83   75.85
   3  15  -5  143.33   80.21
   3  15  -4  296.30   83.68
   3  15  -4  341.98   90.58
   3  15  -3   16.02   54.84
   3  15  -3  -46.18   59.29
   3  15  -2   48.87   54.39
   3  15  -2  -13.22   59.96
   3  15  -1  162.99   58.60
   3  15  -1   45.12   23.97
   3  15  -1   15.83   65.68
   3  15   0   -7.38   51.83
   3  15   0   34.14   24.74
   3  15   0   -1.33   58.71
   3  15   1   14.59   45.24
   3  15   1    7.05   50.70
   3  15   1   -9.02   24.04
   3  15   2  133.30  104.47
   3  15   2  139.81   62.82
   3  15   3   52.51   37.38
   3  15   3   85.60   54.88
   3  15   4   18.07   76.96
   3  15   4   -4.97   57.56
   3  15   5  605.19   67.31
   3  15   5  668.56   78.39
   3  15   6  -15.63   43.63
   3  15   6  -25.41   47.26
   3  15   7   66.85  102.83
   3  15   7  194.87   56.12
   3  15   8   -7.20   88.69
   3  15   8  -39.14   54.84
   3  15   9  102.88   50.63
   3  15   9   -7.51   23.27
   3  15  10  139.98   56.38
   3  15  10    1.96   23.70
   3  15  11  563.16   95.61
  -3 -15 -11  499.67   76.49
   3  15  12   39.00   63.11
   3  15  12   -2.56   22.29
  -3 -15 -12   90.50   46.89
   3  16  -5  -96.24   79.94
   3  16  -5   45.60  130.14
   3  16  -4   31.94   62.99
   3  16  -4  -24.34   60.02
   3  16  -3  -26.63  137.57
   3  16  -3  -94.38   73.26
   3  16  -2  496.04   87.22
   3  16  -2   -8.03   92.66
   3  16  -1  -64.21  135.49
   3  16  -1  182.56   72.29
   3  16   0   87.58   63.20
   3  16   0   23.07   67.84
   3  16   1  111.25   58.27
   3  16   1   26.69   28.97
   3  16   1  -23.53   63.15
   3  16   2   81.81   35.19
   3  16   2  116.97   64.39
   3  16   3  661.08  101.55
   3  16   3 1118.02  156.67
   3  16   4  127.38   48.39
   3  16   4  -11.08   39.36
   3  16   5  -93.78   52.31
   3  16   5  126.84   66.39
   3  16   6    7.43   69.74
   3  16   6    2.88   24.96
   3  16   7  -68.04   48.03
   3  16   7  -13.36   27.54
   3  16   8   89.29   52.96
   3  16   8   -0.89   44.90
   3  16   9   73.80   80.36
   3  16   9   -4.97   21.89
  -4  13   2  101.95  169.04
  -4  13   2   31.40   73.63
  -4  13   1   80.03  100.41
  -4  13   1   38.26   40.83
  -4  13   0 3233.82  379.16
  -4  13   0 2375.66   95.12
  -4  13  -1  348.85  135.44
  -4  13  -2   98.25  110.44
   4 -12  -9  140.47  189.70
  -4  12   9  282.71   86.78
  -4  12   9  227.98  113.92
   4 -12  -8  250.02  109.57
  -4  12   8  386.05  117.63
  -4  12   8  259.88   81.97
   4 -12  -7   -4.20   82.18
  -4  12   7   41.28   87.33
  -4  12   7   43.48   56.97
   4 -12  -6  445.50  214.82
  -4  12   6  631.56  133.76
  -4  12   6  544.62   85.12
   4 -12  -5  251.37   98.05
  -4  12   5   78.39  105.29
  -4  12   5  133.18   61.35
   4 -12  -4   66.64   88.78
  -4  12   4  125.11   94.52
  -4  12   4   59.34   52.17
   4 -12  -3  -79.46   76.51
  -4  12   3   -6.23   80.59
  -4  12   3   45.63   42.21
   4 -12  -2  153.22  102.58
  -4  12   2  221.26  112.39
  -4  12   2  194.66   54.29
  -4  12   1  758.08  139.23
  -4  12   1  540.55   65.20
  -4  12   0 1113.04  169.03
  -4  12   0 1078.13   74.38
  -4  12  -1   73.82   38.86
  -4  12  -1  120.89  103.43
  -4  12  -2  391.68  152.93
  -4  12  -2  -23.25   19.99
  -4  12  -3  170.25  108.42
  -4  12  -4  400.17  211.98
  -4  12  -5  -18.84   81.19
  -4  12  -6  134.78  100.08
  -4  12  -7  491.97  224.07
  -4  12  -8  128.59  103.81
  -4  12  -8  134.83  103.07
   4 -11 -12  342.09  111.03
  -4  11  12  354.06  116.33
  -4  11  12  250.39  102.08
   4 -11 -11  120.27   95.91
  -4  11  11  175.90   99.74
  -4  11  11   80.34   82.91
   4 -11 -10  388.33  192.33
  -4  11  10  306.15  113.63
  -4  11  10  391.22   93.42
   4 -11  -9   36.08   74.59
  -4  11   9   26.47   78.60
  -4  11   9   -3.99   60.60
   4 -11  -8   38.01   71.84
  -4  11   8  -17.03   77.48
   4 -11  -7  125.00  161.77
  -4  11   7  173.32   99.14
   4 -11  -6   42.32   80.89
  -4  11   6   88.40   86.44
   4 -11  -5   -9.49   66.07
  -4  11   5   14.71  124.68
   4 -11  -4   99.28   87.57
  -4  11   4  144.14   93.56
   4 -11  -3  382.52  107.11
  -4  11   3  413.68  196.94
   4 -11  -2   68.89  140.47
  -4  11   2   68.76   85.86
   4 -11  -1  -59.88   78.15
  -4  11   1  -14.89  145.17
  -4  11   0  109.23   90.72
  -4  11  -1  155.01  166.83
  -4  11  -2  178.82   97.42
  -4  11  -3  273.84   81.36
  -4  11  -3   22.37   26.28
  -4  11  -4   -9.86   70.27
  -4  11  -4   -7.49   15.02
  -4  11  -5   95.59   87.80
  -4  11  -6   89.19  153.74
  -4  11  -7   28.20   79.03
  -4  11  -8  -10.66   80.59
  -4  11  -8  -62.39   83.16
  -4  11  -9  784.07  141.06
  -4  11  -9  855.98  137.77
  -4  11 -10  206.39  112.20
  -4  11 -10  242.75  107.94
  -4  11 -11  721.42  141.96
  -4  11 -11  750.65  140.36
   4 -10 -14 2071.49  192.97
  -4  10  14 2491.56  196.94
  -4  10  14 1992.23  334.95
   4 -10 -13  846.10  143.55
  -4  10  13  890.43  146.02
  -4  10  13  913.66  139.43
   4 -10 -12  103.97   85.38
  -4  10  12   78.96  155.82
  -4  10  12   28.82   82.11
   4 -10 -11   84.35  134.53
  -4  10  11   15.90   79.89
   4 -10 -10  -11.83   67.65
  -4  10  10   23.10  120.38
   4 -10  -9  -29.58   62.38
  -4  10   9   32.83   64.98
   4 -10  -8  600.70  200.17
  -4  10   8  632.62  124.50
   4 -10  -7   17.51   76.31
  -4  10   7   65.59   81.94
   4 -10  -6  587.37  113.93
  -4  10   6  617.71  119.17
   4 -10  -5   20.17  129.41
  -4  10   5   69.34  138.29
   4 -10  -4  704.85  114.55
  -4  10   4  673.02  119.70
   4 -10  -3  -29.05  131.23
  -4  10   3  -87.74  139.04
   4 -10  -2  368.48  100.62
  -4  10   2  412.47  103.66
   4 -10  -1 1448.63  236.19
  -4  10   1 1365.81  145.82
   4 -10   0  143.34   83.48
  -4  10   0  116.54   87.61
  -4  10  -1  466.49  106.24
  -4  10  -2  100.04   83.96
  -4  10  -3   93.68   78.89
  -4  10  -4   47.83   74.24
  -4  10  -5  521.17  190.88
  -4  10  -6   28.84   73.18
  -4  10  -7  154.99  154.60
  -4  10  -8   70.91   76.64
  -4  10  -8   24.78   76.84
  -4  10  -9  -49.92   72.53
  -4  10  -9    8.72   73.14
  -4  10 -10   69.42  112.85
  -4  10 -10  -64.73  111.36
  -4  10 -11 1020.92  138.02
  -4  10 -11 1089.82  140.44
  -4  10 -12  160.61  174.13
  -4  10 -12  240.76  102.00
  -4  10 -13  -30.68   75.61
  -4  10 -13   71.11   77.24
  -4  10 -14  -95.14   88.66
  -4  10 -14  -51.00  155.97
   4  -9 -16   75.05  176.82
  -4   9  16  108.87  103.35
  -4   9  16  137.65   96.36
   4  -9 -15 4909.97  317.41
  -4   9  15 4934.52  315.78
  -4   9  15 5645.54  307.22
   4  -9 -14 6851.40  356.40
  -4   9  14 7523.61  370.34
   4  -9 -13  357.02  119.77
  -4   9  13  518.37  115.73
   4  -9 -12  -16.31   70.62
  -4   9  12   33.99   71.47
   4  -9 -11  314.32  182.23
  -4   9  11  467.80  110.87
   4  -9 -10  272.02   94.84
  -4   9  10  242.73  174.70
   4  -9  -9   -3.21   71.40
  -4   9   9   79.17   74.86
   4  -9  -8   59.58   76.13
  -4   9   8   96.96  141.25
   4  -9  -7  391.59   98.08
  -4   9   7  339.25  102.40
   4  -9  -6 1325.67  233.53
  -4   9   6 1376.25  141.42
   4  -9  -5 -113.75   85.92
  -4   9   5 -153.26  154.98
   4  -9  -4 6170.23  394.46
  -4   9   4 6213.10  263.39
   4  -9  -3  179.03   82.71
  -4   9   3  176.56  156.34
   4  -9  -2  249.67  152.82
  -4   9   2  304.54   92.46
   4  -9  -1  182.37   80.46
  -4   9   1  171.47   83.86
   4  -9   0    1.48  112.02
  -4   9   0  -25.33   63.30
   4  -9   1 1001.73  119.50
  -4   9  -1 1132.15  123.26
  -4   9  -2  867.46  203.00
  -4   9  -3  181.92   83.59
  -4   9  -4 1431.16  225.85
  -4   9  -5 -104.42   79.29
  -4   9  -6 1367.89  228.14
  -4   9  -7  -34.30   69.29
  -4   9  -8  113.56   77.64
  -4   9  -8  102.30   24.78
  -4   9  -9  899.38  203.78
  -4   9  -9  835.66  120.93
  -4   9 -10   -5.42   59.58
  -4   9 -10   14.55  104.27
  -4   9 -11  267.89   92.28
  -4   9 -11  242.49   91.57
  -4   9 -12  145.37  150.12
  -4   9 -12  175.32  148.97
  -4   9 -13   -8.51   69.48
  -4   9 -13   45.15   68.53
  -4   9 -14   80.95   80.00
  -4   9 -14   73.63   81.83
  -4   9 -15  -11.71   73.93
  -4   9 -15   53.66   71.75
  -4   9 -16  253.78   96.81
  -4   9 -16  141.03  170.26
  -4   8  17  347.49  119.42
  -4   8  16  -14.43   74.20
  -4   8  16    7.70   73.40
   4  -8 -15 3731.84  237.55
  -4   8  15 3973.89  384.56
   4  -8 -14   35.89   77.20
  -4   8  14   42.20   76.51
   4  -8 -13  169.64   89.73
  -4   8  13  208.74  160.08
   4  -8 -12  105.69  136.51
  -4   8  12   61.66   80.95
   4  -8 -11    4.98   61.27
  -4   8  11   -0.85   63.18
   4  -8 -10   98.19   80.44
  -4   8  10  152.89   83.21
   4  -8  -9   90.86  131.36
  -4   8   9   65.83   77.50
   4  -8  -8   86.59   78.54
  -4   8   8  169.46  142.87
   4  -8  -7  999.59  125.08
  -4   8   7 1446.68  131.92
   4  -8  -6 1907.50  157.90
  -4   8   6 1781.37  159.67
   4  -8  -5 4103.01  216.54
  -4   8   5 4184.30  216.34
   4  -8  -4 3719.74  185.85
  -4   8   4 3839.62  196.51
   4  -8  -3  684.83  107.44
  -4   8   3  907.07  186.59
   4  -8  -2  -10.51   56.91
  -4   8   2   -4.34   58.46
   4  -8  -1  856.27  108.36
  -4   8   1 1068.00  113.23
   4  -8   0   25.37   56.37
  -4   8   0  -48.90  104.50
   4  -8   1 3623.43  285.63
  -4   8  -1 3680.01  183.89
   4  -8   2  -50.67   68.00
  -4   8  -2  109.50   66.81
  -4   8  -3 1926.45  144.00
  -4   8  -4   18.38   66.45
  -4   8  -5    8.30   61.83
  -4   8  -6 1515.16  141.03
  -4   8  -7  283.03   88.33
  -4   8  -8  178.96   79.51
  -4   8  -8  196.11   18.72
  -4   8  -9  660.10   97.23
  -4   8  -9  522.56   30.70
  -4   8  -9  558.07   98.71
  -4   8 -10   51.55  107.83
  -4   8 -10  -78.85  111.51
  -4   8 -10   19.25   12.79
  -4   8 -11  118.02   73.94
  -4   8 -11   90.40   73.28
  -4   8 -12  -27.55  112.02
  -4   8 -12  -16.46   62.76
  -4   8 -13  -65.57   66.03
  -4   8 -13    6.13   67.27
  -4   8 -14  349.67   94.52
  -4   8 -14  328.26  163.99
  -4   8 -15    6.78  116.61
  -4   8 -15   16.42   65.32
  -4   8 -16   26.15   69.69
  -4   8 -16   43.61   72.32
  -4   8 -17   10.72  111.14
  -4   8 -17  -13.54   64.99
  -4   7  19  390.89  124.47
  -4   7  18  129.11   99.09
  -4   7  17  604.74  107.64
  -4   7  17  143.65  112.68
   4  -7 -16  174.52   94.43
   4  -7 -15   66.62   74.56
  -4   7  15    1.84   73.79
   4  -7 -14  294.91   96.99
   4  -7 -13   79.94   72.98
  -4   7  13    3.91   72.07
   4  -7 -12 1728.74  250.06
  -4   7  12 1949.54  151.88
   4  -7 -11  349.17   94.50
  -4   7  11  382.80   95.72
   4  -7 -10  156.72   80.81
  -4   7  10  208.25   83.81
   4  -7  -9   69.15  125.45
  -4   7   9   98.48  127.74
   4  -7  -8  769.21  104.00
  -4   7   8  726.01  106.57
   4  -7  -7   -8.35  121.99
  -4   7   7  107.86   70.48
   4  -7  -6  583.44   99.97
  -4   7   6  564.71  174.80
   4  -7  -5 7327.08  262.51
  -4   7   5 8111.93  277.09
   4  -7  -4    5.06   52.68
  -4   7   4   -8.79   54.22
   4  -7  -3  791.69  171.38
  -4   7   3  797.92  174.05
   4  -7  -2    3.46   55.85
  -4   7   2   32.01   57.39
   4  -7  -1 1021.16  105.55
  -4   7   1 1165.38  108.56
   4  -7   0  457.96  153.04
  -4   7   0  524.34  156.57
   4  -7   1 1615.23  125.13
  -4   7  -1 1748.77  126.45
   4  -7   2 2122.33  146.64
  -4   7  -2 1907.36  144.61
  -4   7  -3 6226.92  432.13
  -4   7  -417847.70  603.16
  -4   7  -537652.04 1193.20
  -4   7  -6 5315.99  286.42
  -4   7  -7 2762.64  156.57
  -4   7  -8    5.43   55.85
  -4   7  -8    9.41   14.40
  -4   7  -9 3528.20  272.15
  -4   7  -9 3506.64  172.72
  -4   7 -10  -31.23   62.45
  -4   7 -10   93.20  113.09
  -4   7 -10   52.12   19.33
  -4   7 -11  814.64   29.98
  -4   7 -11 1035.50  105.83
  -4   7 -11 1122.03  107.18
  -4   7 -12   43.23   69.78
  -4   7 -12  122.76   68.90
  -4   7 -13  701.64  102.51
  -4   7 -13  657.53  100.77
  -4   7 -14  166.82   78.88
  -4   7 -14  155.53   78.65
  -4   7 -15  203.23  137.29
  -4   7 -15   67.14  133.10
  -4   7 -16  -15.87   60.24
  -4   7 -16   -3.40  109.58
  -4   7 -17   23.42   62.90
  -4   7 -17    7.93   64.03
  -4   7 -18   40.85   69.59
  -4   7 -18   67.96   73.12
  -4   7 -19  231.78   94.14
  -4   7 -19  286.04   90.84
  -4   6  20  819.75  143.93
  -4   6  19  269.35  110.15
  -4   6  18   29.60   73.12
  -4   6  18   -7.29   68.25
   4  -6 -17   68.04   81.78
   4  -6 -16  568.12  115.98
  -4   6  16  561.03  112.75
   4  -6 -15  385.37  105.40
   4  -6 -14 1341.66  139.23
  -4   6  14 1265.67  137.45
   4  -6 -13  211.93   90.53
  -4   6  13  237.19   86.82
   4  -6 -12   27.06  118.92
  -4   6  12   30.77   66.87
   4  -6 -11  247.56   80.49
  -4   6  11  140.01   80.90
   4  -6 -10  408.81   90.88
  -4   6  10  389.94  155.00
   4  -6  -9  171.60  132.76
  -4   6   9  203.28   77.93
   4  -6  -8  128.24   65.22
  -4   6   8   27.32   66.64
   4  -6  -7   62.45  107.34
  -4   6   7   27.78  108.19
   4  -6  -6  860.15   97.68
  -4   6   6  833.36   98.31
   4  -6  -5 -113.57   93.40
  -4   6   5   21.15   52.95
   4  -6  -4 2462.65  133.31
  -4   6   4 2536.42  225.25
   4  -6  -3   82.81   61.59
  -4   6   3   81.18   62.02
   4  -6  -2 1588.09  187.57
  -4   6   2 1601.55  112.94
   4  -6  -1 1120.87   97.60
  -4   6   1 1089.78   99.33
   4  -6   0 1101.95   96.90
  -4   6   0 1253.39  172.62
   4  -6   1    4.36   78.91
  -4   6  -1   -2.58   45.45
   4  -6   2  536.16   78.29
  -4   6  -2  486.49   79.03
   4  -6   3  391.66   76.10
  -4   6  -3  396.88   79.15
  -4   6  -4 1790.35  125.43
  -4   6  -552063.79 1533.53
  -4   6  -6 -432.46  187.62
  -4   6  -7  837.57  102.30
  -4   6  -8   63.21  105.52
  -4   6  -8   49.51   18.23
  -4   6  -9   79.22   64.28
  -4   6  -9  167.43   64.86
  -4   6  -9  135.21   17.84
  -4   6 -10  838.98  156.67
  -4   6 -10  745.52   41.57
  -4   6 -10  668.23  155.72
  -4   6 -11   65.16   22.61
  -4   6 -11   66.68   60.99
  -4   6 -11   73.19   60.92
  -4   6 -12  885.53   96.10
  -4   6 -12  890.26   95.38
  -4   6 -12  660.03   33.36
  -4   6 -13   38.01  110.78
  -4   6 -13   35.82   16.68
  -4   6 -13   47.56  109.21
  -4   6 -14 8105.05  301.52
  -4   6 -14 7502.10  304.47
  -4   6 -15 2569.24  160.66
  -4   6 -15 2392.57  173.14
  -4   6 -16   -4.01  107.12
  -4   6 -16   40.66   65.31
  -4   6 -17  129.42  116.01
  -4   6 -17   20.70   63.33
  -4   6 -18   75.08  125.82
  -4   6 -18  119.20  118.70
  -4   6 -19  -11.03   59.37
  -4   6 -19   40.03   62.29
  -4   6 -20  179.79   85.88
  -4   6 -20  212.26  141.12
  -4   5  20  -27.85   82.52
  -4   5  19  342.50  112.47
  -4   5  19  416.28  117.03
   4  -5 -18  271.01  101.94
   4  -5 -17  105.31   78.60
  -4   5  17   -3.97   73.85
   4  -5 -16  311.88   99.78
   4  -5 -15  -68.97   74.58
  -4   5  15  -27.16   70.66
   4  -5 -14 3663.59  202.98
  -4   5  14 3790.63  317.54
   4  -5 -13  -49.44   65.53
  -4   5  13   13.90   64.36
   4  -5 -12 3814.88  321.53
  -4   5  12 3752.13  190.14
   4  -5 -11  672.62  102.91
  -4   5  11  579.03  105.47
   4  -5 -10  521.67   97.03
  -4   5  10  445.41   94.06
   4  -5  -9  621.16  170.21
  -4   5   9  645.04  171.23
   4  -5  -8 2151.75  133.64
  -4   5   8 2206.37  134.46
   4  -5  -7  802.68  166.29
  -4   5   7  852.98   93.99
   4  -5  -6 3937.24  161.26
  -4   5   6 3863.79  164.38
   4  -5  -5   73.72  109.57
  -4   5   5  157.49  110.15
   4  -5  -4 4792.19  175.59
  -4   5   4 5108.38  174.79
   4  -5  -3  340.24   67.27
  -4   5   3  415.07   69.56
   4  -5  -2  940.43  146.19
  -4   5   2 1058.29   86.25
   4  -5  -1  440.65   67.53
  -4   5   1  369.72   68.99
   4  -5   0 1433.01   91.40
  -4   5   0 1302.81  157.83
   4  -5   1   79.14   50.81
  -4   5  -1  140.91   52.86
   4  -5   2   82.00   49.67
  -4   5  -2   76.43   50.20
   4  -5   3  441.02   64.48
  -4   5  -3  414.60   65.52
  -4   5  -4   93.69   88.94
  -4   5  -5  595.21   71.19
  -4   5  -6  462.68   69.04
  -4   5  -7 4096.57  247.19
  -4   5  -8 5915.03  149.72
  -4   5  -8 5890.26  197.32
  -4   5  -9  431.12   42.96
  -4   5  -9  481.23   74.27
  -4   5  -9  328.03  128.23
  -4   5 -10 1696.84   67.72
  -4   5 -10 1860.72  112.14
  -4   5 -10 1941.75  110.57
  -4   5 -11  274.94  121.81
  -4   5 -11  285.74   20.52
  -4   5 -11  327.05  116.98
  -4   5 -12  108.57   55.40
  -4   5 -12   73.59   15.93
  -4   5 -12   90.29   57.38
  -4   5 -13 1765.56  113.34
  -4   5 -13 1803.81  117.32
  -4   5 -13 1439.08   55.38
  -4   5 -14  611.50   24.93
  -4   5 -14  796.56  152.70
  -4   5 -14  602.40  159.80
  -4   5 -15 3415.19  168.17
  -4   5 -15 3350.65  171.73
  -4   5 -16  332.49   78.36
  -4   5 -16  357.97   83.04
  -4   5 -17   31.93   94.26
  -4   5 -17   11.41   58.16
  -4   5 -18   42.07   59.71
  -4   5 -18    0.08   54.12
  -4   5 -19  -24.18   94.84
  -4   5 -19  -12.25   60.19
  -4   5 -20   30.28   59.80
  -4   5 -21  156.75  129.04
   4  -4 -21   13.44   84.95
  -4   4  21   35.24   77.70
  -4   4  21   59.06  149.61
  -4   4  20 1403.66  153.02
  -4   4  20 1275.45  158.56
   4  -4 -19 1339.58  152.63
  -4   4  19 1412.20  243.26
   4  -4 -18  228.85   96.23
  -4   4  18  233.27   92.74
   4  -4 -17  636.20  115.91
  -4   4  17  666.67  191.78
   4  -4 -16  184.12   86.13
  -4   4  16  144.60   81.47
   4  -4 -15  471.84  105.93
  -4   4  15  568.50  176.16
   4  -4 -14  124.81   76.79
  -4   4  14   -5.66   73.34
   4  -4 -13 4728.06  245.30
  -4   4  13 4899.13  376.53
   4  -4 -12  -41.12  110.53
  -4   4  12   16.91   61.09
   4  -4 -1114942.64  508.26
  -4   4  1114841.21  498.20
   4  -4 -10  306.27  114.01
  -4   4  10  470.24  118.84
   4  -4  -9 2467.41  265.67
  -4   4   9 2683.52  150.62
   4  -4  -8   98.43   61.80
  -4   4   8   81.19   61.24
   4  -4  -7  155.30   63.59
  -4   4   7  121.56  108.88
   4  -4  -6  947.18   86.38
  -4   4   6  809.09   84.18
   4  -4  -5  588.94  127.67
  -4   4   5  529.49   73.39
   4  -4  -4 1532.68   95.78
  -4   4   4 1621.70   94.27
   4  -4  -3  637.99   73.50
  -4   4   3  819.62  128.90
   4  -4  -2 5369.96  163.18
  -4   4   2 5571.84  252.72
   4  -4  -1   52.37   81.18
  -4   4   1   79.81   82.28
   4  -4   0  219.89   92.77
  -4   4   0  199.18   52.12
   4  -4   1 2633.45  168.91
  -4   4  -1 2647.18  106.66
   4  -4   2  106.58   71.91
  -4   4  -2   19.33   41.39
   4  -4   3  -31.27   64.32
  -4   4  -3   -3.28   36.15
  -4   4  -4  349.40   53.83
  -4   4  -5  729.33  113.12
  -4   4  -6   38.41   40.85
  -4   4  -7  118.30   46.91
  -4   4  -8  264.77   24.30
  -4   4  -8  218.98   54.61
  -4   4  -9   58.33   34.07
  -4   4  -9   85.34   47.58
  -4   4  -9  104.57   48.02
  -4   4 -10   99.91   35.22
  -4   4 -10  123.66   50.78
  -4   4 -10   96.10   48.20
  -4   4 -11  754.59   72.50
  -4   4 -11  661.89   75.21
  -4   4 -11  651.20   30.61
  -4   4 -12  485.72  117.06
  -4   4 -12  383.47  121.57
  -4   4 -12  426.08   44.38
  -4   4 -13  182.14   56.78
  -4   4 -13  158.47   20.59
  -4   4 -13  183.26   59.56
  -4   4 -14  729.15   77.66
  -4   4 -14  749.65   83.21
  -4   4 -14  611.22   48.20
  -4   4 -15    4.93   15.33
  -4   4 -15  133.43   80.11
  -4   4 -16  512.12   75.37
  -4   4 -17  241.45   66.89
  -4   4 -18  356.52  126.57
  -4   4 -19   84.79   59.80
  -4   4 -20   91.41  108.62
  -4   4 -21   51.16   60.10
  -4   4 -22  -82.26  112.91
   4  -3 -22   -7.73   79.38
  -4   3  22  -28.17  137.24
  -4   3  22  -23.67  121.61
   4  -3 -21  112.55  104.21
  -4   3  21  275.62  101.59
  -4   3  21  260.76   92.67
   4  -3 -20    3.87   84.03
  -4   3  20 -124.86   74.87
  -4   3  20  -17.21  144.11
   4  -3 -19   29.61   74.00
  -4   3  19   21.14   70.12
   4  -3 -18  138.91   95.94
  -4   3  18  321.94   88.09
   4  -3 -17  503.11  105.09
  -4   3  17  443.38  102.98
   4  -3 -16   18.87   72.22
  -4   3  16   57.39   69.96
   4  -3 -15 1913.84  167.69
  -4   3  15 1673.91  159.27
   4  -3 -1442203.58 1375.29
  -4   3  1441003.34 1320.11
   4  -3 -1313766.98  505.52
  -4   3  1313870.36  460.82
   4  -3 -12 2408.37  291.74
  -4   3  12 2435.85  164.02
   4  -3 -11 1395.30  255.15
  -4   3  11 1443.02  152.29
   4  -3 -1031816.36  964.90
  -4   3  1033221.24 1188.32
   4  -3  -9 9007.51  293.79
  -4   3   9 8984.89  286.82
   4  -3  -8 1638.16  184.41
  -4   3   8 1824.20  107.80
   4  -3  -7  910.75   84.94
  -4   3   7  949.04  144.95
   4  -3  -6  412.55  116.16
  -4   3   6  376.31   65.23
   4  -3  -5 3215.57  126.67
  -4   3   5 3285.81  126.24
   4  -3  -4  324.94   58.03
  -4   3   4  286.01   57.02
   4  -3  -3 3388.73  123.44
  -4   3   3 3581.90  123.10
   4  -3  -2  511.71  114.49
  -4   3   2  519.92   66.39
   4  -3  -124900.72  711.78
  -4   3   124725.72  586.98
   4  -3   0 5554.51  239.17
  -4   3   0 4673.29  147.59
   4  -3   1 2689.98   99.08
  -4   3  -1 2709.50  101.31
   4  -3   2  184.97   45.58
  -4   3  -2  244.44   47.20
   4  -3   3   33.36   36.74
  -4   3  -3   58.66   36.82
   4  -3   4   10.68   31.62
  -4   3  -4    4.90   31.28
  -4   3  -5 2345.54   89.57
  -4   3  -6 1723.39   77.83
  -4   3  -7 1763.17   51.44
  -4   3  -7 1783.42  135.01
  -4   3  -8   38.75   32.29
  -4   3  -8   10.73   35.28
  -4   3  -8    8.42   36.25
  -4   3  -9 2099.53   56.25
  -4   3  -9 2175.16   97.03
  -4   3  -9 2301.02  149.97
  -4   3 -10  169.65   76.52
  -4   3 -10   42.44   20.96
  -4   3 -10  119.83   70.52
  -4   3 -11    0.77   35.31
  -4   3 -11   20.17   32.94
  -4   3 -11   -6.62   16.76
  -4   3 -12   15.88   39.27
  -4   3 -12    1.38   31.48
  -4   3 -12   11.62   36.93
  -4   3 -13 1710.80   52.52
  -4   3 -13 1849.29   94.19
  -4   3 -14   15.80   68.89
  -4   3 -14    7.76   18.06
  -4   3 -15   14.02   19.39
  -4   3 -15   37.02   42.29
  -4   3 -16   64.96   50.10
  -4   3 -17  157.63  100.46
  -4   3 -18   72.50   53.89
  -4   3 -19  -38.74   88.73
  -4   3 -20   -0.22   42.54
  -4   3 -21   54.66   56.58
  -4   3 -22   50.95   58.60
  -4   3 -23   -7.33   53.67
   4  -2 -22 -117.73   71.94
  -4   2  22   50.09   70.07
  -4   2  22  117.11  103.53
   4  -2 -21  -76.08   79.22
  -4   2  21   34.56   65.80
  -4   2  21  -70.86   75.76
   4  -2 -20  109.86   80.94
  -4   2  20  121.54   69.38
  -4   2  20  -57.85   77.32
   4  -2 -19  391.98  110.95
  -4   2  19  485.34  101.94
   4  -2 -18  250.80   95.43
  -4   2  18  239.12  155.50
   4  -2 -17  -28.89   64.44
  -4   2  17   17.56   58.40
   4  -2 -16  416.18  103.80
  -4   2  16  314.06  168.13
   4  -2 -1513484.91  500.37
  -4   2  1513305.05  477.04
   4  -2 -1436414.37 1201.45
  -4   2  1434794.06 1435.60
   4  -2 -1328256.72  887.36
  -4   2  1327288.51  851.66
   4  -2 -12 2485.77  154.09
  -4   2  12 2491.36  244.36
   4  -2 -1111089.98  497.72
  -4   2  1110990.24  337.76
   4  -2 -10  601.49   87.59
  -4   2  10  562.02  147.81
   4  -2  -9  521.36   75.94
  -4   2   9  446.40   74.48
   4  -2  -8 4062.10  150.71
  -4   2   8 4137.83  150.09
   4  -2  -7  373.65   62.62
  -4   2   7  343.04  108.33
   4  -2  -6  374.54   61.08
  -4   2   6  348.08  103.96
   4  -2  -5  114.19   48.32
  -4   2   5   55.98   46.19
   4  -2  -437554.00 1077.15
  -4   2   437779.35  927.80
   4  -2  -314879.04  459.52
  -4   2   315293.30  352.58
   4  -2  -2 2852.01  107.99
  -4   2   2 3018.48  107.99
   4  -2  -112494.95  404.99
  -4   2   112615.19  305.20
   4  -2   054724.51 1380.13
  -4   2   053982.98 1378.67
   4  -2   1 8073.75  194.43
  -4   2  -1 8912.64  292.01
   4  -2   2  534.39   52.23
  -4   2  -2  488.99   52.04
   4  -2   3 2338.15   84.90
  -4   2  -3 2487.28   86.66
   4  -2   4 5692.33  140.93
  -4   2  -4 5725.75  139.69
  -4   2  -5 4984.88  127.96
  -4   2  -6   15.59   29.90
  -4   2  -7 4007.28   88.82
  -4   2  -7 4140.67  113.54
  -4   2  -8 3573.77   83.71
  -4   2  -8 3644.34  117.00
  -4   2  -8 4099.16  115.77
  -4   2  -929822.63  682.42
  -4   2  -931567.68  885.12
  -4   2  -932167.20  775.24
  -4   2 -10  704.67   59.05
  -4   2 -10  749.83   64.59
  -4   2 -10  761.90   39.88
  -4   2 -11  286.60   45.44
  -4   2 -11  190.00   50.67
  -4   2 -12    5.19   36.26
  -4   2 -12    8.91   32.41
  -4   2 -13    9.34   61.19
  -4   2 -13   14.70   21.11
  -4   2 -14  310.54   98.29
  -4   2 -14  397.02   34.13
  -4   2 -15 3969.06  140.55
  -4   2 -15 3676.71   96.63
  -4   2 -16   29.86   28.86
  -4   2 -16  614.22   56.14
  -4   2 -17   72.90   49.02
  -4   2 -18  -18.26   46.91
  -4   2 -19  429.68  125.91
  -4   2 -20  -16.84   47.59
  -4   2 -21   90.75   98.37
  -4   2 -22   24.59   56.00
  -4   2 -23  -24.31   95.17
   4  -1 -22  -62.53   71.21
  -4   1  22   64.13   92.70
  -4   1  22   32.25   68.02
   4  -1 -21   72.41   70.91
  -4   1  21    6.26   55.31
  -4   1  21  -49.04   69.21
   4  -1 -20   66.75   72.94
  -4   1  20  -34.35   57.31
  -4   1  20   47.32   69.72
   4  -1 -19  299.65  104.37
  -4   1  19  381.68  171.76
   4  -1 -18 1341.94  139.82
  -4   1  18 1189.91  129.19
   4  -1 -17  -47.76   60.47
  -4   1  17   45.68   57.14
   4  -1 -16  758.03  113.19
  -4   1  16  694.71  107.68
   4  -1 -15   93.54   77.60
  -4   1  15   77.10   70.36
   4  -1 -14 8754.22  329.14
  -4   1  14 8685.48  481.68
   4  -1 -13  577.19   94.56
  -4   1  13  551.24   93.18
   4  -1 -12 3174.02  160.06
  -4   1  12 3453.80  258.45
   4  -1 -11    0.10   48.69
  -4   1  11  -12.79   47.04
   4  -1 -10 1819.89  111.59
  -4   1  10 1881.74  183.59
   4  -1  -9 4700.43  251.47
  -4   1   9 4433.41  156.77
   4  -1  -8  -38.58   45.46
  -4   1   8  -50.61   45.47
   4  -1  -7 2955.40  119.24
  -4   1   7 2833.16  185.48
   4  -1  -6   26.43   35.59
  -4   1   6  -20.64   34.76
   4  -1  -513328.21  316.70
  -4   1   513416.68  318.44
   4  -1  -443425.05 1103.55
  -4   1   444240.78 1108.66
   4  -1  -323731.14  543.65
  -4   1   323647.77  537.52
   4  -1  -2 3428.14  109.50
  -4   1   2 3374.99  109.67
   4  -1  -1 9787.80  219.13
  -4   1   1 9737.40  218.39
   4  -1   0   65.48   64.87
  -4   1   0   84.38   66.11
   4  -1   1 7626.90  170.42
  -4   1  -1 7873.55  175.90
   4  -1   2  552.60   82.35
  -4   1  -2  517.26   47.73
   4  -1   3 4298.12  106.41
  -4   1  -3 4494.48  110.94
   4  -1   412054.84  245.73
  -4   1  -411975.80  244.00
  -4   1  -5 2919.67  142.54
  -4   1  -628027.80  708.36
  -4   1  -627142.71  588.67
  -4   1  -7 1015.12   72.29
  -4   1  -7 1019.51   53.42
  -4   1  -7  998.00   48.76
  -4   1  -8 4823.45  104.42
  -4   1  -8 4885.10  171.23
  -4   1  -8 4870.80  111.23
  -4   1  -9 3175.52   88.31
  -4   1  -9 3123.41  122.94
  -4   1 -1021014.53  480.00
  -4   1 -1020954.20  534.64
  -4   1 -11  542.15   49.16
  -4   1 -11  544.06   41.13
  -4   1 -12  193.38   32.96
  -4   1 -12  263.33   41.98
  -4   1 -13 2616.60  147.85
  -4   1 -13 2498.20   75.57
  -4   1 -14 1630.07  134.77
  -4   1 -14 1560.63   60.56
  -4   1 -15 1938.05  114.51
  -4   1 -15 2193.99  100.81
  -4   1 -16   15.24   25.49
  -4   1 -16   -6.24   69.74
  -4   1 -17  830.95   78.02
   4  -1  18 7639.53  213.21
  -4   1 -18 7757.89  261.59
   4  -1  19 4877.73  156.01
  -4   1 -19 4635.97  192.29
   4  -1  20 3026.44  109.44
  -4   1 -20 3310.92  154.87
   4  -1  21   77.34   35.83
  -4   1 -21  124.67   57.46
  -4   1 -22   -1.60   44.99
  -4   1 -23  -14.54   49.91
  -4   1 -24    7.25   84.46
   4   0 -22  -39.77  143.59
  -4   0  22   88.63   97.57
  -4   0  22  -26.03  135.46
   4   0 -21   32.67   79.54
  -4   0  21   43.65   73.52
  -4   0  21   19.81   54.99
   4   0 -20   64.51   72.04
  -4   0  20  -24.23   52.66
  -4   0  20   39.90   68.02
   4   0 -19  431.47  105.41
  -4   0  19  340.08  101.43
   4   0 -18  349.15  101.00
  -4   0  18  371.47   95.88
   4   0 -17 3282.64  201.78
  -4   0  17 3552.98  307.38
   4   0 -16  154.46   77.40
  -4   0  16   45.22   72.94
   4   0 -15   56.05   64.40
  -4   0  15   20.50   62.27
   4   0 -14  198.94   77.41
  -4   0  14  167.17  128.90
   4   0 -13   47.71   61.12
  -4   0  13   71.49   57.71
   4   0 -12 3036.22  152.43
  -4   0  12 2908.81  233.26
   4   0 -11  439.71   75.82
  -4   0  11  425.22   74.43
   4   0 -10 1423.92   97.97
  -4   0  10 1238.11   95.03
   4   0  -9  524.83   70.80
  -4   0   9  515.47   68.12
   4   0  -8  334.29   59.64
  -4   0   8  296.14   99.91
   4   0  -7  124.26   48.40
  -4   0   7  151.80   46.79
   4   0  -6  160.27   47.83
  -4   0   6  138.57   47.03
   4   0  -5 4240.12  204.75
  -4   0   5 4265.46  203.81
   4   0  -419751.82  447.62
  -4   0   420020.97  449.60
   4   0  -3 2305.53   88.81
  -4   0   3 2317.83   89.18
   4   0  -2 3402.05  102.09
  -4   0   2 3452.79  102.45
   4   0  -1 1211.06   61.45
  -4   0   1 1337.94  108.29
   4   0   0 1315.23   63.56
  -4   0   0 1388.06   64.44
   4   0   110891.31  219.95
  -4   0  -111483.24  298.95
   4   0   2 3536.71   88.65
  -4   0  -2 3597.79   89.60
   4   0   330462.13  631.76
  -4   0  -330600.80  636.86
   4   0   412191.55  231.19
  -4   0  -412500.61  231.33
  -4   0  -5  208.22   40.68
  -4   0  -5  176.93   51.65
  -4   0  -621714.25  466.11
  -4   0  -622547.45  447.46
  -4   0  -7 2408.63  116.15
  -4   0  -7 2370.06  101.78
  -4   0  -7 2314.79   62.45
  -4   0  -8 2015.66   59.92
  -4   0  -8 2086.31   67.84
  -4   0  -9 2162.58   94.61
  -4   0  -9 2051.19   65.59
  -4   0 -10    1.70   21.78
  -4   0 -11  301.29   59.04
  -4   0 -11  331.37   37.30
   4   0  12   46.09   30.62
  -4   0 -12   56.98   29.56
  -4   0 -12   84.45   29.69
   4   0  13   35.59   30.29
  -4   0 -13   63.75   31.62
  -4   0 -13   16.11   29.93
   4   0  14 9950.05  318.02
  -4   0 -14 9826.39  330.55
  -4   0 -14 9336.58  234.61
   4   0  1511080.15  293.83
  -4   0 -1511041.49  302.33
  -4   0 -1511287.34  383.80
   4   0  16    0.38   33.19
  -4   0 -16  -14.30   37.69
  -4   0 -16   15.76   32.81
   4   0  17  991.90   69.61
  -4   0 -17 1050.38   79.54
   4   0  18  177.51   47.90
  -4   0 -18  288.25   60.03
   4   0  19 4226.10  151.77
  -4   0 -19 4335.15  179.14
   4   0  20 3762.23  143.50
  -4   0 -20 3909.80  164.65
   4   0  21   63.12   41.96
  -4   0 -21   90.48   54.21
   4   0  22 1217.23   79.07
  -4   0 -22 1400.65  167.50
   4   0  23  406.69   94.59
  -4   0 -23  540.51   77.66
   4   0  24  196.74   75.57
  -4   0 -24    2.76  108.17
  -4  -1  23  127.73  186.49
  -4  -1  23  236.25   65.22
   4   1 -22  314.25  108.62
  -4  -1  22  182.11  103.87
  -4  -1  22  295.31  114.66
   4   1 -21  126.03  165.14
  -4  -1  21  148.00   61.09
  -4  -1  21  180.48   89.66
   4   1 -20   50.54   67.11
  -4  -1  20   -5.75   44.16
  -4  -1  20  -55.53  112.34
   4   1 -19  137.31   85.37
  -4  -1  19   77.83   80.74
   4   1 -18  185.29   89.64
  -4  -1  18  240.91   83.68
   4   1 -17 1098.82  128.59
  -4  -1  17 1333.22  218.47
   4   1 -16 4954.15  235.16
  -4  -1  16 4681.34  228.48
   4   1 -15 7885.51  297.13
  -4  -1  15 7720.64  283.17
   4   1 -14  836.59  173.96
  -4  -1  14  688.90  165.84
   4   1 -13 1272.74  185.13
  -4  -1  13 1207.95  103.73
   4   1 -12  604.22  142.73
  -4  -1  12  511.73   80.03
   4   1 -11 1180.52  169.97
  -4  -1  11 1335.95  161.04
   4   1 -10 1455.64  161.88
  -4  -1  10 1445.51   92.29
   4   1  -9 1742.60   99.11
  -4  -1   9 1840.34  159.21
   4   1  -8   -8.50   38.58
  -4  -1   8   17.82   38.79
   4   1  -719419.22  477.43
  -4  -1   719470.36  594.05
   4   1  -620410.57  482.49
  -4  -1   620702.85  478.94
   4   1  -5 1825.66  144.15
  -4  -1   5 1829.36  141.30
   4   1  -4 6341.52  162.04
  -4  -1   4 6425.64  160.81
   4   1  -3  130.00   38.71
  -4  -1   3  116.13   38.61
   4   1  -220591.92  438.98
  -4  -1   221373.53  450.66
   4   1  -1  596.45   45.88
  -4  -1   1  416.33   45.73
   4   1   032998.79  783.99
  -4  -1   030336.16  643.95
   4   1   115423.41  345.67
  -4  -1  -115079.03  282.15
   4   1   2  202.71   45.43
  -4  -1  -2  176.19   25.66
   4   1   3 5537.57  135.38
  -4  -1  -3 5837.30  134.93
  -4  -1  -4 9520.07  155.83
  -4  -1  -4 9413.30  211.75
  -4  -1  -5  214.54   40.72
  -4  -1  -5  201.00   39.66
  -4  -1  -613325.46  282.06
  -4  -1  -614754.07  308.04
  -4  -1  -614027.75  244.93
  -4  -1  -7 1560.51  114.41
  -4  -1  -7 1520.05   43.90
  -4  -1  -8 6272.46  152.85
  -4  -1  -8 6090.59  143.91
   4   1   9 6749.27  156.01
  -4  -1  -9 6977.18  171.40
  -4  -1  -9 6778.16  157.81
   4   1  10   47.70   50.18
  -4  -1 -10    2.53   29.01
  -4  -1 -10   59.07   35.53
   4   1  11 2489.18   82.74
  -4  -1 -11 2498.31   84.23
  -4  -1 -11 2593.69   67.83
   4   1  12   38.18   30.15
  -4  -1 -12    4.19   22.66
  -4  -1 -12   38.31   53.86
   4   1  13 1152.78  109.37
  -4  -1 -13 1143.01   67.09
  -4  -1 -13 1218.69   91.39
   4   1  1414812.56  369.34
   4   1  1414766.32  350.24
  -4  -1 -1415048.56  360.36
  -4  -1 -1415103.13  380.36
   4   1  15 1791.89  102.48
   4   1  15 1771.32   90.21
  -4  -1 -15 1877.88  103.86
  -4  -1 -15 2049.38   96.97
   4   1  16 1872.56   99.84
   4   1  16 1984.21   90.79
  -4  -1 -16 1866.45   98.11
  -4  -1 -16 2028.17  101.49
   4   1  17  255.54   49.39
   4   1  17  212.49   44.77
  -4  -1 -17  249.38   85.67
   4   1  18  550.50   59.90
   4   1  18  522.11   55.75
  -4  -1 -18  567.50   62.38
   4   1  19  676.48   64.29
   4   1  19  623.96   60.80
  -4  -1 -19  541.62  113.23
   4   1  20   91.60   43.72
   4   1  20   14.50   41.69
  -4  -1 -20   69.24   46.37
   4   1  21  962.24   73.10
   4   1  21  775.35   73.95
  -4  -1 -21  871.32   82.54
   4   1  22   18.71   81.49
   4   1  22  128.63   39.17
  -4  -1 -22   19.64   92.43
   4   1  23    3.18   21.42
   4   1  23  169.81   70.80
  -4  -1 -23   67.67   48.35
   4   1  24  429.72  111.16
  -4  -1 -24  614.74  132.43
   4   2 -22  644.78  131.06
  -4  -2  22   44.27  124.48
  -4  -2  22  702.97   74.03
   4   2 -21   88.50   82.40
  -4  -2  21   -4.13   80.99
   4   2 -20   40.90  159.51
  -4  -2  20  129.74   52.87
  -4  -2  20  180.53   86.92
   4   2 -19  410.96  103.20
  -4  -2  19  328.65   99.94
   4   2 -18   57.51   67.33
  -4  -2  18  -24.32   64.11
   4   2 -17  284.33   88.98
  -4  -2  17  172.22  150.74
   4   2 -16  444.73   96.48
  -4  -2  16  417.43   92.21
   4   2 -15   94.29   67.88
  -4  -2  15   34.23   63.42
   4   2 -14 1399.15  201.92
  -4  -2  14 1218.14  192.92
   4   2 -13   14.02   96.22
  -4  -2  13  -23.23   52.04
   4   2 -12 1112.85  103.39
  -4  -2  12 1157.18   99.17
   4   2 -11 1916.49  119.17
  -4  -2  11 2052.71  112.42
   4   2 -10  123.94   54.82
  -4  -2  10  133.47   53.16
   4   2  -9 1245.49   87.40
  -4  -2   9 1269.61   83.54
   4   2  -825021.92  615.04
  -4  -2   823568.20  569.97
   4   2  -7   54.63   46.18
  -4  -2   7   90.36   45.86
   4   2  -6 6349.51  180.47
  -4  -2   6 6411.14  175.27
   4   2  -552093.33 1475.34
  -4  -2   549192.09 1391.63
   4   2  -4 3372.44  112.04
  -4  -2   4 3587.92  113.66
   4   2  -3 5827.21  140.12
  -4  -2   3 6011.83  143.55
   4   2  -2 1007.69   54.61
  -4  -2   2  965.64   55.20
   4   2  -111864.24  238.96
  -4  -2   111833.97  303.46
   4   2   026377.37  601.92
  -4  -2   026662.27  605.24
   4   2   1 1021.45   62.52
  -4  -2  -1 1021.00   61.26
   4   2   221306.56  380.92
  -4  -2  -224247.04  465.88
   4   2   355235.24 1259.11
  -4  -2  -355763.98 1270.40
  -4  -2  -356048.03 1440.56
  -4  -2  -462356.17 1442.09
  -4  -2  -463000.54 1634.12
  -4  -2  -5  358.21   24.16
  -4  -2  -5  308.15   15.41
  -4  -2  -5  315.64   48.11
  -4  -2  -6 1610.03  123.00
  -4  -2  -6 1485.67   45.49
  -4  -2  -6 1551.30   50.62
   4   2   7 5113.10  133.83
  -4  -2  -7 5235.62  109.15
  -4  -2  -7 5287.81  203.60
   4   2   8 2051.87   79.16
  -4  -2  -8 2067.73   67.33
  -4  -2  -8 2154.52  135.22
   4   2   9  656.08   92.33
  -4  -2  -9  767.86   49.74
  -4  -2  -9  692.68   95.84
   4   2  10 5834.67  149.50
   4   2  10 6025.14  113.98
  -4  -2 -10 6140.96  115.30
  -4  -2 -10 5846.36  148.33
   4   2  11  155.02   38.50
   4   2  11  101.87   38.09
  -4  -2 -11  100.70   39.51
  -4  -2 -11  132.10   40.95
   4   2  12  281.90   27.99
   4   2  12  344.04   46.28
  -4  -2 -12  311.24   46.99
  -4  -2 -12  300.62   30.22
   4   2  13  875.61   42.26
   4   2  13  944.14  109.52
  -4  -2 -13  860.70   76.35
  -4  -2 -13  797.56  110.35
   4   2  14 3335.86   92.26
   4   2  14 3490.26  192.41
  -4  -2 -14 3475.86  100.86
  -4  -2 -14 3404.44  123.00
   4   2  15  102.14   33.57
   4   2  15  102.88   47.51
  -4  -2 -15   76.73   49.83
  -4  -2 -15  108.98   64.99
   4   2  16 2288.63   83.08
   4   2  16 2328.68  109.73
  -4  -2 -16 2445.78   90.72
   4   2  17   11.05   27.39
   4   2  17   54.00   38.11
  -4  -2 -17  -13.18   31.69
   4   2  18  151.42   37.95
   4   2  18  176.68   49.91
  -4  -2 -18  177.12   76.24
   4   2  19  537.96   50.38
   4   2  19  569.85   65.91
  -4  -2 -19  552.34   59.60
   4   2  20   31.24   34.16
   4   2  20  107.14   76.98
  -4  -2 -20   39.97   39.90
   4   2  21   87.92   71.07
   4   2  21  213.11   89.35
  -4  -2 -21  100.64   83.54
   4   2  22  111.95   56.18
   4   2  22   76.41   85.80
  -4  -2 -22   65.99   47.22
   4   2  23  182.72   51.95
   4   2  23  -37.41   37.72
  -4  -2 -23  193.37   50.81
   4   2  24  807.85   83.16
  -4  -2 -24  738.49  139.66
   4   3 -22  384.89  119.92
  -4  -3  22   22.07  205.94
  -4  -3  22  397.06   58.52
   4   3 -21  223.41  100.79
  -4  -3  21  -64.89   95.15
  -4  -3  21  297.27   83.15
   4   3 -20  337.63   99.77
  -4  -3  20  254.54   51.62
  -4  -3  20   30.75   97.16
   4   3 -19  -30.20  131.42
  -4  -3  19   33.37   38.60
  -4  -3  19   29.22   70.47
   4   3 -18  168.70   83.59
  -4  -3  18   19.70  141.58
   4   3 -17  591.76  110.01
  -4  -3  17  713.77  106.11
   4   3 -16  114.79   77.09
  -4  -3  16  128.57   72.71
   4   3 -15    2.48   52.45
  -4  -3  15   -0.41   50.87
   4   3 -14  131.28  143.44
  -4  -3  14  240.84   76.66
   4   3 -13 5424.73  225.33
  -4  -3  13 5459.85  324.49
   4   3 -12 3374.81  162.66
  -4  -3  12 3305.10  153.78
   4   3 -11  439.88   77.77
  -4  -3  11  558.67   74.98
   4   3 -10 1843.69  107.08
  -4  -3  10 1988.28  105.13
   4   3  -9 4944.97  161.39
  -4  -3   9 4709.91  234.05
   4   3  -8 1039.36   77.22
  -4  -3   8 1004.61   74.61
   4   3  -722304.74  651.11
  -4  -3   721313.06  506.18
   4   3  -6 3000.31  176.76
  -4  -3   6 2813.23  108.99
   4   3  -521726.11  608.31
  -4  -3   521113.46  478.76
   4   3  -414339.60  403.52
  -4  -3   413950.72  307.31
   4   3  -349055.51 1349.01
  -4  -3   351196.97 1365.57
   4   3  -2   10.88   24.94
  -4  -3   2   -3.66   44.45
   4   3  -1 7316.17  203.76
  -4  -3   1 7343.41  198.74
   4   3   013386.69  246.02
  -4  -3   014061.30  306.24
   4   3   1 5702.54  121.46
  -4  -3  -1 5437.02  118.88
   4   3   2  486.60   26.54
  -4  -3  -2  301.67   26.29
  -4  -3  -371338.50 1687.82
  -4  -3  -389416.76 2408.99
  -4  -3  -4100649.8 3205.08
   4   3   553846.57 1385.46
  -4  -3  -556712.04 1608.64
   4   3   6 1027.75   68.17
  -4  -3  -6 1042.20   31.24
  -4  -3  -6 1016.89  121.21
   4   3   7 2083.76  140.92
  -4  -3  -7 2096.17   33.41
  -4  -3  -7 2296.40  144.40
   4   3   8 2856.58   48.04
   4   3   8 2975.48  100.06
  -4  -3  -8 3056.62  167.60
  -4  -3  -8 3089.06   71.51
   4   3   9  697.69   37.80
   4   3   9  597.72   54.84
  -4  -3  -9  628.02   58.35
  -4  -3  -9  631.09   39.33
   4   3  10  460.75   52.29
   4   3  10  466.83   23.20
  -4  -3 -10  433.40   53.55
  -4  -3 -10  467.21   40.52
   4   3  11  239.29   37.80
   4   3  11  218.98   46.34
  -4  -3 -11  229.12   40.75
  -4  -3 -11  192.71   48.26
   4   3  12 1230.38   67.52
   4   3  12 1264.19   75.42
  -4  -3 -12 1318.45  129.93
  -4  -3 -12 1257.81   45.64
   4   3  13  252.61   48.52
   4   3  13  289.84   52.27
  -4  -3 -13  257.22   31.80
  -4  -3 -13  169.70   53.21
   4   3  14  635.90   66.12
   4   3  14  748.58  114.43
  -4  -3 -14  656.00  119.18
  -4  -3 -14  634.54   44.24
   4   3  15   -5.04   67.13
   4   3  15    6.12   38.71
  -4  -3 -15   -7.17   39.73
  -4  -3 -15   12.12   25.05
   4   3  16 1145.62   85.76
   4   3  16 1250.58  140.29
  -4  -3 -16 1023.07   99.53
   4   3  17  237.66   36.74
   4   3  17  303.41  100.95
  -4  -3 -17  303.53   42.91
   4   3  18 1824.26   73.47
   4   3  18 1949.04  169.99
  -4  -3 -18 1780.44   82.12
   4   3  19  146.36   53.79
   4   3  19  110.89   34.98
  -4  -3 -19   83.96   40.55
   4   3  20   47.96   33.74
   4   3  20   84.98   49.83
  -4  -3 -20   62.33   67.37
   4   3  21   57.45   50.84
   4   3  21   64.26   59.37
  -4  -3 -21   42.02   68.95
   4   3  22  -12.18   38.42
   4   3  22   34.26   45.79
  -4  -3 -22   26.02   37.92
   4   3  23  355.90   70.81
  -4  -3 -23  375.81   61.56
   4   3  24 1064.36   96.16
  -4  -3 -24  866.45  140.56
   4   4 -22  167.45  209.21
  -4  -4  22   48.10  114.73
  -4  -4  22  384.12   84.04
   4   4 -21 -120.52   88.95
  -4  -4  21   -6.98   83.56
  -4  -4  21  -27.99   35.43
   4   4 -20   50.38   75.61
  -4  -4  20  -27.65   74.24
  -4  -4  20   28.14   55.93
   4   4 -19  316.41  101.17
  -4  -4  19  -27.07   97.68
  -4  -4  19  338.41   45.14
   4   4 -18  -17.20  123.75
  -4  -4  18   25.21   32.11
  -4  -4  18   -7.31  118.50
   4   4 -17   35.66   67.78
  -4  -4  17    4.99   63.81
   4   4 -16  242.96   89.78
  -4  -4  16  324.97   85.32
   4   4 -15  427.77   93.32
  -4  -4  15  398.72   88.40
   4   4 -14 5956.65  382.28
  -4  -4  14 5878.86  234.28
   4   4 -13 5146.33  226.79
  -4  -4  13 5419.98  331.37
   4   4 -12  686.72   89.12
  -4  -4  12  621.01  149.54
   4   4 -11 1223.16   98.54
  -4  -4  11 1206.48   95.71
   4   4 -10 3365.79  141.44
  -4  -4  10 3388.98  136.90
   4   4  -9 1026.36  144.57
  -4  -4   9 1072.80   80.52
   4   4  -8  252.24   54.21
  -4  -4   8  176.24   50.43
   4   4  -7 2756.81  109.77
  -4  -4   7 2709.63  102.95
   4   4  -6 2352.49  100.11
  -4  -4   6 2352.43   94.08
   4   4  -5   33.04   63.10
  -4  -4   5   20.09   33.85
   4   4  -4 1653.90  123.17
  -4  -4   4 1701.92   73.51
   4   4  -327683.73  622.09
  -4  -4   327722.47  614.38
   4   4  -2 2315.02   75.53
  -4  -4   2 2245.07  115.08
   4   4  -126483.95  551.13
  -4  -4   126126.93  540.39
   4   4   0  201.21   25.01
  -4  -4   0  250.40   24.62
   4   4   1  308.37   23.73
  -4  -4  -1  458.69   50.11
  -4  -4  -1  488.41   39.30
   4   4   229045.99  536.85
  -4  -4  -229637.93  654.38
   4   4   3 6556.32   86.09
   4   4   3 6733.69  102.81
  -4  -4  -3 7017.92  174.25
   4   4   424268.88  643.75
  -4  -4  -424383.24  538.48
   4   4   5 5933.46  155.87
  -4  -4  -5 6065.68  158.19
   4   4   612432.06  274.58
  -4  -4  -610835.67  155.20
  -4  -4  -612699.81  281.77
   4   4   7 2186.91   41.18
   4   4   7 1954.59   90.25
  -4  -4  -7 2088.49   45.20
  -4  -4  -7 2111.30  156.81
   4   4   8  227.16   48.48
   4   4   8  186.94   22.51
  -4  -4  -8  208.93   25.55
  -4  -4  -8  238.85   49.30
   4   4   9 7931.51  200.13
   4   4   9 7888.18  127.04
  -4  -4  -9 8049.47  201.88
  -4  -4  -9 7793.96  127.85
   4   4  10 1314.61  127.37
   4   4  10 1205.10   32.29
  -4  -4 -10 1233.00   56.25
  -4  -4 -10 1296.86  128.28
   4   4  11   15.90   79.84
   4   4  11   38.54   31.84
  -4  -4 -11   89.61   21.63
  -4  -4 -11  173.21   46.38
   4   4  12 1321.36   85.16
  -4  -4 -12 1171.23   74.39
  -4  -4 -12 1353.15   84.95
   4   4  13   22.31   44.33
   4   4  13   31.21   35.26
  -4  -4 -13  -48.46   78.85
  -4  -4 -13   72.61   40.14
   4   4  14 1811.62  100.69
   4   4  14 1676.23   55.40
  -4  -4 -14 1788.61  102.71
  -4  -4 -14 1687.70   96.46
   4   4  15  844.85   79.85
   4   4  15  760.52   41.62
  -4  -4 -15  585.45   78.92
  -4  -4 -15  715.34   77.99
   4   4  16  152.97   55.59
   4   4  16  102.05   49.79
  -4  -4 -16  137.35   58.52
   4   4  17  -13.72   42.69
   4   4  17   14.97   39.93
  -4  -4 -17   16.53   46.26
   4   4  18  566.44   75.06
   4   4  18  505.59   43.64
  -4  -4 -18  444.03   85.73
   4   4  19   22.93   49.63
   4   4  19   11.67   27.88
  -4  -4 -19   91.43   57.72
   4   4  20   85.57   53.39
   4   4  20   43.21   30.70
  -4  -4 -20   17.51   36.23
   4   4  21  126.06  107.79
   4   4  21   57.19   62.49
  -4  -4 -21  143.87   43.82
   4   4  22  118.80   88.81
   4   4  22    0.75   18.53
  -4  -4 -22   57.41   37.29
   4   4  23 1007.79   96.88
  -4  -4 -23  645.96  125.41
   4   4  24  290.95   63.81
   4   4  24   -8.78   34.50
  -4  -4 -24  222.17   85.18
   4   5 -22  414.97  120.28
  -4  -5  22   19.89  114.94
  -4  -5  22  262.59   69.41
   4   5 -21 1748.37  324.78
  -4  -5  21 1968.81  188.34
   4   5 -20 1327.73  151.54
  -4  -5  20 1088.33  147.29
  -4  -5  20 1058.30   62.23
   4   5 -19   -1.60   74.68
  -4  -5  19  -33.21  126.43
  -4  -5  19   41.63   46.89
   4   5 -18    4.88   70.48
  -4  -5  18   21.79   26.66
  -4  -5  18  -25.28   66.46
   4   5 -17  337.61  173.55
  -4  -5  17  409.79   97.47
   4   5 -16  258.20   89.57
  -4  -5  16  237.98   85.72
   4   5 -15  484.85   98.76
  -4  -5  15  445.61   96.45
   4   5 -14 6104.34  258.99
  -4  -5  14 6045.15  247.27
   4   5 -1329625.41 1155.49
  -4  -5  1328730.88  880.30
   4   5 -12  252.08   90.41
  -4  -5  12  282.25   89.97
   4   5 -11 1246.57  110.60
  -4  -5  11 1258.47  177.77
   4   5 -10 1650.30  184.41
  -4  -5  10 1740.91  173.75
   4   5  -9 1308.63   88.36
  -4  -5   9 1174.92  148.61
   4   5  -8 1038.36   78.72
  -4  -5   8 1230.23  131.95
   4   5  -7  100.70   65.06
  -4  -5   7  -21.07   37.03
   4   5  -6 1142.38   73.28
  -4  -5   6  988.55   70.26
   4   5  -5  182.61   50.35
  -4  -5   5  205.37   49.33
   4   5  -459873.49 1796.22
  -4  -5   459941.00 1590.43
   4   5  -386611.82 2528.45
  -4  -5   383057.53 2401.17
   4   5  -219739.76  422.09
  -4  -5   220273.12  502.17
   4   5  -1 9138.98  181.49
  -4  -5   1 9257.65  250.76
  -4  -5   1 9376.42  181.37
   4   5   0 4802.61  131.69
  -4  -5   0 4948.29  165.29
  -4  -5   0 4175.10   86.14
   4   5   1 1153.18   35.97
  -4  -5  -1 1146.08  102.63
   4   5   2 3614.61   63.14
   4   5   2 3332.64   59.76
  -4  -5  -2 3347.60  163.86
   4   5   336154.39  930.76
   4   5   333513.62  683.30
   4   5   333528.57  686.59
  -4  -5  -334459.64  779.27
   4   5   4 1780.42   82.16
   4   5   4 1906.21   42.70
   4   5   4 1840.81   40.49
  -4  -5  -4 1912.89   82.29
   4   5   5 8236.16  126.43
   4   5   5 8253.85  196.74
  -4  -5  -5 8357.19  198.86
   4   5   6  271.76   92.12
   4   5   6  281.62   20.80
  -4  -5  -6  256.79   53.24
  -4  -5  -6  291.20   21.39
   4   5   7 7543.55  195.40
   4   5   7 7957.13  116.41
  -4  -5  -7 7539.62  280.93
  -4  -5  -7 7507.69  133.17
   4   5   8 6306.42  252.59
   4   5   8 6758.91  124.15
  -4  -5  -8 6262.97  172.46
  -4  -5  -8 6426.92  125.54
   4   5   9   48.18   39.06
   4   5   9   26.63   20.55
  -4  -5  -9   20.65   13.85
  -4  -5  -9   25.37   38.82
   4   5  10   27.17   42.12
   4   5  10   52.16   24.98
  -4  -5 -10   43.78   28.93
  -4  -5 -10   71.55   42.12
   4   5  11    4.28   44.51
   4   5  11   52.80   16.84
  -4  -5 -11   83.63   19.17
  -4  -5 -11   18.57   45.18
   4   5  12   51.15   46.63
   4   5  12   34.61   33.01
  -4  -5 -12   87.72   38.68
  -4  -5 -12   71.93   47.28
   4   5  13 1928.74  105.70
   4   5  13 1845.00   52.95
  -4  -5 -13 1913.12  108.11
  -4  -5 -13 1841.57   60.05
   4   5  14 2031.66  177.97
   4   5  14 1790.72   56.04
  -4  -5 -14 1871.35  110.18
  -4  -5 -14 1702.63   98.87
   4   5  15  101.17   95.97
   4   5  15   73.67   42.91
  -4  -5 -15   56.32   50.21
   4   5  16 1603.62   59.15
   4   5  16 1880.98  183.69
  -4  -5 -16 1570.01   66.45
   4   5  17  115.39   50.62
   4   5  17  141.49  108.47
  -4  -5 -17  142.01   35.50
   4   5  18   32.13   53.63
   4   5  18   79.61   45.04
  -4  -5 -18    6.73   31.66
   4   5  19  450.41   80.68
   4   5  19  434.58   41.98
  -4  -5 -19  424.77   50.52
   4   5  20   41.78   58.63
   4   5  20    9.54   29.50
  -4  -5 -20   88.68   35.83
   4   5  21  103.57   60.09
   4   5  21   -2.06   48.97
  -4  -5 -21   56.03   65.52
   4   5  22  -75.78   54.64
   4   5  22    0.36   15.90
  -4  -5 -22  -35.56   59.90
   4   5  23   -7.56   51.75
   4   5  23   -0.03   15.03
  -4  -5 -23    1.10   59.54
   4   5  24  579.55  162.39
  -4  -5 -24  422.93   66.36
   4   6 -21   -6.17   84.73
  -4  -6  21  -32.98   79.67
   4   6 -20   51.14   77.13
  -4  -6  20   -0.04   21.39
  -4  -6  20   16.05  125.76
   4   6 -19   51.44  141.89
  -4  -6  19    5.11  138.35
  -4  -6  19   50.94   41.29
   4   6 -18  781.34  125.02
  -4  -6  18  932.98  120.75
  -4  -6  18  725.35   68.95
   4   6 -17  286.05   89.23
  -4  -6  17  240.97   86.71
  -4  -6  17  171.18   29.26
   4   6 -16  -78.10  127.81
  -4  -6  16   79.70   68.38
   4   6 -15 1401.04  136.96
  -4  -6  15 1506.38  127.71
   4   6 -14  127.41   77.76
  -4  -6  14  115.30   71.54
   4   6 -13 6756.13  428.66
  -4  -6  13 7419.44  275.86
   4   6 -1214609.97  515.25
  -4  -6  1214487.01  495.74
   4   6 -1134564.89 1060.84
  -4  -6  1134008.56 1021.73
   4   6 -10 7487.08  379.67
  -4  -6  10 7603.65  248.46
   4   6  -9 4787.42  173.45
  -4  -6   9 4770.21  166.75
   4   6  -8    2.89   44.12
  -4  -6   8   55.67   44.05
   4   6  -7  808.39  133.02
  -4  -6   7 1020.81   74.26
   4   6  -6 2510.91  111.22
  -4  -6   6 2563.33  171.20
   4   6  -5  -17.71   69.98
  -4  -6   5   25.63   37.72
   4   6  -480380.05 2415.50
  -4  -6   480196.84 2350.22
   4   6  -3122077.3 4214.75
  -4  -6   3115002.6 3848.99
  -4  -6   3119310.7 3884.06
   4   6  -2 6329.97  154.04
  -4  -6   2 6232.23  186.60
   4   6  -1 5398.42  121.18
  -4  -6   1 5435.08  168.41
   4   6   0 6349.13  174.59
  -4  -6   0 6554.23  197.46
   4   6   1 1677.43   79.40
  -4  -6  -1 1829.85   67.30
   4   6   2   18.89   29.87
   4   6   2   54.49   31.07
   4   6   2   46.88   57.36
  -4  -6  -2   44.88   30.71
   4   6   3  884.57   30.29
   4   6   3  896.89   58.68
   4   6   3  926.39   29.92
  -4  -6  -3  899.38   60.20
   4   6   4  475.47   36.75
   4   6   4  423.56   50.82
  -4  -6  -4  450.35   90.99
   4   6   5 9877.29  183.41
   4   6   5 9641.36  316.25
  -4  -6  -5 9519.10  230.24
   4   6   6 1503.61   81.80
   4   6   6 1565.82   50.29
  -4  -6  -6 1454.65   81.45
  -4  -6  -6 1553.16   52.87
   4   6   7 3289.28   74.65
   4   6   7 3062.14  181.25
  -4  -6  -7 3028.76  111.87
  -4  -6  -7 3323.01   78.38
   4   6   8  434.33   58.59
   4   6   8  455.14   34.81
  -4  -6  -8  499.42   38.19
  -4  -6  -8  428.70   60.18
   4   6   9   50.79   47.56
   4   6   9  114.79   16.22
  -4  -6  -9   91.93   18.04
  -4  -6  -9   82.20   46.65
   4   6  10   11.83   37.41
   4   6  10  -13.83   23.18
  -4  -6 -10   23.25   26.52
  -4  -6 -10    1.36   38.47
   4   6  11   39.20   79.10
   4   6  11   46.75   30.03
  -4  -6 -11   17.36   34.21
  -4  -6 -11   30.48   45.78
   4   6  12   66.26   87.10
   4   6  12   37.89   19.21
  -4  -6 -12  111.64   50.86
  -4  -6 -12   52.10   22.74
   4   6  13   -0.77   46.70
   4   6  13   18.48   18.60
  -4  -6 -13   26.00   47.86
  -4  -6 -13   17.25   22.02
   4   6  14   26.80   49.30
   4   6  14   28.97   35.98
  -4  -6 -14   20.76   42.41
   4   6  15  364.76   71.21
   4   6  15  324.96   31.34
  -4  -6 -15  207.36   62.30
   4   6  16  491.80   82.58
   4   6  16  442.48   60.98
  -4  -6 -16  491.98   43.62
   4   6  17   96.04   63.33
   4   6  17   70.60   27.75
  -4  -6 -17  126.73   33.82
   4   6  18 1052.85  168.50
   4   6  18  886.68   78.15
  -4  -6 -18  763.47   57.01
   4   6  19   83.28  108.27
   4   6  19   64.50   28.90
  -4  -6 -19   34.59   34.93
   4   6  20   57.24   48.19
   4   6  20   21.59  105.74
  -4  -6 -20   15.32   34.30
   4   6  21  124.59   66.72
   4   6  21   -0.07   35.21
  -4  -6 -21  108.49   39.48
   4   6  22   53.33   59.97
   4   6  22    0.14   15.79
  -4  -6 -22   68.51   35.49
   4   6  23   68.20   57.98
   4   6  23    0.25   25.10
  -4  -6 -23  -12.47   34.62
   4   6  24  652.92  106.06
  -4  -6 -24  449.75   65.85
   4   7 -21  -87.17  166.41
  -4  -7  21  -55.09  161.21
   4   7 -20   79.77   78.11
  -4  -7  20  -46.74   76.53
   4   7 -19  -16.51   77.99
  -4  -7  19   58.67   75.54
   4   7 -18   27.36  123.85
  -4  -7  18    7.24   15.88
  -4  -7  18  -13.72   65.96
   4   7 -17  239.77   87.13
  -4  -7  17  104.79   20.44
  -4  -7  17  143.60   81.41
   4   7 -16  228.57   89.43
  -4  -7  16  162.72   38.76
  -4  -7  16  306.73   85.22
   4   7 -15 1812.45  246.09
  -4  -7  15 1816.57  143.97
   4   7 -14  -27.82   65.49
  -4  -7  14  -63.81   62.77
   4   7 -13   26.99   56.51
  -4  -7  13    0.27   55.16
   4   7 -12 -145.10  102.70
  -4  -7  12   20.18   55.06
   4   7 -11 6882.95  265.61
  -4  -7  11 6680.09  251.51
   4   7 -10 2609.28  151.66
  -4  -7  10 2587.40  145.71
   4   7  -9  730.13   82.99
  -4  -7   9  773.05   82.84
   4   7  -8 1448.23   98.24
  -4  -7   8 1626.39  160.21
   4   7  -7 1156.83  142.62
  -4  -7   7 1124.25   82.07
   4   7  -6 1145.78   82.53
  -4  -7   6 1217.49   56.18
  -4  -7   6 1224.13   82.28
   4   7  -5 2471.31  172.14
  -4  -7   5 2691.70   84.49
  -4  -7   5 2450.89  108.73
   4   7  -410643.93  265.19
  -4  -7   410423.44  197.31
   4   7  -324061.35  680.82
  -4  -7   324879.20  527.32
   4   7  -215596.70  359.69
  -4  -7   216140.65  327.31
   4   7  -1 4276.53  111.70
  -4  -7   1 4041.13  143.76
   4   7   020383.94  437.96
  -4  -7   020200.94  428.67
   4   7   118958.63  390.80
   4   7   120452.42  421.79
   4   7   120727.62  448.50
  -4  -7  -119852.63  426.23
   4   7   2  994.87   59.84
   4   7   2 1027.80   42.18
   4   7   2 1273.88   72.41
  -4  -7  -2 1082.32   94.11
   4   7   3 1845.83   76.15
   4   7   3 1732.63   75.49
  -4  -7  -3 1687.10   72.36
   4   7   422878.86  618.33
   4   7   423698.81  507.58
  -4  -7  -422448.76  508.73
   4   7   5  232.22   47.90
   4   7   5  236.34   22.06
  -4  -7  -5  268.52   48.76
   4   7   6 4521.92  210.22
   4   7   6 4579.52  108.36
  -4  -7  -6 4683.53  115.27
  -4  -7  -6 4286.69  132.40
   4   7   7  294.14   36.35
   4   7   7  234.62   53.26
  -4  -7  -7  250.00   39.45
  -4  -7  -7  267.70   53.15
   4   7   8 3290.66  124.72
   4   7   8 3287.35   65.73
  -4  -7  -8 3360.41   97.71
  -4  -7  -8 3262.90  125.75
   4   7   9 1199.55  142.22
   4   7   9 1237.43   37.09
  -4  -7  -9 1158.97   39.61
  -4  -7  -9 1219.37   85.63
   4   7  10 1514.94   96.58
   4   7  10 1610.75   45.01
  -4  -7 -10 1551.49   76.47
  -4  -7 -10 1604.48  166.84
   4   7  11  699.99   79.55
   4   7  11  731.29   54.31
  -4  -7 -11  639.83   81.64
  -4  -7 -11  697.21   62.36
   4   7  12    7.68   44.59
   4   7  12   13.97   30.42
  -4  -7 -12   -2.75   20.39
  -4  -7 -12   19.23   46.07
   4   7  13   41.63   49.77
   4   7  13   17.39   20.37
  -4  -7 -13    5.58   22.70
   4   7  14 1925.49  122.47
   4   7  14 1919.51   58.48
  -4  -7 -14 1789.64  103.44
   4   7  15  314.37   78.40
   4   7  15  319.84   55.82
  -4  -7 -15  364.54   39.19
   4   7  16  396.08   85.23
   4   7  16  364.84   36.42
  -4  -7 -16  417.33   43.84
   4   7  17  219.62   85.42
   4   7  17  335.21   35.90
  -4  -7 -17  292.38   74.53
   4   7  18  434.15   92.56
   4   7  18  497.71   69.07
  -4  -7 -18  555.39   83.07
   4   7  19   68.36   59.53
   4   7  19   30.52   25.53
  -4  -7 -19  -20.40   31.61
   4   7  20  482.78  155.35
   4   7  20  269.82   58.66
  -4  -7 -20  316.03   48.84
   4   7  21  425.75  174.33
  -4  -7 -21  509.82   56.98
   4   7  22    8.08   14.91
   4   7  22  -34.14   58.92
  -4  -7 -22  -10.59   32.88
   4   7  23  378.29   93.97
  -4  -7 -23  228.94   53.07
   4   8 -20    1.83  148.26
  -4  -8  20   24.15   82.64
   4   8 -19  -15.48   79.35
  -4  -8  19  -10.82   77.63
   4   8 -18   99.24   91.93
  -4  -8  18  125.92   90.82
   4   8 -17  506.69  200.70
  -4  -8  17  538.13  113.69
   4   8 -16   97.07   68.45
  -4  -8  16   13.56   18.36
  -4  -8  16   60.33   69.19
   4   8 -15  219.33   81.47
  -4  -8  15  148.21   81.72
  -4  -8  15  132.07   23.41
   4   8 -14 1285.17  215.38
  -4  -8  14 1355.95  127.68
   4   8 -13 1187.45  120.56
  -4  -8  13 1405.83  120.51
   4   8 -12   22.57   60.00
  -4  -8  12   51.55   59.53
   4   8 -11   26.27  103.39
  -4  -8  11   45.68   10.56
  -4  -8  11   41.48   58.20
   4   8 -10  832.04   94.43
  -4  -8  10  794.19   34.66
  -4  -8  10  817.24   96.03
   4   8  -9  224.76  109.07
  -4  -8   9  120.11   61.90
  -4  -8   9  126.79   22.78
   4   8  -8    0.96   45.26
  -4  -8   8   13.51   10.85
   4   8  -7   49.32   81.68
  -4  -8   7   39.85   12.91
   4   8  -6 1092.98   79.61
  -4  -8   6 1060.32   48.11
   4   8  -5  505.05   99.31
  -4  -8   5  400.95   23.53
   4   8  -4 4398.41  135.21
  -4  -8   4 4307.63   83.35
   4   8  -3  499.05   92.75
  -4  -8   3  515.73   48.50
   4   8  -2  100.61   38.56
  -4  -8   2  165.61   24.85
   4   8  -1 6054.88  148.43
  -4  -8   1 5738.81  165.51
   4   8   0 4397.49  166.67
   4   8   0 4587.52  116.67
  -4  -8   0 4399.09  105.34
   4   8   1 1077.35   50.14
   4   8   1  974.65   86.95
   4   8   1 1081.12   94.24
  -4  -8  -1 1042.12   84.23
   4   8   2 4501.01  170.50
   4   8   2 4550.68  144.25
  -4  -8  -2 4340.43  112.33
   4   8   3 1766.92   53.72
   4   8   3 1655.86   72.64
  -4  -8  -3 1637.63  112.11
   4   8   4   23.00   33.22
   4   8   4  -22.46   31.05
  -4  -8  -4   23.09   29.49
   4   8   5  488.04   98.46
   4   8   5  507.71   55.29
  -4  -8  -5  504.04   55.82
   4   8   613149.40  250.63
   4   8   613443.54  329.13
  -4  -8  -613618.29  259.47
  -4  -8  -613279.40  415.56
   4   8   7 2791.54  117.85
   4   8   7 2915.38   67.03
  -4  -8  -7 3180.42  109.47
  -4  -8  -7 2785.85  117.28
   4   8   8  222.29  104.23
   4   8   8  228.04   44.87
  -4  -8  -8  241.77   49.94
  -4  -8  -8  166.59  103.65
   4   8   9 4266.45   91.06
   4   8   9 4214.71  246.27
  -4  -8  -9 4244.32  160.09
  -4  -8  -9 4406.05  137.90
   4   8  10   34.75   51.30
   4   8  10   26.59   36.40
  -4  -8 -10   44.24   52.19
  -4  -8 -10   37.97   41.78
   4   8  11 1594.40  108.54
   4   8  11 1607.07   81.99
  -4  -8 -11 1593.25   91.89
   4   8  12  -19.97   48.48
   4   8  12   19.81   34.66
  -4  -8 -12    5.45   38.97
   4   8  13   93.97   63.56
   4   8  13  119.12   43.99
  -4  -8 -13   78.12   29.68
   4   8  14  251.68   77.46
   4   8  14  258.51   54.64
  -4  -8 -14  163.48   61.58
   4   8  15 8572.84  247.40
   4   8  15 8854.18  306.73
  -4  -8 -15 8429.18  211.07
   4   8  16  125.13   77.10
   4   8  16  128.36   31.39
  -4  -8 -16   67.79   65.15
   4   8  17 1580.66   98.91
   4   8  17 1790.78  140.41
  -4  -8 -17 1567.88   76.30
   4   8  18 2193.60  151.49
   4   8  18 1963.86  109.37
  -4  -8 -18 1854.89   86.10
   4   8  19  810.40  115.46
   4   8  19  744.20   49.32
  -4  -8 -19  711.12  100.36
   4   8  20  116.34   65.69
   4   8  20  -45.13   25.58
  -4  -8 -20   60.63   57.69
   4   8  21  456.68  170.52
  -4  -8 -21  285.87   88.73
   4   8  22  107.28  130.82
   4   8  22   -8.50   27.25
  -4  -8 -22  242.42   67.71
   4   8  23   25.86   66.19
   4   8  23   -5.47   14.94
  -4  -8 -23   20.37   59.43
   4   9 -19   31.06   89.21
   4   9 -18  309.71  199.14
   4   9 -17  -27.75   75.80
   4   9 -16   18.42   70.28
   4   9 -15  -47.78  128.79
   4   9 -14   67.56   73.33
   4   9 -13  162.91  138.53
   4   9 -12   44.34   65.69
   4   9 -11  114.32   58.90
  -4  -9  11   29.86    8.54
   4   9 -10  142.06  104.79
  -4  -9  10   81.52   12.10
   4   9  -9  138.75   61.33
  -4  -9   9  115.92   15.70
   4   9  -8  730.74  137.70
  -4  -9   8  604.44   18.19
   4   9  -7  578.73   73.30
  -4  -9   7  526.11   31.04
  -4  -9   6  101.54   24.58
   4   9  -5   18.52   39.56
  -4  -9   5   13.99   13.13
   4   9  -4 2688.26  173.52
  -4  -9   4 2614.12   79.72
   4   9  -3  868.34   68.88
  -4  -9   3  974.00   56.29
   4   9  -2  245.87   46.60
   4   9  -2  353.21   46.53
  -4  -9   2  263.23   26.10
   4   9  -1  489.34   84.88
   4   9  -1  363.94   48.56
  -4  -9   1  495.13   32.53
   4   9   0 1706.74   71.88
   4   9   0 1708.43   70.40
   4   9   0 1844.45   64.29
  -4  -9   0 1771.22   92.34
   4   9   1  472.19   42.89
   4   9   1  288.27   40.33
   4   9   1  396.76   40.45
  -4  -9  -1  397.39   37.23
   4   9   2  175.49   37.23
   4   9   2  194.45   33.38
  -4  -9  -2  176.70   34.71
   4   9   3  217.19   70.46
   4   9   3  181.69   31.37
  -4  -9  -3  165.46   65.15
   4   9   4  250.92   45.24
   4   9   4  209.73   31.74
  -4  -9  -4  201.37   41.46
   4   9   5  424.45   97.69
   4   9   5  416.31   35.42
  -4  -9  -5  394.40   52.10
   4   9   6  816.94   72.04
   4   9   6  833.15   69.87
  -4  -9  -6  840.51  119.80
   4   9   7  550.15   37.13
   4   9   7  477.31   69.04
  -4  -9  -7  507.35   69.15
  -4  -9  -7  493.58   69.15
   4   9   8 8458.34  362.36
   4   9   8 9131.78  236.43
  -4  -9  -8 8520.79  256.04
  -4  -9  -8 9183.36  248.55
   4   9   912246.03  358.42
   4   9   912972.79  266.60
  -4  -9  -913351.84  350.59
   4   9  1016572.06  467.81
   4   9  1016850.29  356.62
  -4  -9 -1017395.38  455.43
   4   9  11  800.79   73.96
   4   9  11  681.24   95.78
  -4  -9 -11  658.67   48.86
   4   9  12   54.22   47.14
   4   9  12   16.79   34.68
  -4  -9 -12  -18.86   22.30
   4   9  13   41.05   64.77
   4   9  13   97.38   47.20
  -4  -9 -13   90.03   54.36
   4   9  14  381.02   88.35
   4   9  14  360.68   62.41
  -4  -9 -14  403.77   42.90
   4   9  15   32.33   72.34
   4   9  15   63.41   28.90
  -4  -9 -15  106.12   58.76
   4   9  16 1581.98  142.34
   4   9  16 1586.12   67.47
  -4  -9 -16 1546.68   75.47
   4   9  17  106.56   80.07
   4   9  17   65.16   52.03
  -4  -9 -17   77.03   64.62
   4   9  18  941.10  131.13
   4   9  18  856.72   85.37
  -4  -9 -18  758.03   64.58
   4   9  19   25.70   86.57
  -4  -9 -19   98.36   41.73
   4   9  20  233.92   86.24
   4   9  20   22.05   28.53
  -4  -9 -20  164.17   43.14
   4   9  21  944.61  135.16
  -4  -9 -21  754.35  116.93
   4   9  22   54.46  118.29
   4   9  22  -15.22   23.60
  -4  -9 -22   67.79   58.15
   4  10 -18  377.93  126.20
   4  10 -17 1374.87  168.04
   4  10 -16 1383.76  157.37
   4  10 -15   82.05   82.17
   4  10 -14   29.17  124.86
   4  10 -13 1885.95  155.04
   4  10 -12 1473.98  131.80
   4  10 -11   59.97   65.29
   4  10 -10 1348.80  115.38
   4  10  -9   85.60  105.47
   4  10  -8  240.72   69.30
  -4 -10   8  247.43   13.64
   4  10  -7  -26.49   83.94
  -4 -10   7   19.34    7.88
   4  10  -6   20.77   43.39
  -4 -10   6   11.90   17.20
   4  10  -5  233.02  103.78
  -4 -10   5  281.94   30.29
   4  10  -4 1255.11   86.84
  -4 -10   4 1293.08   55.35
   4  10  -3 2041.37  163.58
   4  10  -3 2279.23  104.29
  -4 -10   3 2241.54   79.46
   4  10  -2  727.83   67.13
   4  10  -2  803.78   66.05
  -4 -10   2  779.67   35.14
   4  10  -1   58.86   38.37
   4  10  -1   19.40   37.98
  -4 -10   1   68.54   23.01
   4  10   0 1437.57  122.46
   4  10   0 1566.11  120.64
   4  10   0 1571.09   61.44
  -4 -10   0 1545.23   56.49
   4  10   1  445.20   51.09
   4  10   1  437.62   80.71
   4  10   1  410.67   43.53
  -4 -10  -1  399.86   39.24
   4  10   2  288.28   71.34
   4  10   2  288.16   41.98
  -4 -10  -2  335.43   68.66
   4  10   3  368.05   87.27
   4  10   3  402.32   73.28
  -4 -10  -3  406.72   46.02
   4  10   4  204.22   36.27
   4  10   4  246.76   47.89
  -4 -10  -4  174.84   44.54
   4  10   5 2012.37   70.71
   4  10   5 2124.63  161.79
  -4 -10  -5 2084.93   91.70
   4  10   6 1581.84   94.00
   4  10   6 1639.44  100.89
  -4 -10  -6 1406.47   86.01
   4  10   7  298.65   66.22
   4  10   7  374.74   65.47
  -4 -10  -7  307.01   41.50
   4  10   8  187.72  108.05
   4  10   8  205.79   33.41
  -4 -10  -8  152.02   36.38
   4  10   9    0.58   46.43
   4  10   9   -5.76   23.56
  -4 -10  -9  -18.19   44.84
   4  10  10  256.14   71.94
   4  10  10  266.87   60.17
  -4 -10 -10  240.89   65.56
   4  10  11  235.64   57.68
   4  10  11  192.43   71.05
  -4 -10 -11  202.25   37.73
   4  10  12  157.57   52.38
   4  10  12  176.29   68.26
  -4 -10 -12   95.75   35.09
   4  10  13  448.29   64.81
   4  10  13  353.31   86.82
  -4 -10 -13  314.88   75.49
   4  10  14  768.19  104.31
   4  10  14  700.48   75.55
  -4 -10 -14  652.67   51.89
   4  10  15   32.29   68.29
   4  10  15   43.31   26.86
  -4 -10 -15    2.17   55.84
   4  10  16   26.05   75.22
   4  10  16   70.29   30.50
  -4 -10 -16   97.71   36.63
   4  10  17  692.80  112.95
   4  10  17  586.84   46.09
  -4 -10 -17  393.25   55.22
   4  10  18 7160.79  314.68
  -4 -10 -18 6049.23  268.07
   4  10  19 7529.56  344.79
  -4 -10 -19 6210.97  205.78
   4  10  20 4339.13  246.85
  -4 -10 -20 3305.62  143.22
   4  10  21  113.01   81.47
   4  10  21    2.60   26.56
  -4 -10 -21   36.94   39.48
   4  11 -17  126.12  102.75
   4  11 -16 1556.91  179.08
   4  11 -15  195.15  174.74
   4  11 -14   47.14   79.37
   4  11 -13 2437.49  180.74
   4  11 -12  805.34  199.50
   4  11 -11 1643.16  138.43
   4  11 -10  351.57  148.76
   4  11  -9   58.03   62.09
   4  11  -8  893.40   97.25
   4  11  -7  156.46   65.17
   4  11  -6 1311.46  101.40
   4  11  -5  245.41   63.14
   4  11  -5  234.84   63.03
   4  11  -4   31.48   44.49
   4  11  -4  -32.30   77.37
   4  11  -3 1043.26   85.28
   4  11  -3 1094.77   82.85
   4  11  -2 2435.37  181.10
   4  11  -2 2341.25  110.29
   4  11  -1 3282.53  125.71
   4  11  -1 3000.57  188.19
   4  11   0  976.15   71.63
   4  11   0 1086.30  128.09
   4  11   0  975.00   88.07
   4  11   1  358.54   44.12
   4  11   1  427.56   51.56
   4  11   1  445.88   56.86
   4  11   2  809.87   58.48
   4  11   2  831.21   59.62
   4  11   3  771.22  104.93
   4  11   3  801.66   57.13
   4  11   4  480.50   61.49
   4  11   4  601.84   49.93
   4  11   5 1848.25  154.80
   4  11   5 1631.01   71.01
   4  11   6  238.73   57.86
   4  11   6  195.72   39.03
   4  11   7 1590.64  108.50
   4  11   7 1502.90  100.87
   4  11   8 1012.11   89.10
   4  11   8  827.26  154.06
  -4 -11  -8  905.24   58.82
   4  11   9 1902.68  109.40
   4  11   9 1622.64  113.07
  -4 -11  -9 1822.12   74.34
   4  11  10  -49.87   47.98
   4  11  10    1.19   43.70
  -4 -11 -10   61.53   47.67
   4  11  11  -66.43   49.69
   4  11  11   -1.06   24.89
  -4 -11 -11   26.51   26.79
   4  11  12  533.34   44.19
   4  11  12  434.19   91.04
  -4 -11 -12  524.67   48.93
   4  11  13   63.03   71.53
   4  11  13   52.61   55.00
  -4 -11 -13  156.29   37.37
   4  11  14  -40.71   64.57
   4  11  14   26.04   48.31
  -4 -11 -14  -62.82   32.84
   4  11  15  170.90   79.74
   4  11  15  126.73   57.36
  -4 -11 -15  123.21   39.23
   4  11  16  686.42  107.20
   4  11  16  453.01   38.74
  -4 -11 -16  601.49   88.35
   4  11  17   99.50   88.85
  -4 -11 -17  151.46   42.47
   4  11  18 1141.82  149.93
  -4 -11 -18 1152.49   74.02
   4  11  19 1539.01  167.08
  -4 -11 -19 1327.23  139.71
   4  11  20  220.60  105.27
  -4 -11 -20  173.61   50.24
   4  12 -16   81.77   95.29
   4  12 -15  -74.74   88.11
   4  12 -14   30.60   78.32
   4  12 -13 1083.49  234.30
   4  12 -12 1523.69  146.51
   4  12 -11   76.26   74.82
   4  12 -10   10.29   59.62
   4  12  -9  279.31   81.80
   4  12  -8  -24.26  110.86
   4  12  -8   99.99   65.50
   4  12  -7 1046.91  107.10
   4  12  -7 1039.28  109.10
   4  12  -6 3987.52  288.40
   4  12  -6 3893.27  279.87
   4  12  -5   23.02   51.83
   4  12  -5   -2.02   48.70
   4  12  -4    5.14   86.54
   4  12  -4   16.43   81.86
   4  12  -3 2781.24  136.87
   4  12  -3 2711.58  128.73
   4  12  -2  751.08  135.08
   4  12  -2  621.77  129.86
   4  12  -1  278.05   60.30
   4  12  -1  269.89   55.99
   4  12   0  162.42   47.53
   4  12   0   91.60   55.56
   4  12   0  124.95   52.13
   4  12   1  171.63   52.06
   4  12   1  322.34   57.28
   4  12   1  265.84   40.48
   4  12   2  446.97  100.87
   4  12   2  427.20   52.06
   4  12   3 1479.34  138.06
   4  12   3 1547.52  138.09
   4  12   4 1771.26  138.79
   4  12   4 1830.18   95.04
   4  12   5  432.99  112.50
   4  12   5  454.92   53.56
   4  12   6 2660.45  133.03
   4  12   6 2807.27  101.17
   4  12   7  381.71   71.45
   4  12   7  292.55   48.98
   4  12   8  863.59   88.31
   4  12   8  765.86   57.95
   4  12   9   19.52   90.43
   4  12   9   10.01   30.25
  -4 -12  -9   19.78   33.15
   4  12  10   -3.16   51.28
   4  12  10   11.25   28.60
  -4 -12 -10    8.07   30.85
   4  12  11   78.87   61.92
   4  12  11   48.89   32.26
  -4 -12 -11   76.22   62.32
   4  12  12  160.89   72.93
   4  12  12  109.28   36.53
  -4 -12 -12  184.89   40.19
   4  12  13   35.94   57.28
   4  12  13   -3.57   26.61
  -4 -12 -13   19.79   52.71
   4  12  14   28.83   26.86
   4  12  14   29.25   64.17
  -4 -12 -14   -8.73   32.64
   4  12  15  397.85   92.50
  -4 -12 -15  236.20   46.92
   4  12  16   -6.53   69.66
   4  12  16   25.18   26.46
  -4 -12 -16    5.51   60.06
   4  12  17   69.96   80.24
   4  12  17   -9.72   28.62
  -4 -12 -17  144.53   39.28
   4  12  18  -81.91   72.21
   4  12  18   10.09   15.63
  -4 -12 -18    9.65   33.91
   4  12  19  455.90  113.22
  -4 -12 -19  251.30   91.05
   4  13 -14  326.88  112.99
   4  13 -13   89.68   84.04
   4  13 -12  -22.85   76.65
   4  13 -12  -19.54   71.87
   4  13 -11   28.87   71.90
   4  13 -11   -9.14  117.52
   4  13 -10  -56.67   61.56
   4  13 -10   42.37   64.34
   4  13  -9  141.26  137.13
   4  13  -9  148.94   79.31
   4  13  -8  -50.90   61.61
   4  13  -8   49.85  107.11
   4  13  -7   20.69   58.46
   4  13  -7   19.27   56.70
   4  13  -6  227.57   77.02
   4  13  -6  250.49   73.72
   4  13  -5   43.01   53.87
   4  13  -5   12.36   57.74
   4  13  -4   32.79  103.50
   4  13  -4   51.79   54.00
   4  13  -3 1469.07  109.26
   4  13  -3 1258.39  100.38
   4  13  -2  905.64  154.29
   4  13  -2  859.07   84.57
   4  13  -1 1666.11  106.21
   4  13  -1 1595.52   98.27
   4  13   0  160.02   34.87
   4  13   0  125.38   93.34
   4  13   0  301.01  106.40
   4  13   1   77.70   35.01
   4  13   1  142.67   53.46
   4  13   1   20.57   46.05
   4  13   2 6917.80  224.84
   4  13   2 6844.61  201.52
   4  13   316741.52  484.88
   4  13   316708.81  576.17
   4  13   421892.54  630.71
   4  13   423594.68  800.45
   4  13   5  217.43   79.08
   4  13   5 1012.42  134.87
   4  13   6 3999.46  273.07
   4  13   6 4187.73  231.84
   4  13   7 3560.77  170.37
   4  13   7 3691.99  136.70
   4  13   8  474.67   81.19
   4  13   8  429.00   56.92
   4  13   9  504.08   54.18
   4  13   9  495.58  146.18
   4  13  10  166.98   41.91
   4  13  10  270.81  121.63
  -4 -13 -10  112.18   44.50
   4  13  11  203.48  129.83
   4  13  11  164.42   41.42
  -4 -13 -11  230.11   79.06
   4  13  12   78.91   64.18
   4  13  12   48.39   30.82
  -4 -13 -12    3.66   36.91
   4  13  13  -70.80   34.35
   4  13  13   22.91   68.05
  -4 -13 -13  -23.27   65.70
   4  13  14   17.38   29.06
   4  13  14   24.61   69.06
  -4 -13 -14   42.44   36.16
   4  13  15  304.69   95.25
  -4 -13 -15  246.37   50.20
   4  13  16  541.67  115.59
  -4 -13 -16  500.27  101.02
   4  13  17   25.51   76.83
   4  13  17    8.68   17.02
  -4 -13 -17   38.27   36.91
   4  14 -12  160.64   90.94
   4  14 -12   91.11  170.66
   4  14 -11  186.74   91.26
   4  14 -11   95.13  163.09
   4  14 -10  142.27   84.81
   4  14 -10  119.69   86.45
   4  14  -9  154.42   78.36
   4  14  -9  -20.80  138.16
   4  14  -8   99.63   73.12
   4  14  -8   66.04  126.23
   4  14  -7  218.37   79.40
   4  14  -7  148.57   76.95
   4  14  -6  240.80   77.61
   4  14  -6  302.11   85.08
   4  14  -5  187.58   78.82
   4  14  -5  249.50  125.14
   4  14  -4  644.39  169.02
   4  14  -4  777.70   91.00
   4  14  -3  692.55   95.17
   4  14  -3  856.71  147.41
   4  14  -2  137.61  103.88
   4  14  -2   60.50   53.24
   4  14  -1   71.27   57.56
   4  14  -1   88.03   89.11
   4  14   0  380.83   64.12
   4  14   0  332.80   39.61
   4  14   0  294.00  126.40
   4  14   1 1791.23  103.09
   4  14   1 1949.93  115.53
   4  14   1 1630.17   73.66
   4  14   2  157.95   70.13
   4  14   2  456.24   80.97
   4  14   2  608.21  109.40
   4  14   3  483.85   58.80
   4  14   3  628.10   68.88
   4  14   4 4430.26  238.01
   4  14   4 4638.67  169.99
   4  14   5   49.99   45.67
   4  14   5   23.50   47.32
   4  14   6  308.42  103.17
   4  14   6  222.10  113.96
   4  14   7 2443.01  132.84
   4  14   7 2675.09  180.50
   4  14   8  437.14   61.15
   4  14   8  394.39   80.37
   4  14   9  121.51   43.34
   4  14   9  107.79   65.00
   4  14  10  -21.34   27.39
   4  14  10  -26.60   56.95
   4  14  11   -7.11   18.17
   4  14  11   77.01   97.42
  -4 -14 -11   58.69   37.04
   4  14  12 1633.43  227.19
  -4 -14 -12 1539.92   88.15
   4  14  13 1875.99  262.33
  -4 -14 -13 2074.07  157.40
   4  14  14 1228.47  243.99
  -4 -14 -14 1310.06   85.86
   4  14  15  524.33  119.61
  -4 -14 -15  611.64  112.16
   4  14  16  931.00  144.15
  -4 -14 -16  970.54   76.32
   4  15  -9   71.07   77.88
   4  15  -8  268.11   92.33
   4  15  -8  211.38   89.03
   4  15  -7   -9.70   63.20
   4  15  -7   -9.18  102.83
   4  15  -6  117.55   70.22
   4  15  -6   85.24   76.12
   4  15  -5  198.38   82.78
   4  15  -5  231.78   75.82
   4  15  -4  -12.06  112.74
   4  15  -4  -62.79   58.58
   4  15  -3  132.80   57.84
   4  15  -3  -16.22   64.09
   4  15  -2  224.69  103.42
   4  15  -2    4.39  117.23
   4  15  -1   -0.89   48.81
   4  15  -1   -6.37   42.65
   4  15   0   51.22  104.97
   4  15   0   98.59   53.96
   4  15   1   75.78   59.95
   4  15   1  102.76   52.52
   4  15   1   71.08   56.56
   4  15   2   18.49   49.72
   4  15   2  117.10   57.37
   4  15   2   59.39   35.56
   4  15   3  111.79   90.23
   4  15   3   90.55   40.70
   4  15   4  125.13   48.59
   4  15   4  211.75   55.88
   4  15   5   -8.19   39.69
   4  15   5   -7.15   41.89
   4  15   6 1831.15   97.85
   4  15   6 1405.67  105.58
   4  15   7 1069.14  113.72
   4  15   7 3185.75  195.46
   4  15   8  150.16   90.02
   4  15   8  -22.33   21.72
   4  15   9   37.85   22.48
   4  15   9   55.28   56.45
   4  15  10   -1.95   19.64
   4  15  10   84.27   54.27
   4  15  11   15.98   42.29
   4  15  11  745.98   81.15
   4  15  12   41.88   34.01
   4  15  12    2.08   68.39
   4  15  13  -32.69   19.60
   4  15  13   48.59   68.75
  -4 -15 -13   -3.66   41.45
   4  16  -6   73.70  110.19
   4  16  -6  -55.60   69.01
   4  16  -5  -22.84   73.88
   4  16  -5  122.83   67.53
   4  16  -4   -6.17   49.75
   4  16  -4   21.87   97.65
   4  16  -3   15.17   92.43
   4  16  -3  603.16   82.57
   4  16  -2   -6.02   65.09
   4  16  -2   91.08   57.62
   4  16  -1  -16.51   55.77
   4  16  -1   37.50   50.74
   4  16   0   29.36   58.53
   4  16   0   48.96   52.68
   4  16   1   16.85   88.69
   4  16   1   -7.05   43.66
   4  16   1   -4.20   25.78
   4  16   2  226.05   83.27
   4  16   2   -7.27   62.56
   4  16   2   69.58   35.49
   4  16   3   62.42   57.41
   4  16   3    2.79   33.23
   4  16   3   -6.45   51.58
   4  16   4  -69.75   45.08
   4  16   4    9.14   37.38
   4  16   5   58.66   67.46
   4  16   5  -17.78   23.54
   4  16   6    7.38   26.83
   4  16   6  191.70   49.34
   4  16   7  -12.38   29.52
   4  16   7  821.17   62.18
   4  16   8    6.35   43.22
   4  16   8  198.82   57.65
   4  16   9   83.61   90.46
   4  16   9    7.33   21.66
   4  16  10    1.37   49.79
   4  16  10   -1.05   18.99
   5 -12  -4  109.36  104.24
  -5  12   4  182.69  109.36
   5 -12  -3  830.73  144.29
  -5  12   3  706.50  152.45
   5 -12  -2 -186.15   91.09
  -5  12   2  114.06   97.70
  -5  12   1  121.17  114.45
  -5  12   0 1716.34  131.12
  -5  12   0    5.00   52.55
  -5  12  -1  105.86  157.94
  -5  12  -1    2.98   34.76
  -5  12  -2 1059.73  154.48
  -5  12  -2  458.82   52.51
  -5  12  -3 3072.52  256.45
  -5  12  -4 2236.51  211.09
   5 -11  -9  -38.75   91.46
  -5  11   9  -61.29   91.40
   5 -11  -8   38.31   89.12
  -5  11   8   83.19  160.49
   5 -11  -7  -10.63  150.71
  -5  11   7   74.72   92.02
   5 -11  -6  449.44  119.96
  -5  11   6  478.73  222.01
   5 -11  -5  231.34  109.52
  -5  11   5  369.81  115.98
   5 -11  -4   94.37   90.34
  -5  11   4   65.15  167.57
   5 -11  -3   24.52   79.78
  -5  11   3   42.31   85.84
   5 -11  -2   -9.67  119.28
  -5  11   2   14.94  128.93
   5 -11  -1  223.13  101.37
  -5  11   1  152.18  106.03
  -5  11   0  -63.16   91.86
  -5  11  -1 3989.90  257.53
  -5  11  -2 3050.15  234.48
  -5  11  -3   26.36  154.25
  -5  11  -4   38.83   85.96
  -5  11  -5  140.11  172.57
  -5  11  -6  110.95   93.67
  -5  11  -7  102.74   92.46
  -5  11  -8   61.00  133.17
  -5  11  -8  -11.13   76.89
  -5  11  -9   78.39  107.42
  -5  11  -9  220.12  104.34
   5 -10 -12  -23.52  149.03
  -5  10  12   60.78   86.32
   5 -10 -11   35.84   83.86
  -5  10  11   21.88   85.43
   5 -10 -10  114.42   91.97
  -5  10  10   62.89   96.18
   5 -10  -9  460.63  117.62
  -5  10   9  452.34  124.11
   5 -10  -8   38.18  136.63
  -5  10   8   11.06  142.15
   5 -10  -7   11.70   76.58
  -5  10   7   34.18   81.66
   5 -10  -6  721.46  128.42
  -5  10   6  794.91  230.71
   5 -10  -5  -26.38   66.82
  -5  10   5   39.10   71.22
   5 -10  -4  -67.97   75.24
  -5  10   4   66.40  142.27
   5 -10  -3  -27.30  129.23
  -5  10   3  -17.01   76.41
   5 -10  -2  715.76  122.93
  -5  10   2  788.14  220.26
   5 -10  -1  179.76  121.37
  -5  10   1  -73.95   71.87
   5 -10   0  501.63  111.73
  -5  10   0  601.27  203.34
  -5  10  -1   27.24   76.63
  -5  10  -2  536.65  201.18
  -5  10  -3  249.07   98.45
  -5  10  -4  113.84   88.23
  -5  10  -5   76.68   82.80
  -5  10  -6  150.56   90.54
  -5  10  -7  139.13  156.48
  -5  10  -8    3.54   67.85
  -5  10  -9  532.63  117.54
  -5  10  -9  524.59  116.42
  -5  10 -10  242.42  189.83
  -5  10 -10  363.11  108.27
  -5  10 -11  551.02  127.10
  -5  10 -11  523.95  127.35
  -5  10 -12 2330.34  198.53
  -5  10 -12 2406.62  199.70
   5  -9 -14  -23.83   95.19
  -5   9  14  110.43   94.04
   5  -9 -13 1221.24  279.29
  -5   9  13 1206.98  293.03
   5  -9 -12    6.74  168.00
  -5   9  12  135.51   96.23
   5  -9 -11  -12.49   76.16
  -5   9  11  -33.25   79.86
   5  -9 -10  240.63  100.58
  -5   9  10  245.10  105.73
   5  -9  -9   82.11  152.82
  -5   9   9  130.03   93.67
   5  -9  -8 2800.67  192.29
  -5   9   8 3051.69  201.47
   5  -9  -7   20.41   82.42
  -5   9   7   94.17   84.82
   5  -9  -6  221.02  167.84
  -5   9   6  248.13  100.77
   5  -9  -5   11.33   81.77
  -5   9   5  182.13   85.34
   5  -9  -4  766.91  209.07
  -5   9   4  894.22  216.70
   5  -9  -3  -88.92   73.25
  -5   9   3   25.79   75.82
   5  -9  -2  995.01  213.98
  -5   9   2  951.13  220.50
   5  -9  -1  759.78  117.17
  -5   9   1  894.90  120.38
   5  -9   0  -52.70  127.51
  -5   9   0  -46.13  133.32
   5  -9   1  712.24  112.45
  -5   9  -1  773.08  116.31
  -5   9  -2  187.14  153.67
  -5   9  -3  327.85   95.71
  -5   9  -4   20.44  117.16
  -5   9  -5   68.95   74.62
  -5   9  -6  318.48  167.26
  -5   9  -7 1477.28  142.99
  -5   9  -8   64.93   78.03
  -5   9  -9   40.95   75.74
  -5   9  -9  108.74   76.70
  -5   9 -10   53.70   69.45
  -5   9 -10   -2.98   70.49
  -5   9 -11    3.69   67.18
  -5   9 -11  -30.56   66.77
  -5   9 -12  216.03  150.29
  -5   9 -12   93.60   85.85
  -5   9 -13  -34.77   74.71
  -5   9 -13  -25.22   75.11
  -5   9 -14   72.69  127.75
  -5   9 -14    6.27   74.27
   5  -8 -16  383.65  128.51
  -5   8  16  409.34  128.10
   5  -8 -15  549.01  147.50
  -5   8  15  783.47  146.87
   5  -8 -14 6434.05  340.64
  -5   8  14 6985.58  344.52
   5  -8 -13 2601.63  342.31
  -5   8  13 2809.54  215.41
   5  -8 -12  524.19  115.92
  -5   8  12  461.05  121.60
   5  -8 -11  -20.63   70.24
  -5   8  11  117.18  129.22
   5  -8 -10  100.50  146.85
  -5   8  10   95.81   88.34
   5  -8  -9   57.54   78.25
  -5   8   9  113.50  143.63
   5  -8  -8  263.66   92.39
  -5   8   8  203.18   95.07
   5  -8  -7  299.05  159.38
  -5   8   7  166.52   97.41
   5  -8  -6 3176.59  197.09
  -5   8   6 3467.12  201.96
   5  -8  -5 1955.84  167.22
  -5   8   5 2042.95  163.40
   5  -8  -4  182.86   89.29
  -5   8   4  191.32  160.68
   5  -8  -3  566.35  107.76
  -5   8   3  584.72  109.29
   5  -8  -2   95.44   73.65
  -5   8   2  105.35  136.58
   5  -8  -1  233.31   85.88
  -5   8   1  344.48   88.42
   5  -8   0   33.69   63.93
  -5   8   0   20.51   64.59
   5  -8   1  352.82  154.17
  -5   8  -1  268.58   87.73
   5  -8   2 3495.34  176.50
  -5   8  -2 3177.39  177.65
  -5   8  -3  286.20   91.08
  -5   8  -4  175.71   77.78
  -5   8  -5  110.82   72.75
  -5   8  -6  800.69  112.91
  -5   8  -7 1468.72  137.96
  -5   8  -8 1323.61  126.34
  -5   8  -9  -19.02   59.36
  -5   8  -9   -8.36   14.27
  -5   8  -9   18.65   59.96
  -5   8 -10   23.36   12.82
  -5   8 -10   65.08   66.30
  -5   8 -10    3.99  111.81
  -5   8 -11  264.12   86.64
  -5   8 -11  244.41   86.89
  -5   8 -12   92.94   76.55
  -5   8 -12  115.13   76.36
  -5   8 -13   43.03   68.33
  -5   8 -13   28.13   68.08
  -5   8 -14   38.86  121.39
  -5   8 -14   38.25  122.31
  -5   8 -15   -2.62   63.94
  -5   8 -15  -10.68   63.21
  -5   8 -16    2.04  121.57
  -5   8 -16   34.54   72.16
   5  -7 -17  196.77  113.13
  -5   7  17  255.56  107.53
   5  -7 -16 2028.90  192.78
   5  -7 -15  232.86  102.78
  -5   7  15  139.22  104.22
   5  -7 -14  -76.33  152.99
   5  -7 -13  -27.46   73.03
  -5   7  13   73.60   76.56
   5  -7 -12   19.98   77.66
  -5   7  12  148.22  140.26
   5  -7 -11  279.11   97.37
  -5   7  11  305.85   99.86
   5  -7 -10  -64.86  113.79
  -5   7  10   11.02   67.47
   5  -7  -9 1027.47  128.96
  -5   7   9 1147.14  132.08
   5  -7  -8  657.51  116.00
  -5   7   8  820.41  118.43
   5  -7  -7 4173.29  349.38
  -5   7   7 4590.58  359.01
   5  -7  -6 4911.95  238.25
  -5   7   6 5337.48  243.46
   5  -7  -5 5239.57  388.34
  -5   7   5 5379.46  248.20
   5  -7  -4 3706.26  203.48
  -5   7   4 3896.35  203.27
   5  -7  -3 5789.29  360.86
  -5   7   3 5554.75  236.54
   5  -7  -2  -22.63   65.03
  -5   7   2  -17.19  115.92
   5  -7  -1 2423.26  154.44
  -5   7   1 2747.38  155.94
   5  -7   0 2152.26  144.30
  -5   7   0 1978.64  139.99
   5  -7   1  422.43   88.63
  -5   7  -1  453.41   92.73
   5  -7   2  314.63  144.65
  -5   7  -2  240.79   82.53
   5  -7   3  898.06  108.57
  -5   7  -3  872.44  195.02
  -5   7  -4 1686.16  141.10
  -5   7  -514557.13  636.54
  -5   7  -6 1173.42  130.49
  -5   7  -7 1216.57  200.61
  -5   7  -8  220.84   78.02
  -5   7  -9   81.97  111.39
  -5   7  -9   59.78   18.87
  -5   7 -10   75.01   30.42
  -5   7 -10  120.54   67.33
  -5   7 -10  167.40   70.20
  -5   7 -11   48.29   56.98
  -5   7 -11  -25.58   57.15
  -5   7 -11   13.44   22.32
  -5   7 -12  -36.29   59.89
  -5   7 -12   17.77  105.70
  -5   7 -13  -40.52   67.07
  -5   7 -13  -95.29   67.90
  -5   7 -14    0.65  133.95
  -5   7 -14  202.51   75.73
  -5   7 -15   17.29   64.65
  -5   7 -15   66.77   65.29
  -5   7 -16   -4.38   67.91
  -5   7 -16  218.11  117.81
  -5   7 -17   -2.79   78.93
  -5   7 -17  288.48   80.87
  -5   7 -18  -96.89   68.51
  -5   7 -18    6.37   70.74
   5  -6 -18  121.87  106.72
  -5   6  18  239.55   96.84
   5  -6 -17  313.36  111.75
   5  -6 -16   21.83   84.01
  -5   6  16   91.20   83.49
   5  -6 -15 -190.46  168.98
   5  -6 -14  193.31  137.74
  -5   6  14  -16.73   78.16
   5  -6 -13   67.88   81.32
   5  -6 -12 1822.79  154.22
  -5   6  12 1900.39  154.79
   5  -6 -11   25.68   75.56
  -5   6  11   91.61   74.31
   5  -6 -10  -10.45  117.62
  -5   6  10  -36.60   67.80
   5  -6  -9  293.72   87.78
  -5   6   9  254.63   90.71
   5  -6  -8  261.35   85.13
  -5   6   8  267.63  150.53
   5  -6  -7  156.68   76.13
  -5   6   7  109.01   76.43
   5  -6  -6 1330.21  125.16
  -5   6   6 1483.80  128.47
   5  -6  -5 1860.22  138.89
  -5   6   5 1890.47  237.74
   5  -6  -4  728.85  103.28
  -5   6   4  784.67  104.44
   5  -6  -3 1182.19  112.18
  -5   6   3 1283.70  112.70
   5  -6  -2   44.95  110.59
  -5   6   2   86.16  109.93
   5  -6  -1  517.39   87.04
  -5   6   1  532.68   87.29
   5  -6   0 1517.62  119.88
  -5   6   0 1535.31  122.53
   5  -6   1 3426.67  263.91
  -5   6  -1 3483.07  272.04
   5  -6   2  157.71   72.86
  -5   6  -2  147.85   76.16
   5  -6   340451.08 1211.38
  -5   6  -340722.97 1254.24
  -5   6  -445873.70 1440.82
  -5   6  -558485.23 1898.60
  -5   6  -622333.44 1019.16
  -5   6  -715160.20  499.47
  -5   6  -8  -10.89  108.10
  -5   6  -9  680.36   89.85
  -5   6  -9  597.66   33.89
  -5   6 -10  171.23   37.58
  -5   6 -10  172.73   69.21
  -5   6 -10  163.42   69.97
  -5   6 -11  468.16   82.55
  -5   6 -11  440.72   42.77
  -5   6 -11  381.89   83.32
  -5   6 -12   15.58   57.26
  -5   6 -12   29.94   15.08
  -5   6 -12    9.69   99.69
  -5   6 -13  423.17   84.79
  -5   6 -13  456.58  149.75
  -5   6 -14  -10.52   55.07
  -5   6 -14   22.60   55.40
  -5   6 -15   31.26  151.35
  -5   6 -15  547.94   89.87
  -5   6 -16    9.91   76.42
  -5   6 -16  444.81   79.31
  -5   6 -17   86.54  117.09
  -5   6 -17   93.62   69.69
  -5   6 -18   70.42  107.52
  -5   6 -18   19.30   60.36
  -5   6 -19   82.64   66.53
  -5   6 -19   14.75  120.45
   5  -5 -19   39.97   85.69
  -5   5  19   -1.37   93.02
   5  -5 -18  727.36  138.47
   5  -5 -17  -51.94   81.18
  -5   5  17  -23.51   77.04
   5  -5 -16  243.45  100.11
  -5   5  15  613.47  116.82
   5  -5 -14   85.82   82.60
   5  -5 -13 1480.40  144.46
  -5   5  13 1407.52  143.00
   5  -5 -12  311.02   95.36
  -5   5  12  408.17   95.77
   5  -5 -11  228.39   86.08
  -5   5  11  185.76   83.74
   5  -5 -10   24.06   67.71
  -5   5  10   64.50   67.19
   5  -5  -9  377.83   92.38
  -5   5   9  446.16  152.53
   5  -5  -8  116.25   71.77
  -5   5   8  120.77   71.88
   5  -5  -7  465.69   88.49
  -5   5   7  474.07   89.73
   5  -5  -6  113.23   68.46
  -5   5   6  150.59  118.37
   5  -5  -5  139.11   66.00
  -5   5   5   94.37   65.98
   5  -5  -4  -74.20  101.15
  -5   5   4  -25.92   56.88
   5  -5  -3 2483.90  132.93
  -5   5   3 2587.28  219.12
   5  -5  -2  -37.66   43.35
  -5   5   2   40.02   44.52
   5  -5  -1   36.08   55.67
  -5   5   1   98.95   56.35
   5  -5   0  125.93   59.61
  -5   5   0  120.41  108.99
   5  -5   1 3872.35  154.29
  -5   5  -1 3533.31  152.44
   5  -5   214665.16  414.08
  -5   5  -215255.99  410.05
   5  -5   325020.27  880.09
  -5   5  -322478.72  638.84
   5  -5   439505.09 1132.50
  -5   5  -440692.35 1408.90
  -5   5  -5 6021.80  226.87
  -5   5  -6  701.41   87.64
  -5   5  -7 3722.60  160.10
  -5   5  -8  184.50   64.75
  -5   5  -9  -14.59   47.80
  -5   5  -9   11.75   19.26
  -5   5  -9    0.51   46.60
  -5   5 -10 1089.03   68.96
  -5   5 -10 1233.00   98.22
  -5   5 -10 1253.48  101.02
  -5   5 -11  956.22   63.31
  -5   5 -11  928.71   93.39
  -5   5 -11 1095.08   94.59
  -5   5 -12   53.71   92.12
  -5   5 -12  -47.82   92.44
  -5   5 -12   27.68   17.96
  -5   5 -13 3298.36  150.93
  -5   5 -13 3099.35  151.89
  -5   5 -13 2520.52   93.01
  -5   5 -14 4197.95  189.10
  -5   5 -14 3796.83  184.14
  -5   5 -15 4896.14  201.37
  -5   5 -15 4395.18  307.27
  -5   5 -16  121.38   63.40
  -5   5 -16   12.27   62.14
  -5   5 -17  395.71   80.31
  -5   5 -17  427.20   85.34
  -5   5 -18    2.58   95.54
  -5   5 -18   43.33   59.93
  -5   5 -19   53.11   60.80
  -5   5 -19   75.34   64.76
  -5   5 -20  -51.86  100.52
  -5   5 -20  -16.52   60.72
   5  -4 -20 1928.78  200.56
  -5   4  20 2293.62  204.86
   5  -4 -19 1828.92  190.39
  -5   4  19 2058.35  189.55
   5  -4 -18  392.20  117.83
  -5   4  18  379.10  114.96
   5  -4 -17  421.13  116.29
  -5   4  16  102.03   81.99
   5  -4 -15   48.93  138.89
   5  -4 -14  232.81   92.02
  -5   4  14  185.99   87.65
   5  -4 -13  249.59   95.78
  -5   4  13  410.79  160.39
   5  -4 -12   69.16   71.23
  -5   4  12   48.72   71.52
   5  -4 -11 1982.84  153.57
  -5   4  11 1909.77  146.00
   5  -4 -10  974.12  223.65
  -5   4  10  981.08  129.26
   5  -4  -9 3118.63  179.63
  -5   4   9 3125.16  170.44
   5  -4  -8  872.60  111.59
  -5   4   8  956.14  189.02
   5  -4  -7  745.53   93.89
  -5   4   7  733.38   94.93
   5  -4  -6  612.87   86.57
  -5   4   6  618.40   84.76
   5  -4  -5    2.99   50.92
  -5   4   5   79.90   90.34
   5  -4  -4   77.93   84.51
  -5   4   4   -3.10   48.38
   5  -4  -3  102.24   55.91
  -5   4   3  114.84   55.35
   5  -4  -2  113.39   51.23
  -5   4   2   44.05   52.08
   5  -4  -1  295.54  108.67
  -5   4   1  249.31  110.02
   5  -4   0 5067.92  254.04
  -5   4   0 5074.96  255.66
   5  -4   1 4428.95  149.77
  -5   4  -1 4325.59  152.11
   5  -4   2 2517.02  110.52
  -5   4  -2 2597.21  113.28
   5  -4   3   49.01   43.06
  -5   4  -3    4.25   42.91
   5  -4   4 1475.20   88.33
  -5   4  -4 1497.92  151.35
  -5   4  -5   88.23   49.88
  -5   4  -6 3728.89  135.10
  -5   4  -7   26.90   78.74
  -5   4  -8  147.22   51.47
  -5   4  -8   98.75   26.92
  -5   4  -9  556.42   64.62
  -5   4  -9  503.63   55.50
  -5   4  -9   69.55   62.66
  -5   4 -10   11.64   19.25
  -5   4 -10   -7.85   41.11
  -5   4 -10   -9.35   41.17
  -5   4 -11  398.53   54.54
  -5   4 -11  436.83   66.89
  -5   4 -11  483.52   66.52
  -5   4 -12   68.45   51.17
  -5   4 -12  100.65   51.95
  -5   4 -12   78.38   22.74
  -5   4 -13 4117.42   99.11
  -5   4 -13 4376.44  262.15
  -5   4 -13 4524.17  168.71
  -5   4 -14 4290.80  138.16
  -5   4 -14 5003.87  192.02
  -5   4 -14 5283.37  277.01
  -5   4 -15   95.44   55.68
  -5   4 -15   40.16   52.78
  -5   4 -15   43.38   34.48
  -5   4 -16  -49.44   42.82
  -5   4 -16   18.63   45.80
  -5   4 -16    2.83   15.84
  -5   4 -17  250.65   65.58
  -5   4 -17  186.92  122.63
  -5   4 -18   11.08   53.67
  -5   4 -18   95.65   57.57
  -5   4 -19   16.82   90.87
  -5   4 -19   42.80   57.10
  -5   4 -20   77.39   55.94
  -5   4 -20  -30.65   52.18
  -5   4 -21  131.54  118.13
  -5   4 -21  190.18   73.51
   5  -3 -21 -129.85  148.40
  -5   3  21   48.83   81.56
  -5   3  21   20.00   72.14
   5  -3 -20 -140.24  162.17
  -5   3  20   37.57  150.49
   5  -3 -19  148.40  189.71
  -5   3  19  266.08  103.15
   5  -3 -18 1069.30  249.31
   5  -3 -17  806.82  228.55
  -5   3  17  875.34  129.84
  -5   3  16 1016.17  223.23
   5  -3 -15 4348.47  355.20
  -5   3  15 2767.01  182.63
   5  -3 -14   -7.64   66.33
  -5   3  14   85.21  113.84
   5  -3 -13 1661.82  147.71
  -5   3  13 1794.97  142.48
   5  -3 -12 1267.30  129.76
  -5   3  12 1353.13  214.93
   5  -3 -11 5229.68  237.48
  -5   3  11 5009.57  239.05
   5  -3 -1039200.60 1525.69
  -5   3  1039244.39 1481.17
   5  -3  -957647.02 1834.26
  -5   3   956891.05 1791.74
   5  -3  -8 8647.91  317.65
  -5   3   8 8988.80  298.05
   5  -3  -7  436.14   81.20
  -5   3   7  446.56  139.27
   5  -3  -6   52.15   55.27
  -5   3   6   77.11   54.06
   5  -3  -5 2172.45  114.67
  -5   3   5 2094.25  111.75
   5  -3  -4  591.73   75.28
  -5   3   4  742.51   74.23
   5  -3  -3   68.30   48.06
  -5   3   3  106.63   85.95
   5  -3  -2 2333.11  106.49
  -5   3   2 2263.51  103.23
   5  -3  -1 3173.86  117.39
  -5   3   1 3197.62  120.23
   5  -3   0 1145.36  139.62
  -5   3   0 1364.70   81.87
   5  -3   1 6042.38  252.08
  -5   3  -1 6014.04  167.73
   5  -3   2   42.93   59.83
  -5   3  -2  -10.14   33.74
   5  -3   3  -31.46   31.89
  -5   3  -3   29.34   32.00
   5  -3   4  169.92   46.84
  -5   3  -4  195.93   82.77
  -5   3  -5 2900.11  169.32
  -5   3  -6  255.63   49.45
  -5   3  -7  125.19   44.67
  -5   3  -8  119.12   77.31
  -5   3  -8   94.62   47.06
  -5   3  -9   79.24   26.26
  -5   3  -9   83.29   45.39
  -5   3  -9  165.77   44.65
  -5   3 -10  444.42   35.75
  -5   3 -10  529.46   60.56
  -5   3 -10  534.33   58.51
  -5   3 -11  389.96   92.83
  -5   3 -11  313.11   56.06
  -5   3 -11  247.60   54.12
  -5   3 -12  707.34  111.53
  -5   3 -12  620.97   38.42
  -5   3 -12  665.50   70.97
  -5   3 -13   65.77   24.11
  -5   3 -13   78.88   44.86
  -5   3 -13   48.61   47.24
  -5   3 -14  299.68   30.54
  -5   3 -14  308.98   57.35
  -5   3 -14  323.26  106.63
  -5   3 -15  422.84   69.73
  -5   3 -15  451.54   56.53
  -5   3 -15  462.35  111.40
  -5   3 -16  304.56   60.50
  -5   3 -16  320.94   66.19
  -5   3 -16  257.49   49.69
  -5   3 -17   29.32   46.64
  -5   3 -17   22.79   43.53
  -5   3 -17   11.43   20.27
  -5   3 -18   70.23   88.53
  -5   3 -18   84.20   56.92
  -5   3 -19  -25.54   47.36
  -5   3 -20   60.44   92.12
  -5   3 -21   74.63   56.69
  -5   3 -22  170.20   66.47
   5  -2 -21  132.14  159.16
  -5   2  21  171.03  155.01
  -5   2  21   18.76   77.62
   5  -2 -20   36.45  154.14
  -5   2  20   52.43   84.56
   5  -2 -19   56.16  186.31
  -5   2  19  422.14  177.85
   5  -2 -18  175.80  172.07
  -5   2  18  200.14   93.67
   5  -2 -17 -132.44  145.40
  -5   2  17  -41.14   78.49
  -5   2  16 4885.83  254.57
   5  -2 -15 4225.79  425.72
  -5   2  15 4573.79  243.02
   5  -2 -14  100.30   78.77
  -5   2  14   63.49   76.31
   5  -2 -13  372.15   94.88
  -5   2  13  337.77   92.37
   5  -2 -12 1158.13  121.04
  -5   2  12 1306.99  120.87
   5  -2 -11 1368.32  122.80
  -5   2  11 1406.90  119.64
   5  -2 -10 3927.13  311.66
  -5   2  10 3766.98  186.95
   5  -2  -9  349.03   88.39
  -5   2   9  383.54   80.66
   5  -2  -8 1654.30  116.85
  -5   2   8 1723.00  113.25
   5  -2  -7 2534.25  204.57
  -5   2   7 2471.60  120.62
   5  -2  -6  -37.28   43.05
  -5   2   6   21.92   41.52
   5  -2  -5 7240.20  304.01
  -5   2   5 7050.53  202.88
   5  -2  -4  355.95   60.45
  -5   2   4  349.19   58.73
   5  -2  -3 6635.45  183.61
  -5   2   3 6711.72  179.97
   5  -2  -2   33.83   36.98
  -5   2   2  -73.65   64.09
   5  -2  -117765.06  423.85
  -5   2   118878.80  535.71
   5  -2   019062.27  448.96
  -5   2   020236.35  591.25
   5  -2   135085.53  856.07
  -5   2  -136715.56 1029.28
   5  -2   2  504.11   62.32
  -5   2  -2  970.01  114.07
   5  -2   3   59.80   37.26
  -5   2  -3   75.85   68.97
   5  -2   4 9996.17  304.65
  -5   2  -410178.17  311.48
  -5   2  -5 3946.39  176.31
  -5   2  -6  211.92   73.72
  -5   2  -7  504.61   38.78
  -5   2  -7  617.46   51.40
  -5   2  -8  181.65   40.64
  -5   2  -8  134.85   29.23
  -5   2  -9  985.50   78.92
  -5   2  -9 1047.42   65.23
  -5   2  -9 1110.95   64.75
  -5   2 -10  198.62   58.05
  -5   2 -10  273.10   81.90
  -5   2 -10  281.87   43.34
  -5   2 -11  423.29   49.68
  -5   2 -11  410.13   54.07
  -5   2 -11  391.08   36.88
  -5   2 -12  315.80   87.34
  -5   2 -12  297.23   45.88
  -5   2 -12  215.60   33.13
  -5   2 -13 1100.66   69.52
  -5   2 -13 1100.30   75.23
  -5   2 -13 1006.61   50.65
  -5   2 -14  -36.80   24.46
  -5   2 -14  -32.49   63.42
  -5   2 -14   14.23   39.92
  -5   2 -15   16.29   22.83
  -5   2 -15    6.36   36.30
  -5   2 -16    0.15   40.84
  -5   2 -16   52.67   24.46
  -5   2 -17   31.34   77.66
  -5   2 -17   61.52   25.82
  -5   2 -18  158.16   52.83
  -5   2 -19  293.45   61.44
  -5   2 -20   12.64   75.96
  -5   2 -21   -5.39   43.04
  -5   2 -22  120.14  101.72
   5  -1 -21  158.55  100.59
  -5   1  21   97.93   97.62
   5  -1 -20  973.48  145.62
  -5   1  20  866.09  240.92
   5  -1 -19  -26.18   71.18
  -5   1  19   15.62   67.52
   5  -1 -18   68.20  156.11
  -5   1  18  104.33   83.64
   5  -1 -17 1809.49  292.39
  -5   1  17 1965.13  274.37
   5  -1 -1611816.56  698.48
  -5   1  1612100.76  443.30
   5  -1 -15 5627.41  437.31
  -5   1  15 5619.30  414.76
   5  -1 -14  341.34  105.00
  -5   1  14  411.55  101.18
   5  -1 -13  116.85   77.52
  -5   1  13  133.06   77.20
   5  -1 -12 4764.56  212.14
  -5   1  12 4662.07  200.13
   5  -1 -11 2175.11  135.23
  -5   1  11 1994.65  126.72
   5  -1 -10 1093.63  104.29
  -5   1  10 1183.01  100.85
   5  -1  -9 1138.24  163.10
  -5   1   9  996.12  159.77
   5  -1  -8  741.37   83.97
  -5   1   8  823.87   82.74
   5  -1  -7 4358.94  156.27
  -5   1   7 4434.14  236.68
   5  -1  -620832.06  656.75
  -5   1   620685.05  513.05
   5  -1  -5 9001.24  240.57
  -5   1   5 9067.29  237.03
   5  -1  -4 4900.34  151.78
  -5   1   4 4792.43  147.86
   5  -1  -3 2781.23  166.45
  -5   1   3 2602.38   99.46
   5  -1  -2  132.49   73.56
  -5   1   2   80.75   73.94
   5  -1  -1  174.95   77.65
  -5   1   1  153.23   77.20
   5  -1   0 2402.27   92.08
  -5   1   0 2445.92  148.85
   5  -1   1 1032.23   62.82
  -5   1  -1 1071.26   64.70
   5  -1   2 2354.59   83.50
  -5   1  -2 2523.02   85.70
   5  -1   3 2259.73   77.33
  -5   1  -3 2228.81   79.72
   5  -1   4  138.74   35.70
  -5   1  -4  155.46   35.41
  -5   1  -5 4973.94  178.26
  -5   1  -6  759.13   83.83
  -5   1  -7 1693.67  106.38
  -5   1  -7 1714.95   97.43
  -5   1  -8 5929.90  203.55
  -5   1  -8 5482.03  176.25
  -5   1  -8 6166.25  142.37
  -5   1  -9 6808.48  155.80
  -5   1  -9 6921.58  164.17
  -5   1  -9 7221.72  160.04
  -5   1 -10 6551.54  155.74
  -5   1 -10 6925.48  161.05
  -5   1 -10 6766.42  169.25
  -5   1 -11 4261.42  117.02
  -5   1 -11 4255.67  183.85
  -5   1 -11 3989.45  107.21
  -5   1 -12  712.62   51.44
  -5   1 -12  788.82   57.51
  -5   1 -12  666.46   47.66
  -5   1 -13 2000.93  109.73
  -5   1 -13 2001.95   79.91
  -5   1 -14  318.13   38.80
  -5   1 -14  358.14   80.03
  -5   1 -15   29.82   27.00
  -5   1 -15   42.99   34.87
  -5   1 -16 1360.29   78.53
  -5   1 -16 1270.55   59.40
  -5   1 -17  194.59   78.09
  -5   1 -17   72.73   32.06
  -5   1 -18   42.31   37.46
  -5   1 -18  -32.81   25.42
  -5   1 -19 1780.25  162.27
  -5   1 -20   13.01   42.19
  -5   1 -21  342.84   67.30
  -5   1 -22  232.32   64.24
  -5   1 -23   60.59   53.68
   5   0 -22   29.21   86.26
  -5   0  22   -5.68   81.34
  -5   0  22   52.26   60.53
   5   0 -21  165.55  107.05
  -5   0  21  242.13  102.66
   5   0 -20   77.21   93.23
  -5   0  20  135.92   93.37
   5   0 -19  131.97   90.20
  -5   0  19   81.40   87.09
   5   0 -18  154.84   95.12
  -5   0  18  213.89  162.04
   5   0 -17  537.91  121.61
  -5   0  17  534.82  113.65
   5   0 -16 3126.76  350.84
  -5   0  16 3030.37  196.58
   5   0 -15  230.50  174.60
  -5   0  15  132.07  164.89
   5   0 -14 1460.91  232.13
  -5   0  14 1543.01  129.55
   5   0 -13  184.92   79.78
  -5   0  13  205.36  131.68
   5   0 -12  806.07   99.03
  -5   0  12  772.62   96.68
   5   0 -11   75.09   62.80
  -5   0  11   92.19   60.08
   5   0 -10 1464.51  109.02
  -5   0  10 1578.27  105.53
   5   0  -9 3018.68  138.15
  -5   0   9 3042.82  133.71
   5   0  -8  586.01  122.75
  -5   0   8  518.64   68.86
   5   0  -7 1804.14  103.37
  -5   0   7 1780.77  163.10
   5   0  -645606.28 1226.90
  -5   0   645928.04 1224.18
   5   0  -517803.68  427.92
  -5   0   517882.40  420.90
   5   0  -4   26.80   37.46
  -5   0   4   19.72   64.22
   5   0  -3  499.99   54.22
  -5   0   3  449.34   52.47
   5   0  -2 5093.34  137.99
  -5   0   2 5021.68  133.82
   5   0  -1 2790.26   93.43
  -5   0   1 2793.60   91.33
   5   0   0   53.17   31.52
  -5   0   0   52.08   31.77
   5   0   1   57.57   30.42
  -5   0  -1   66.76   54.00
   5   0   2  707.30   78.06
  -5   0  -2  716.29   46.93
   5   0   3 1982.67   64.07
  -5   0  -3 1881.10   64.70
   5   0   422127.90  453.24
  -5   0  -423410.72  553.45
  -5   0  -532723.35  711.38
  -5   0  -6 3252.94  117.32
  -5   0  -6 3102.99   95.85
  -5   0  -7   39.80   28.68
  -5   0  -7   32.95   21.45
  -5   0  -8  564.50   35.89
  -5   0  -8  407.53   77.02
  -5   0  -8  509.90   62.70
  -5   0  -9  851.48   44.35
  -5   0  -9  809.29   88.41
  -5   0  -9  879.39   45.74
  -5   0 -10  668.08   43.46
  -5   0 -10  633.70   76.06
  -5   0 -10  599.31   82.41
  -5   0 -11 8635.38  194.88
  -5   0 -11 8601.33  272.42
  -5   0 -12 1860.89  121.12
  -5   0 -12 1807.03   69.09
  -5   0 -13  245.55   37.84
  -5   0 -13  244.51   70.70
  -5   0 -14   55.76   57.97
  -5   0 -14   28.41   55.39
  -5   0 -15  199.59   39.85
  -5   0 -15  168.03   72.18
  -5   0 -16  168.11   42.63
  -5   0 -16  171.07   39.93
  -5   0 -17 3659.77  191.64
  -5   0 -17 3753.22  121.79
  -5   0 -18 1773.68   87.97
  -5   0 -18  945.66   68.91
  -5   0 -19  730.18   75.73
  -5   0 -20 1482.70  102.06
  -5   0 -21  334.82  112.42
  -5   0 -22   84.80   51.76
  -5   0 -23  481.33  122.24
   5   1 -22  104.39   99.17
  -5  -1  22  121.27   92.55
  -5  -1  22   69.08   62.32
   5   1 -21  -60.54   86.15
  -5  -1  21   91.59   81.23
  -5  -1  21   44.59   55.07
   5   1 -20   80.21   92.01
  -5  -1  20   93.27   86.70
   5   1 -19  430.76  121.38
  -5  -1  19  613.96  114.03
   5   1 -18 1105.63  145.12
  -5  -1  18 1131.75  234.78
   5   1 -17  -10.84   65.92
  -5  -1  17    5.40   61.80
   5   1 -16 1762.62  170.65
  -5  -1  16 1542.55  143.57
   5   1 -15 7442.96  456.04
  -5  -1  15 6975.87  284.09
   5   1 -14  -22.36  108.63
  -5  -1  14   22.88   58.00
   5   1 -13  626.95  164.84
  -5  -1  13  518.32  156.06
   5   1 -12  394.20  142.65
  -5  -1  12  340.37   76.33
   5   1 -11   74.69   94.66
  -5  -1  11   10.24   50.76
   5   1 -10   44.41   52.13
  -5  -1  10  -10.86   90.29
   5   1  -9  502.35   72.07
  -5  -1   9  454.05   69.36
   5   1  -8 4760.15  163.69
  -5  -1   8 4746.84  237.46
   5   1  -7  176.23   52.51
  -5  -1   7  174.07   50.03
   5   1  -6 7099.20  277.01
  -5  -1   6 7205.23  271.59
   5   1  -5  573.53   59.82
  -5  -1   5  514.55   57.99
   5   1  -4   34.25   72.73
  -5  -1   4  114.10   40.35
   5   1  -3   44.89   36.69
  -5  -1   3   53.29   62.48
   5   1  -213180.45  281.81
  -5  -1   212876.27  272.68
   5   1  -1 5636.09  130.07
  -5  -1   1 5647.30  129.03
   5   1   0  577.77   73.54
  -5  -1   0  601.57   73.29
   5   1   1 1703.50   57.11
  -5  -1  -1 2012.40   95.43
   5   1   2 3538.93  118.18
  -5  -1  -2 3289.43   77.44
   5   1   320846.62  455.30
  -5  -1  -320222.87  391.79
   5   1   4105327.9 3031.30
  -5  -1  -4112355.2 3349.61
  -5  -1  -576644.16 2038.24
  -5  -1  -570632.53 1965.52
  -5  -1  -614507.86  309.48
  -5  -1  -613666.95  311.99
  -5  -1  -717678.95  331.94
  -5  -1  -717117.39  380.06
  -5  -1  -718380.05  385.59
  -5  -1  -8 5273.31  139.90
  -5  -1  -8 5428.08  105.16
  -5  -1  -8 5390.83  146.85
  -5  -1  -9   94.89   35.08
  -5  -1  -9   66.71   37.35
  -5  -1  -9   66.89   40.66
  -5  -1 -10 1045.82   41.40
  -5  -1 -10 1024.05   60.32
  -5  -1 -11 1204.30   47.63
  -5  -1 -11 1144.59   66.19
  -5  -1 -12  745.76   59.71
  -5  -1 -12  718.71   74.00
  -5  -1 -13  800.21   67.19
  -5  -1 -13  843.69   83.60
   5   1  1411924.12  321.76
  -5  -1 -1412034.86  414.79
  -5  -1 -1411747.63  280.41
   5   1  15 4702.73  158.13
  -5  -1 -15 4772.17  227.81
  -5  -1 -15 4578.28  131.09
   5   1  16  167.16   45.41
  -5  -1 -16  139.23   64.45
  -5  -1 -16  117.89   45.15
   5   1  17   -2.93   35.88
  -5  -1 -17  -40.58   32.51
  -5  -1 -17    3.37   35.98
   5   1  18  219.65   82.01
  -5  -1 -18  186.19   77.44
  -5  -1 -18  112.85   45.81
   5   1  19  682.21  112.07
  -5  -1 -19  530.83   62.31
   5   1  20 4265.49  237.48
  -5  -1 -20 3900.78  157.74
   5   1  21 4728.91  258.20
  -5  -1 -21 4496.47  178.46
   5   1  22  101.54   56.18
  -5  -1 -22  233.17   56.90
   5   1  23  180.32   53.23
  -5  -1 -23  169.80   98.05
   5   1  24  238.97   55.03
  -5  -1 -24  205.73   60.90
   5   2 -22    2.56  143.53
  -5  -2  22   30.60  137.05
  -5  -2  22    9.44   46.36
   5   2 -21   16.57  122.60
  -5  -2  21   55.48   67.53
  -5  -2  21  -23.40   41.45
   5   2 -20  473.28  119.57
  -5  -2  20  474.45  114.41
   5   2 -19   19.28   70.13
  -5  -2  19  -33.86  121.63
   5   2 -18   20.21   81.15
  -5  -2  18  106.38   79.13
   5   2 -17  139.48   83.66
  -5  -2  17   95.86   80.69
   5   2 -16  119.70   84.42
  -5  -2  16  143.14  140.69
   5   2 -15  184.49  136.39
  -5  -2  15   81.74   74.78
   5   2 -14 1425.51  216.89
  -5  -2  14 1487.44  123.46
   5   2 -13  586.40  168.01
  -5  -2  13  650.71   94.12
   5   2 -12  763.05  162.14
  -5  -2  12  702.53   89.40
   5   2 -11   41.41  100.73
  -5  -2  11   59.84   54.97
   5   2 -10 3411.63  233.79
  -5  -2  10 3154.65  140.02
   5   2  -9  390.52  109.59
  -5  -2   9  281.00   59.61
   5   2  -8  304.55  102.76
  -5  -2   8  264.90   55.41
   5   2  -7  610.19   66.79
  -5  -2   7  628.63  111.92
   5   2  -613853.04  344.65
  -5  -2   613912.45  336.58
   5   2  -527425.85  669.21
  -5  -2   527342.75  656.17
   5   2  -416547.50  381.15
  -5  -2   416932.07  380.91
   5   2  -3   30.64   32.68
  -5  -2   3   42.17   56.73
   5   2  -2 8388.67  186.28
  -5  -2   2 8465.11  183.90
   5   2  -1 4800.78  111.21
  -5  -2   1 4945.23  111.43
   5   2   0 2268.76  102.22
  -5  -2   0 2434.94  100.91
   5   2   1 1918.60   53.37
  -5  -2  -1 1993.44   84.47
   5   2   2  752.28   51.79
  -5  -2  -2  655.07   30.44
   5   2   3 1026.27   50.72
  -5  -2  -3  988.23   31.11
   5   2   448827.50 1095.36
  -5  -2  -444560.02  962.23
  -5  -2  -448048.44 1192.90
  -5  -2  -542246.57  922.30
  -5  -2  -541716.11 1025.41
  -5  -2  -626026.12  519.17
  -5  -2  -625063.94  576.65
  -5  -2  -625454.59  501.94
  -5  -2  -7 6123.49   96.97
  -5  -2  -7 6060.46  154.60
  -5  -2  -7 5887.25   96.14
  -5  -2  -8 1214.67   67.38
  -5  -2  -8 1182.60   33.16
  -5  -2  -8 1187.57   30.87
  -5  -2  -9  731.98   45.47
  -5  -2  -9  762.85   56.03
   5   2  10  236.61   42.77
  -5  -2 -10  214.94   37.81
  -5  -2 -10  179.87   44.34
   5   2  11 6630.26  171.73
  -5  -2 -11 6475.09  170.19
  -5  -2 -11 6693.19  130.71
   5   2  12   80.94   68.98
  -5  -2 -12   59.16   70.77
  -5  -2 -12   61.49   22.27
   5   2  13 2258.63  109.96
  -5  -2 -13 2415.23  110.33
  -5  -2 -13 2315.62  109.57
   5   2  1453432.37 1607.77
  -5  -2 -1453927.60 1619.93
  -5  -2 -1454016.68 1532.38
   5   2  1529549.49  835.40
  -5  -2 -1529247.33  860.84
  -5  -2 -1529317.76  961.90
   5   2  16 2287.49  107.70
  -5  -2 -16 2121.64   79.41
  -5  -2 -16 2088.77  106.10
   5   2  17 1131.04   81.58
  -5  -2 -17 1210.30  100.61
  -5  -2 -17 1191.49   82.08
   5   2  18 1085.79   79.78
  -5  -2 -18  980.79   62.98
   5   2  19   -5.34   41.46
  -5  -2 -19   31.16   32.74
   5   2  20   45.94   44.77
  -5  -2 -20   21.14   64.66
   5   2  21  759.25   76.63
  -5  -2 -21  586.05   66.42
   5   2  22  959.69   85.84
  -5  -2 -22  747.61   76.50
   5   2  23   54.07   46.23
  -5  -2 -23  -51.09   72.54
   5   2  24  163.17   59.43
  -5  -2 -24  160.19   54.70
   5   3 -22  190.45  101.61
  -5  -3  22    3.31   96.28
  -5  -3  22  112.19   52.25
   5   3 -21  301.84  105.01
  -5  -3  21  -13.57  100.06
  -5  -3  21  190.71   56.06
   5   3 -20   28.30  139.76
  -5  -3  20   24.16  133.55
   5   3 -19  447.50  113.99
  -5  -3  19  382.20  109.92
   5   3 -18   18.81   78.61
  -5  -3  18   72.42   75.02
   5   3 -17 3070.15  197.37
  -5  -3  17 2928.11  182.85
   5   3 -16    5.27   65.44
  -5  -3  16   40.91  109.18
   5   3 -15  178.90   78.02
  -5  -3  15   97.35   73.79
   5   3 -14  111.18  121.48
  -5  -3  14   68.55   65.71
   5   3 -13  175.73  129.30
  -5  -3  13  129.04   68.92
   5   3 -12 2012.99  129.89
  -5  -3  12 1838.50  201.11
   5   3 -11   26.25   54.66
  -5  -3  11   35.84   51.50
   5   3 -10 4003.36  160.95
  -5  -3  10 3981.88  155.92
   5   3  -9  329.16   63.37
  -5  -3   9  294.06   60.97
   5   3  -8 1629.60   94.07
  -5  -3   8 1784.83  150.43
   5   3  -7  118.79   48.47
  -5  -3   7  131.32   46.48
   5   3  -6 3655.27  125.33
  -5  -3   6 3605.24  121.07
   5   3  -5  393.03   96.27
  -5  -3   5  432.76   51.94
   5   3  -4  273.13   79.69
  -5  -3   4  263.31   76.71
   5   3  -3 6535.46  157.82
  -5  -3   3 6619.63  153.75
   5   3  -2 6868.33  209.41
  -5  -3   2 6291.21  139.90
   5   3  -1 8275.58  165.94
  -5  -3   1 8871.53  225.53
   5   3   0 1547.57   76.18
  -5  -3   0 1429.77   46.36
   5   3   1 6691.16  115.47
  -5  -3  -1 6999.38  152.46
   5   3   2  582.10   36.79
  -5  -3  -2  521.54   35.26
   5   3   3 6340.20  108.30
  -5  -3  -3 6154.10  182.91
  -5  -3  -3 6308.07  107.67
  -5  -3  -480245.96 2272.54
  -5  -3  -475893.76 1896.35
  -5  -3  -577569.62 2137.70
  -5  -3  -568248.09 1586.70
  -5  -3  -568099.23 1582.50
  -5  -3  -6 2907.34   43.26
  -5  -3  -6 3067.68  121.70
  -5  -3  -6 2970.00   45.70
  -5  -3  -7 8727.26  214.25
  -5  -3  -7 8529.50  136.54
  -5  -3  -7 8336.57  128.88
   5   3   8 4469.88  130.33
  -5  -3  -8 4523.36   84.82
  -5  -3  -8 4557.25   67.23
  -5  -3  -8 4491.68  132.34
   5   3   9 6649.07  173.06
  -5  -3  -9 6746.90  178.73
  -5  -3  -9 7328.66  138.49
   5   3  10  179.85   43.67
  -5  -3 -10  118.05   80.26
  -5  -3 -10  151.10   17.14
   5   3  11 3145.50  110.57
  -5  -3 -11 3109.75  112.31
  -5  -3 -11 3125.74   87.08
   5   3  12   -6.74   37.90
  -5  -3 -12   27.68   38.88
  -5  -3 -12   37.22   29.48
   5   3  13 3522.52  206.26
   5   3  13 3056.11   73.68
  -5  -3 -13 3705.65  215.63
  -5  -3 -13 3699.94   85.04
   5   3  1436553.37 1013.58
   5   3  1435617.18  893.40
  -5  -3 -1437420.50 1024.08
  -5  -3 -1436009.53  914.56
   5   3  1516976.72  468.88
   5   3  1516280.39  376.90
  -5  -3 -1516157.20  455.58
  -5  -3 -1517077.30  471.22
   5   3  16  220.62   57.46
   5   3  16  226.10   31.17
  -5  -3 -16  270.69  103.17
  -5  -3 -16  250.71   35.59
   5   3  17  849.82   77.55
   5   3  17  863.87   45.48
  -5  -3 -17  953.47   80.47
  -5  -3 -17  856.06   52.78
   5   3  18   97.36   47.93
   5   3  18   45.38   28.21
  -5  -3 -18   84.19   55.64
   5   3  19  268.34   58.31
   5   3  19  158.95   35.21
  -5  -3 -19  291.73   70.11
   5   3  20   38.94   44.08
   5   3  20   11.93   26.89
  -5  -3 -20    8.43   30.91
   5   3  21  291.07   68.89
  -5  -3 -21  400.04   50.13
   5   3  22   91.61   45.36
   5   3  22    0.21   15.82
   5   3  23  120.87   84.32
   5   3  23   -0.08   16.69
  -5  -3 -23   53.06   37.39
   5   3  24  481.66  146.35
  -5  -3 -24  649.22   71.59
  -5  -4  22  -14.44   91.45
  -5  -4  22   92.53   71.04
   5   4 -21   61.00   90.68
  -5  -4  21    9.43  154.26
  -5  -4  21   47.81   40.84
   5   4 -20  134.33   81.05
  -5  -4  20  -13.01   77.05
  -5  -4  20    7.93   37.36
   5   4 -19   81.33  177.69
  -5  -4  19  265.44   96.51
   5   4 -18  155.25   95.79
  -5  -4  18  195.14   88.45
   5   4 -17  176.32   93.13
  -5  -4  17  247.48   86.86
   5   4 -16  -38.62   69.09
  -5  -4  16   29.87  114.85
   5   4 -15 1609.14  140.97
  -5  -4  15 1725.47  132.95
   5   4 -14  281.91  151.11
  -5  -4  14  278.55   79.48
   5   4 -13  223.08  115.31
  -5  -4  13   21.18   62.63
   5   4 -12 2216.10  136.19
  -5  -4  12 2151.47  127.57
   5   4 -11  -32.42   53.77
  -5  -4  11  -35.71   89.18
   5   4 -10  774.87   85.00
  -5  -4  10  729.33   80.13
   5   4  -9   76.31   52.79
  -5  -4   9   94.07   49.28
   5   4  -8 1840.64   99.43
  -5  -4   8 1940.50   94.60
   5   4  -7   24.91   39.35
  -5  -4   7   28.46   37.04
   5   4  -6 6287.05  249.06
  -5  -4   6 6059.01  162.21
   5   4  -5  174.10   79.74
  -5  -4   5  208.81   42.69
   5   4  -4 1719.76   78.31
  -5  -4   4 1889.79  122.63
   5   4  -315718.75  346.67
  -5  -4   315648.91  409.18
   5   4  -2  182.38   34.68
  -5  -4   2  209.20   33.65
   5   4  -1 4117.40  134.32
  -5  -4   1 4043.20   89.90
   5   4   0  404.20   29.47
  -5  -4   0  399.25   28.49
   5   4   1 4504.87   79.90
  -5  -4  -1 4805.04  106.90
   5   4   216728.33  276.92
  -5  -4  -217108.69  280.81
  -5  -4  -217244.50  376.76
   5   4   3  713.02   18.36
  -5  -4  -3  478.31   65.05
  -5  -4  -3  692.82   24.72
  -5  -4  -422675.59  533.87
  -5  -4  -563776.78 1738.40
   5   4   640758.16 1026.21
  -5  -4  -641776.25 1058.55
   5   4   719138.04  455.07
  -5  -4  -719693.28  464.83
   5   4   8 5403.62  154.66
  -5  -4  -8 5242.33   75.18
  -5  -4  -8 5398.71  241.76
   5   4   9 5433.29  160.44
  -5  -4  -9 5419.32   93.88
  -5  -4  -9 5552.01  243.54
   5   4  10  953.45  118.22
   5   4  10  854.47   21.43
  -5  -4 -10  937.33   71.54
  -5  -4 -10  904.28   36.86
   5   4  11 1286.54   45.05
   5   4  11 1330.83   80.35
  -5  -4 -11 1413.78   84.07
  -5  -4 -11 1319.11   32.92
   5   4  12 1186.78   33.51
   5   4  12 1335.30   82.08
  -5  -4 -12 1428.59  144.41
  -5  -4 -12 1256.98   58.28
   5   4  13  842.94   53.00
   5   4  13  944.65   80.74
  -5  -4 -13  967.05   61.55
  -5  -4 -13  980.04   82.67
   5   4  1411653.58  281.88
   5   4  1412581.42  462.14
  -5  -4 -1412369.67  331.15
  -5  -4 -1411681.32  303.07
   5   4  15  219.85   46.86
   5   4  15  280.57  109.99
  -5  -4 -15  274.55   65.32
  -5  -4 -15  226.27   54.40
   5   4  16 4939.31  151.89
   5   4  16 5353.18  275.01
  -5  -4 -16 5568.31  189.10
  -5  -4 -16 4755.55  121.96
   5   4  17   11.18   37.07
   5   4  17   15.09   82.85
  -5  -4 -17    6.75   25.82
  -5  -4 -17   95.90   48.83
   5   4  18   68.53   48.07
   5   4  18  169.49  102.17
  -5  -4 -18  170.29   33.78
   5   4  19 1137.02   53.09
   5   4  19 1307.09  163.82
  -5  -4 -19 1124.35   62.20
   5   4  20   -0.76   24.48
   5   4  20  -26.86   82.25
  -5  -4 -20  -64.29   50.15
   5   4  21   -0.60   20.11
   5   4  21  -23.75   79.20
  -5  -4 -21   45.70   51.02
   5   4  22    0.30   27.51
   5   4  22  101.35   57.29
  -5  -4 -22  141.73   37.30
   5   4  23  647.75   83.35
  -5  -4 -23  311.46   57.52
   5   4  24  807.19   94.13
  -5  -4 -24  562.36   69.04
   5   5 -21 1041.17  135.68
  -5  -5  21   71.18  127.88
  -5  -5  21  389.93   92.40
   5   5 -20 1741.13  178.60
  -5  -5  20 1559.09  164.82
  -5  -5  20 1313.69   78.03
   5   5 -19  259.38  103.49
  -5  -5  19  152.30   98.55
   5   5 -18  454.26  200.57
  -5  -5  18  514.36  110.08
   5   5 -17   -9.57  139.04
  -5  -5  17  125.09  130.59
   5   5 -16  385.07   99.69
  -5  -5  16  365.16  163.96
   5   5 -15 4188.62  216.57
  -5  -5  15 4012.69  200.26
   5   5 -14 1709.02  136.08
  -5  -5  14 1512.87  129.41
   5   5 -13 1143.88  189.22
  -5  -5  13  887.90  104.28
   5   5 -12  698.68  102.20
  -5  -5  12  788.80   96.34
   5   5 -11  -12.98   54.60
  -5  -5  11   68.51   52.24
   5   5 -10  186.61   63.83
  -5  -5  10  174.54   60.28
   5   5  -9 1491.99   99.52
  -5  -5   9 1484.76  157.06
   5   5  -8  285.48  101.16
  -5  -5   8  155.78   93.64
   5   5  -7 8744.83  243.85
  -5  -5   7 8481.71  307.27
   5   5  -6  560.63   65.77
  -5  -5   6  615.89  102.49
   5   5  -520193.08  487.93
  -5  -5   519254.55  546.72
   5   5  -410136.31  245.14
  -5  -5   4 9657.39  225.89
   5   5  -3 4107.42  113.09
  -5  -5   3 4087.37  108.45
   5   5  -2 2318.92  116.80
  -5  -5   2 2280.59  109.74
   5   5  -1 2600.21  107.14
  -5  -5   1 2596.60   67.32
   5   5   0 6018.26  153.57
  -5  -5   0 5667.02  107.17
  -5  -5   0 5902.47  144.27
   5   5   1  308.78   39.69
  -5  -5  -1  258.41   46.30
  -5  -5  -1  407.06   21.60
   5   5   2  154.63   25.57
  -5  -5  -2  139.64   41.09
   5   5   3 6290.17   96.95
   5   5   3 6066.24   97.57
  -5  -5  -3 6111.52  231.03
  -5  -5  -4 5520.55  225.79
   5   5   5 2116.13   95.70
  -5  -5  -5 2110.04   95.15
   5   5   617608.37  536.25
  -5  -5  -617591.03  413.91
   5   5   733535.53  831.20
  -5  -5  -733929.17  833.73
   5   5   8  188.44   91.10
   5   5   8  176.27    5.12
  -5  -5  -8  158.70    9.31
  -5  -5  -8  277.74   94.87
   5   5   9  918.14   22.96
   5   5   9  775.22   71.57
  -5  -5  -9  841.01   74.76
  -5  -5  -9  829.46   27.25
   5   5  10  405.35   22.94
   5   5  10  445.04   60.13
  -5  -5 -10  476.06   61.98
  -5  -5 -10  374.87   28.19
   5   5  11  715.71   21.50
   5   5  11  773.90  120.98
  -5  -5 -11  813.71  126.86
  -5  -5 -11  732.29   24.28
   5   5  12  996.63   28.71
   5   5  12  971.91   80.98
  -5  -5 -12  966.58   32.49
  -5  -5 -12 1135.88   83.28
   5   5  13   36.62   49.41
   5   5  13   41.51   15.74
  -5  -5 -13   42.01   32.70
  -5  -5 -13  108.70   86.95
   5   5  14  747.41   31.46
   5   5  14  668.61   81.84
  -5  -5 -14  657.35   58.99
  -5  -5 -14  571.90   82.05
   5   5  15 5516.06  196.81
   5   5  15 5359.51  113.63
  -5  -5 -15 5008.68  118.70
  -5  -5 -15 5780.19  302.23
   5   5  16 3694.66   89.74
   5   5  16 4038.21  165.86
  -5  -5 -16 3558.83   97.11
  -5  -5 -16 4038.25  168.55
   5   5  17  641.73   83.76
   5   5  17  591.22   60.15
  -5  -5 -17  579.35   43.56
   5   5  18   -3.60   35.39
   5   5  18   54.69   48.77
  -5  -5 -18    3.93   25.08
   5   5  19   -0.89   26.91
   5   5  19  175.67   60.82
  -5  -5 -19  184.20   32.60
   5   5  20   -0.30   23.71
   5   5  20  -13.24   53.08
  -5  -5 -20   49.87   28.81
   5   5  21   -0.02   15.70
   5   5  21   45.02   48.21
  -5  -5 -21   -5.17   27.16
   5   5  22   -0.03   23.82
   5   5  22  -25.73   54.32
  -5  -5 -22  -35.20   31.43
   5   5  23   -0.44   22.99
   5   5  23   65.56   95.85
  -5  -5 -23    9.68   54.86
   5   5  24  272.01  134.75
  -5  -5 -24  159.75   83.88
   5   6 -21   16.92   92.35
  -5  -6  21  -35.48   85.94
  -5  -6  21  -33.61   27.88
   5   6 -20  118.97  186.76
  -5  -6  20  169.85  104.36
  -5  -6  20  145.04   62.16
   5   6 -19   16.99   71.64
  -5  -6  19   13.02   68.46
  -5  -6  19   -5.56   24.83
   5   6 -18  -35.53   77.88
  -5  -6  18   86.61   72.60
   5   6 -17  -29.87   73.44
  -5  -6  17   -5.79  121.45
   5   6 -16  926.46  218.17
  -5  -6  16 1056.51  209.64
   5   6 -15 2543.62  176.00
  -5  -6  15 2600.20  168.74
   5   6 -14  554.84  102.64
  -5  -6  14  547.58   99.44
   5   6 -13 1214.21  121.57
  -5  -6  13 1183.94  116.37
   5   6 -12  171.30  152.18
  -5  -6  12  273.12   79.33
   5   6 -1115908.55  518.73
  -5  -6  1115462.66  482.21
   5   6 -1011671.82  370.23
  -5  -6  1011143.94  345.80
   5   6  -9  691.44  146.82
  -5  -6   9  705.83   80.72
   5   6  -8 2350.60  118.16
  -5  -6   8 2476.55  114.72
   5   6  -7   90.09   49.01
  -5  -6   7   54.27   46.77
   5   6  -620104.91  517.62
  -5  -6   619772.36  489.59
   5   6  -597356.37 3349.05
  -5  -6   593939.91 3196.41
   5   6  -433779.89  861.61
  -5  -6   433089.15  823.67
   5   6  -3 7907.96  193.18
  -5  -6   3 7859.60  183.32
   5   6  -2 6441.73  207.20
  -5  -6   2 6358.77  144.23
  -5  -6   2 6408.91  143.58
   5   6  -1  450.64   35.80
  -5  -6   1  366.55   41.01
  -5  -6   1  508.75   61.42
   5   6   0  509.24   33.31
  -5  -6   0  467.70   75.74
   5   6   115126.10  323.79
  -5  -6  -114612.81  391.91
   5   6   2   43.83   14.48
  -5  -6  -2   25.21   33.94
   5   6   3  387.30   27.92
   5   6   3  374.48   28.87
  -5  -6  -3  492.75   49.32
   5   6   4 2979.85   57.31
   5   6   4 3060.96   56.94
   5   6   4 3126.98  106.62
  -5  -6  -4 2948.13  104.09
   5   6   5 5500.29   79.39
   5   6   5 5534.54   80.87
   5   6   5 5829.30  157.80
  -5  -6  -5 5623.64  225.96
   5   6   6 2894.88   40.06
   5   6   6 3099.01  112.38
   5   6   6 3172.55   43.00
  -5  -6  -6 3018.18  112.52
   5   6   7 1689.55   87.34
   5   6   7 1834.98   29.40
  -5  -6  -7 1660.95   89.30
   5   6   8  224.84   51.33
   5   6   8  248.00   14.11
  -5  -6  -8  266.49   53.94
  -5  -6  -8  228.19   16.05
   5   6   9  467.05  101.65
   5   6   9  342.97   19.19
  -5  -6  -9  358.58   60.34
  -5  -6  -9  341.18   22.66
   5   6  10   59.93   44.33
   5   6  10   50.02   16.73
  -5  -6 -10   37.99   80.97
  -5  -6 -10   35.28   11.63
   5   6  11 1256.28   87.45
   5   6  11 1109.56   27.05
  -5  -6 -11 1170.66   88.87
  -5  -6 -11 1142.00   49.11
   5   6  12  232.19   61.70
   5   6  12  249.25   29.78
  -5  -6 -12  138.28   35.74
  -5  -6 -12  308.95  108.41
   5   6  13 1191.81   94.25
   5   6  13 1097.39   51.34
  -5  -6 -13 1091.34   61.19
  -5  -6 -13 1262.78   94.96
   5   6  14    0.37   50.45
   5   6  14   11.25   15.73
  -5  -6 -14   32.89   18.96
  -5  -6 -14   59.89   89.89
   5   6  15 2797.27  217.11
   5   6  15 2357.95   86.59
  -5  -6 -15 2306.34   99.57
  -5  -6 -15 2789.71  138.23
   5   6  16  943.20   60.05
   5   6  16 1053.99  165.62
  -5  -6 -16  899.38   46.16
  -5  -6 -16  760.89   97.86
   5   6  17  851.53   39.52
   5   6  17 1043.42  165.44
  -5  -6 -17  806.06   47.12
   5   6  18    0.47   34.91
   5   6  18  -41.74   94.68
  -5  -6 -18   50.23   43.73
   5   6  19  221.27   68.67
   5   6  19   -0.39   47.02
  -5  -6 -19  258.72   57.93
   5   6  20   61.54   56.56
   5   6  20   -0.51   22.24
  -5  -6 -20   35.26   47.57
   5   6  21    0.10   12.29
   5   6  21  -20.37   50.34
  -5  -6 -21   22.25   44.21
   5   6  22   -0.23   20.85
   5   6  22   -1.06   53.83
  -5  -6 -22   17.07   47.82
   5   6  23  382.08   85.92
  -5  -6 -23  211.11   47.01
   5   7 -20  393.14  128.96
  -5  -7  20  438.20  119.82
   5   7 -19  783.16  235.06
  -5  -7  19  601.98   67.38
  -5  -7  19  984.28  130.29
   5   7 -18  126.59   82.29
  -5  -7  18   49.88   24.46
  -5  -7  18  -30.70  136.23
   5   7 -17  -12.35   69.53
  -5  -7  17   -1.41  114.00
   5   7 -16   53.54   80.12
  -5  -7  16   67.13   74.91
   5   7 -15   92.21  138.33
  -5  -7  15   83.49   73.45
   5   7 -14  168.27   83.07
  -5  -7  14  175.03   77.44
   5   7 -13  236.13   83.06
  -5  -7  13  244.13   77.95
   5   7 -12 1139.92  195.01
  -5  -7  12 1027.09  108.82
   5   7 -11 3867.88  202.03
  -5  -7  11 3804.60  192.86
   5   7 -1012996.40  445.29
  -5  -7  1012829.78  424.37
   5   7  -9  225.30  137.09
  -5  -7   9  323.35   76.81
   5   7  -8 6807.10  226.84
  -5  -7   8 6957.10  319.42
   5   7  -7 1190.88   96.23
  -5  -7   7 1145.29  155.50
   5   7  -642249.17 1380.44
  -5  -7   642112.52 1153.14
   5   7  -594245.86 3058.51
  -5  -7   592652.62 2962.50
   5   7  -446817.75 1301.25
  -5  -7   445084.58 1158.93
  -5  -7   447842.15 1440.80
   5   7  -3 3498.78  176.75
  -5  -7   3 3704.02   97.12
  -5  -7   3 3564.21  116.25
   5   7  -2 4163.21  117.02
  -5  -7   2 4058.72  102.20
   5   7  -122451.60  567.87
  -5  -7   121861.38  555.94
   5   7   0   16.58   21.42
  -5  -7   0   25.57   26.17
   5   7   1  920.48   59.60
  -5  -7  -1  996.18   53.23
   5   7   2 2647.30   84.22
   5   7   2 2861.87   60.23
  -5  -7  -2 2737.51  136.52
   5   7   3 3676.50   91.68
   5   7   3 3645.23  113.81
   5   7   3 3420.86   64.93
  -5  -7  -3 3500.39  107.29
   5   7   4 6522.23  138.27
   5   7   4 6736.73  110.85
   5   7   4 6693.23  257.87
  -5  -7  -4 6674.38  181.71
   5   7   537977.76  824.36
   5   7   536815.21  914.91
   5   7   536038.80  791.99
  -5  -7  -537314.45 1057.79
   5   7   6 9687.17  169.52
   5   7   6 9208.99  237.80
  -5  -7  -6 9300.82  243.94
   5   7   7 2301.84   50.72
   5   7   7 2147.31   99.05
  -5  -7  -7 2161.56  166.57
   5   7   8 2013.03  163.78
   5   7   8 2152.25   50.47
  -5  -7  -8 2090.57   53.19
  -5  -7  -8 2044.89  103.08
   5   7   9  -24.46   36.52
   5   7   9   -1.60   15.55
  -5  -7  -9   50.94   37.62
  -5  -7  -9   -1.76   17.16
   5   7  10   40.81   51.48
   5   7  10   92.55   13.58
  -5  -7 -10   77.27   52.49
  -5  -7 -10   71.06   25.18
   5   7  11  184.45   61.39
   5   7  11  191.32   16.54
  -5  -7 -11  202.22   19.24
  -5  -7 -11  176.08  109.61
   5   7  12   15.02   98.18
   5   7  12   89.34   15.74
  -5  -7 -12   42.37   32.10
  -5  -7 -12   70.50   55.98
   5   7  13 2290.30  207.88
   5   7  13 2110.55   70.71
  -5  -7 -13 2103.44   55.80
  -5  -7 -13 2221.10  206.00
   5   7  14  220.82   66.49
   5   7  14  160.40   20.50
  -5  -7 -14  105.63   25.12
  -5  -7 -14  248.55   67.50
   5   7  15   85.37   46.83
   5   7  15  -15.04   14.31
  -5  -7 -15   25.50   31.12
  -5  -7 -15   13.01   47.35
   5   7  16  136.97   68.47
   5   7  16  120.68   37.81
  -5  -7 -16  108.73   27.59
   5   7  17  985.13  103.06
   5   7  17  815.33   61.71
  -5  -7 -17  695.61   76.64
   5   7  18 1911.68  131.43
   5   7  18 1542.51   54.61
  -5  -7 -18 1511.29  100.97
   5   7  19  -40.24  108.96
   5   7  19   -0.27   37.14
  -5  -7 -19   77.44   46.86
   5   7  20 1026.72  193.46
  -5  -7 -20  829.33   55.47
   5   7  21    0.18   21.28
   5   7  21   57.68  104.90
  -5  -7 -21   22.82   28.36
   5   7  22    0.08   20.44
   5   7  22  -51.82   99.02
  -5  -7 -22   -0.10   27.62
   5   7  23  -20.20   59.66
   5   7  23   -0.20   13.42
  -5  -7 -23   21.07   29.40
   5   8 -20  189.02  203.63
  -5  -8  20  353.83  200.22
   5   8 -19   92.10   91.29
  -5  -8  19   25.68  154.76
   5   8 -18  188.42  100.34
  -5  -8  18  240.93  168.77
   5   8 -17   89.31  129.62
  -5  -8  17   12.91   16.53
  -5  -8  17   29.37   68.60
   5   8 -16  192.09   86.22
  -5  -8  16   42.93   79.68
   5   8 -15  443.25  103.39
  -5  -8  15  416.25   96.78
   5   8 -14   92.22  138.81
  -5  -8  14  178.96   75.96
   5   8 -13   76.66   65.81
  -5  -8  13   35.49   62.41
   5   8 -12 1050.01  112.54
  -5  -8  12 1232.73  107.00
   5   8 -11  442.95  147.75
  -5  -8  11  451.44   82.50
   5   8 -10 1952.22  136.96
  -5  -8  10 2111.37  223.23
   5   8  -921837.81  662.06
  -5  -8   922067.31  837.64
   5   8  -8  104.00  101.48
  -5  -8   8   65.96   19.69
  -5  -8   8   87.43   54.13
   5   8  -7  750.64   80.08
  -5  -8   7  711.26   55.99
  -5  -8   7  805.91   80.75
   5   8  -6  122.62   55.40
  -5  -8   6  158.89   24.33
  -5  -8   6  181.65   54.87
   5   8  -5 2383.52  107.47
  -5  -8   5 2324.02   62.55
   5   8  -4 2022.54   93.90
  -5  -8   4 1888.17   89.30
   5   8  -3  666.16  106.23
  -5  -8   3  913.02   44.10
   5   8  -215847.29  371.34
  -5  -8   216283.94  418.04
   5   8  -113171.04  371.42
  -5  -8   113502.80  295.58
   5   8   0 7022.86  159.46
  -5  -8   0 7710.32  170.75
   5   8   1 6694.43  141.56
   5   8   1 7104.58  194.07
  -5  -8  -1 6601.38  215.57
   5   8   2  828.03   38.02
   5   8   2  888.41   37.79
   5   8   2  926.84   60.68
  -5  -8  -2  869.47   56.02
   5   8   3   13.05   29.20
   5   8   3   10.35   16.65
   5   8   3  -74.47   56.06
  -5  -8  -3   11.81   51.67
   5   8   412420.03  231.42
   5   8   412540.09  277.46
   5   8   412700.76  308.45
  -5  -8  -412311.00  295.74
   5   8   520514.99  434.32
   5   8   518850.96  454.00
  -5  -8  -519313.97  578.97
   5   8   6 2704.16   75.99
   5   8   6 2453.45  108.66
  -5  -8  -6 2334.35  111.04
   5   8   7 4357.93  226.83
   5   8   7 4363.59   75.80
  -5  -8  -7 4483.62  230.70
   5   8   8 1019.55   29.72
   5   8   8 1075.08   82.30
  -5  -8  -8 1071.38   84.32
  -5  -8  -8 1009.15   31.58
   5   8   9  641.53   77.46
   5   8   9  709.24   41.92
  -5  -8  -9  647.24  135.84
  -5  -8  -9  665.98   45.32
   5   8  10   41.69   26.93
   5   8  10   40.95   91.99
  -5  -8 -10   49.51   17.24
  -5  -8 -10   67.84   52.02
   5   8  11 1385.06  178.09
   5   8  11 1391.59   57.65
  -5  -8 -11 1380.90   64.38
  -5  -8 -11 1390.75  103.96
   5   8  12  122.77   64.21
   5   8  12  123.88   33.42
  -5  -8 -12  102.62   37.47
  -5  -8 -12  162.71   64.62
   5   8  13   17.54   49.12
   5   8  13    9.08   24.48
  -5  -8 -13    8.75   48.78
  -5  -8 -13  -11.42   17.08
   5   8  14  570.19   91.27
   5   8  14  510.25   47.87
  -5  -8 -14  534.48   34.76
  -5  -8 -14  500.16   89.26
   5   8  15 2771.08  153.95
   5   8  15 2448.85   63.01
  -5  -8 -15 2280.91  108.79
   5   8  16 3281.46  174.04
   5   8  16 3008.12   76.44
  -5  -8 -16 2885.89   88.05
   5   8  17  -46.22   61.00
   5   8  17   38.31   33.11
  -5  -8 -17    0.87   42.46
   5   8  18   18.25   67.14
   5   8  18   36.31   21.38
  -5  -8 -18   30.93   27.08
   5   8  19  204.18   83.48
   5   8  19  184.37   45.36
  -5  -8 -19  131.11   35.80
   5   8  20  224.78   86.42
  -5  -8 -20  134.62   63.20
   5   8  21   44.51   65.43
   5   8  21   -4.10   21.30
  -5  -8 -21   54.39   48.94
   5   8  22  783.89  190.81
  -5  -8 -22  415.59   85.13
   5   8  23    0.10   23.62
   5   8  23  338.30  125.79
  -5  -8 -23   50.32   55.99
   5   9 -19   27.77  151.96
  -5  -9  19   35.45   85.92
   5   9 -18    2.31   82.30
  -5  -9  18   43.94   78.51
   5   9 -17   -9.27   83.16
  -5  -9  17  -86.25   80.33
   5   9 -16  198.53  149.64
  -5  -9  16   61.54   82.63
   5   9 -15  -55.98   58.47
  -5  -9  15    4.43    9.91
  -5  -9  15   -2.67    8.27
  -5  -9  15   -7.10   59.10
   5   9 -14   24.18   60.93
  -5  -9  14   10.00   16.69
  -5  -9  14  -10.50   61.30
   5   9 -13   91.73  124.44
  -5  -9  13   66.68   21.43
  -5  -9  13  225.64   70.72
   5   9 -12   39.51   65.68
  -5  -9  12   55.79   12.75
  -5  -9  12   61.42   64.26
   5   9 -11  358.91   79.56
  -5  -9  11  287.28   29.27
  -5  -9  11  327.19   78.51
   5   9 -10  160.81  110.39
  -5  -9  10  129.54   24.78
  -5  -9  10   22.27   63.11
   5   9  -9  507.64   76.41
  -5  -9   9  372.94   21.38
   5   9  -8 1122.35   99.45
  -5  -9   8 1159.02   53.78
   5   9  -7 2102.22  115.60
  -5  -9   7 2089.11   51.45
   5   9  -6 1334.52   89.25
  -5  -9   6 1177.07   63.23
   5   9  -5  -49.98   71.04
  -5  -9   5   19.55   18.11
   5   9  -4   18.86   37.24
  -5  -9   4   18.53   33.29
   5   9  -3  -60.99   58.16
  -5  -9   3   -5.43   19.28
   5   9  -2 1330.90   67.92
  -5  -9   2 1376.24   82.23
   5   9  -1  210.05   70.94
  -5  -9   1  261.98   33.53
   5   9   0 6898.06  224.74
   5   9   0 6847.06  165.46
  -5  -9   0 7066.43  216.31
   5   9   1 6739.20  152.92
   5   9   1 6676.19  151.30
  -5  -9  -1 6693.58  158.54
   5   9   2  134.85   50.80
   5   9   2  166.52   28.47
   5   9   2  172.85   41.43
  -5  -9  -2  105.91   37.29
   5   9   3 1031.84   72.53
   5   9   3 1116.77   71.65
   5   9   3 1151.02   69.11
  -5  -9  -3 1041.78   63.75
   5   9   4  102.62   23.47
   5   9   4  103.78   76.52
   5   9   4   77.58   24.68
  -5  -9  -4   88.70   40.54
   5   9   5 4311.94   91.31
   5   9   5 4176.15  140.14
  -5  -9  -5 4322.41  207.91
   5   9   6 1886.07   76.09
   5   9   6 1695.02  159.69
  -5  -9  -6 1903.52   98.15
   5   9   7  326.55   43.07
   5   9   7  326.26   63.55
  -5  -9  -7  320.92  111.49
   5   9   8 3785.26  106.57
   5   9   8 3564.22  148.03
  -5  -9  -8 3398.58  147.66
   5   9   9 7228.93  134.69
   5   9   9 6805.26  226.26
  -5  -9  -9 6935.08  135.09
  -5  -9  -9 6984.75  226.09
   5   9  10  652.31   53.01
   5   9  10  678.31  154.81
  -5  -9 -10  630.83   34.00
  -5  -9 -10  620.41  153.25
   5   9  11 2416.03  138.97
   5   9  11 2512.05   87.97
  -5  -9 -11 2317.96   63.28
  -5  -9 -11 2553.55  141.34
   5   9  12 3113.79  157.18
   5   9  12 3115.31   72.54
  -5  -9 -12 3010.92   75.93
  -5  -9 -12 3220.23  159.69
   5   9  13  531.56   88.92
  -5  -9 -13  573.55   57.62
  -5  -9 -13  -44.72   88.79
   5   9  14 2126.86  147.84
   5   9  14 1948.83   59.52
  -5  -9 -14 1900.00   97.65
   5   9  15 5550.39  237.52
   5   9  15 4822.60  146.11
  -5  -9 -15 4721.45  124.66
   5   9  16 3001.22  172.92
   5   9  16 2550.15  101.79
  -5  -9 -16 2447.22  123.20
   5   9  17   22.44   21.01
   5   9  17   40.84   69.71
  -5  -9 -17   48.59   27.11
   5   9  18  346.93   33.03
   5   9  18  483.19  102.54
  -5  -9 -18  255.21   69.10
   5   9  19 1911.31  159.75
  -5  -9 -19 1377.87  113.90
   5   9  20  172.23   84.98
  -5  -9 -20   71.84   34.89
   5   9  21  -15.08   22.89
   5   9  21  156.47   77.26
  -5  -9 -21   96.80   32.72
   5   9  22   57.95   75.09
   5   9  22    4.59   13.72
  -5  -9 -22   54.38   30.89
   5  10 -18  303.90  118.89
   5  10 -17  324.91  201.22
   5  10 -16   22.99   76.47
   5  10 -15  182.84   89.27
   5  10 -14    9.26  113.52
   5  10 -13  107.65   64.57
  -5 -10  13   21.47    5.79
   5  10 -12   16.15   57.88
  -5 -10  12    9.52   10.59
   5  10 -11  225.35  120.70
  -5 -10  11  104.29   16.83
   5  10 -10  618.78   86.31
  -5 -10  10  453.89   26.93
   5  10  -9    8.92   92.58
  -5 -10   9   25.22   18.28
   5  10  -8  440.76   73.60
  -5 -10   8  395.41   32.43
   5  10  -7  218.16   63.27
  -5 -10   7  204.67   18.49
   5  10  -6 -101.37   41.02
  -5 -10   6    5.10   14.03
   5  10  -5   16.64   42.05
  -5 -10   5   18.46   28.64
   5  10  -4    9.28   67.29
  -5 -10   4  -23.92   30.69
   5  10  -3  593.01   59.15
  -5 -10   3  540.53   33.12
   5  10  -2  717.95   99.95
   5  10  -2  623.09   57.95
  -5 -10   2  661.70   62.18
   5  10  -1  835.76   59.89
   5  10  -1  899.07   59.92
  -5 -10   1  800.82   73.23
   5  10   0   28.76   30.40
   5  10   0   55.93   52.47
  -5 -10   0   15.13   25.53
   5  10   1  143.68   57.73
   5  10   1   32.40   56.49
  -5 -10  -1   82.11   31.79
   5  10   2 2060.52   71.05
   5  10   2 1963.03   70.17
   5  10   2 1942.89   84.20
  -5 -10  -2 2050.48  124.07
   5  10   3  340.81   35.31
   5  10   3  245.34   37.84
   5  10   3  307.29   50.62
  -5 -10  -3  283.38   47.17
   5  10   4 4264.10  146.14
   5  10   4 4075.30  205.05
  -5 -10  -4 4226.74  132.23
   5  10   5  183.52   30.01
   5  10   5  155.54   53.59
  -5 -10  -5  206.16   86.18
   5  10   6 1446.10   80.84
   5  10   6 1425.40  154.21
  -5 -10  -6 1405.18   88.62
   5  10   7  130.82   56.66
   5  10   7  150.55   26.37
  -5 -10  -7  102.16   53.85
   5  10   8 2933.31  104.67
   5  10   8 2724.15  133.14
  -5 -10  -8 2740.24  214.99
   5  10   9  827.32   39.49
   5  10   9  740.77  155.55
  -5 -10  -9  771.25   90.81
  -5 -10  -9  814.04   41.71
   5  10  10 1632.67  118.61
   5  10  10 1772.71   54.25
  -5 -10 -10 1700.85   56.67
  -5 -10 -10 1566.41  120.07
   5  10  11 1083.60   67.13
   5  10  11 1046.04  104.77
  -5 -10 -11 1051.79   45.04
  -5 -10 -11  364.21  100.63
   5  10  12  351.41   87.48
   5  10  12  436.09   53.16
  -5 -10 -12  516.92   60.17
   5  10  13   58.44   61.01
   5  10  13    3.73   35.05
  -5 -10 -13   26.78   40.72
   5  10  14  967.50  115.71
   5  10  14  904.61   68.19
  -5 -10 -14  914.04   48.92
   5  10  15 2280.70  155.91
   5  10  15 2061.35   92.65
  -5 -10 -15 1924.64  107.65
   5  10  16   37.66   77.48
   5  10  16   62.61   43.49
  -5 -10 -16  109.69   30.05
   5  10  17 1670.52  148.61
   5  10  17 1365.19   52.73
  -5 -10 -17 1450.33  102.40
   5  10  18 2881.64  190.33
  -5 -10 -18 2170.68   89.92
   5  10  1910763.51  412.14
  -5 -10 -19 7748.68  245.37
   5  10  20 2130.95  187.68
  -5 -10 -20 1380.43  128.21
   5  10  21 1364.43  155.95
  -5 -10 -21  919.84   63.73
   5  11 -17  304.74  116.70
   5  11 -16  240.53  109.75
   5  11 -15  766.91  225.91
   5  11 -14  164.97   91.08
   5  11 -13 1253.85  136.05
   5  11 -12    6.86   60.28
   5  11 -11  184.24   76.88
   5  11 -10   56.56  110.76
   5  11  -9  292.83   73.15
  -5 -11   9  219.77   17.11
   5  11  -8  145.81   64.92
  -5 -11   8  145.89   11.95
   5  11  -7  288.45   70.23
  -5 -11   7  306.17   28.22
   5  11  -6    2.89   42.19
  -5 -11   6   -6.17   20.60
   5  11  -5  250.48  104.72
  -5 -11   5  287.57   36.31
   5  11  -4  199.39   55.20
   5  11  -4  222.62   55.44
  -5 -11   4  192.48   38.91
   5  11  -3  593.76  111.52
   5  11  -3  593.76   65.50
  -5 -11   3  614.91   33.47
   5  11  -2  665.73   64.16
   5  11  -2  641.62   62.84
  -5 -11   2  643.17   37.28
   5  11  -1   28.72   63.84
   5  11  -1   33.74   34.71
  -5 -11   1   27.23   23.56
   5  11   0  382.11   50.67
   5  11   0  344.32   82.32
  -5 -11   0  464.93   65.49
   5  11   1 2112.00   83.35
   5  11   1 1998.35  127.60
   5  11   1 2098.46   84.71
  -5 -11  -1 2156.29  117.30
   5  11   2  270.10   66.13
   5  11   2  161.19   63.67
   5  11   2  125.59   74.04
  -5 -11  -2  131.20   37.96
   5  11   3   42.48   50.36
   5  11   3   21.85   38.08
   5  11   3   46.98   31.02
  -5 -11  -3   39.39   33.63
   5  11   4  488.18   59.78
   5  11   4  424.11   71.62
  -5 -11  -4  498.99   54.45
   5  11   5   29.82   27.32
   5  11   5   69.25   43.54
  -5 -11  -5   75.63   71.93
   5  11   6  175.43   31.37
   5  11   6  222.30   98.90
  -5 -11  -6  165.14   52.45
   5  11   7   96.12   56.00
   5  11   7  153.64   49.82
  -5 -11  -7   86.59   52.69
   5  11   8  398.87   34.49
   5  11   8  327.64   71.67
  -5 -11  -8  286.56   67.72
   5  11   9  902.41   43.94
   5  11   9  798.33  158.39
   5  11  10    5.66   21.75
   5  11  10  -19.39   51.98
  -5 -11 -10   29.97   23.74
   5  11  11  126.95   48.43
   5  11  11  180.85   70.60
  -5 -11 -11  150.37   31.15
   5  11  12 1290.57  117.48
   5  11  12 1244.79   78.76
  -5 -11 -12 1278.30   87.76
   5  11  13  117.78   74.96
   5  11  13  134.84   46.49
  -5 -11 -13  147.13   53.53
   5  11  14    8.92   70.53
   5  11  14   72.97   40.68
  -5 -11 -14   60.77   28.55
   5  11  15  444.00   92.94
   5  11  15  218.08   53.27
  -5 -11 -15  359.30   64.24
   5  11  16   38.38   69.42
   5  11  16   30.47   34.78
  -5 -11 -16   12.10   27.37
   5  11  17   77.73   67.55
   5  11  17   -8.21   12.84
  -5 -11 -17   -9.68   44.32
   5  11  18   73.79   96.73
  -5 -11 -18  156.41   54.17
   5  11  19  253.65   71.22
   5  11  19   -2.52   19.17
  -5 -11 -19  -17.40   19.77
   5  11  20  713.46   98.17
   5  11  20   10.24   25.20
   5  12 -15 3402.88  237.67
   5  12 -14   50.78   85.76
   5  12 -13  320.52  101.25
   5  12 -12  102.50   80.46
   5  12 -11  101.19  131.69
   5  12 -10  232.31   79.57
   5  12  -9  -24.25   56.92
   5  12  -8  -51.48  103.63
   5  12  -7  713.91   93.23
   5  12  -6 4424.53  282.17
   5  12  -6 4316.80  182.34
  -5 -12   6 3644.72   72.00
   5  12  -5 1083.54   95.24
   5  12  -5  912.27   94.71
  -5 -12   5  943.02   33.37
   5  12  -4 1821.80  109.21
   5  12  -4 1868.84  109.85
  -5 -12   4 1828.16   51.17
   5  12  -3 2066.51  113.87
   5  12  -3 1995.26  108.59
  -5 -12   3 2002.37   87.02
   5  12  -2  519.36   65.61
   5  12  -2  626.26   69.58
  -5 -12   2  647.86   60.07
   5  12  -1   97.22   41.44
   5  12  -1  -49.52   69.03
  -5 -12   1   43.07   24.44
   5  12   0  241.30   84.90
   5  12   0  160.86   45.95
  -5 -12   0  203.64   33.11
   5  12   1 1997.64   90.46
   5  12   1 2008.79   86.92
   5  12   1 1942.73   82.21
  -5 -12  -1 2022.12   74.35
   5  12   2  431.12   86.82
   5  12   2  378.23   48.06
   5  12   2  406.08   88.61
  -5 -12  -2  389.84   45.33
   5  12   3  521.21   50.20
   5  12   3  574.04   59.49
   5  12   3  544.41   53.79
  -5 -12  -3  605.70   52.67
   5  12   4  659.59   50.76
   5  12   4  783.93   66.90
  -5 -12  -4  692.79   59.87
   5  12   5   52.36   30.76
   5  12   5   45.43   44.92
  -5 -12  -5   48.56   40.26
   5  12   6   43.45   85.24
   5  12   6   54.20   29.65
   5  12   7  483.08   71.65
   5  12   7  431.06   41.59
   5  12   8  260.35   68.96
   5  12   8  290.19   62.00
   5  12   9 1689.11   98.71
   5  12   9 1422.53  190.09
   5  12  10  295.46   59.57
   5  12  10  168.54  131.64
   5  12  11   40.80   25.87
   5  12  11   91.25   60.89
  -5 -12 -11   29.69   28.43
   5  12  12   12.61   23.19
   5  12  12   -2.25   58.04
  -5 -12 -12   21.36   26.33
   5  12  13  431.23   95.35
   5  12  13  440.47   37.34
  -5 -12 -13  434.35   71.78
   5  12  14   51.07   73.60
   5  12  14   98.38   26.07
  -5 -12 -14   43.88   30.86
   5  12  15  357.90  101.27
  -5 -12 -15  389.99   69.38
   5  12  16   44.93   66.94
   5  12  16    3.38   21.38
  -5 -12 -16    9.45   26.65
   5  12  17   -7.33   72.32
   5  12  17    7.63   22.09
  -5 -12 -17   25.39   27.38
   5  12  18  165.16   72.07
   5  12  18   -7.31   13.25
  -5 -12 -18  -14.69   29.28
   5  12  19  430.99   76.39
   5  12  19   -8.22   13.00
   5  13 -14  206.00  178.31
   5  13 -13  347.29  106.19
   5  13 -12   59.24   76.27
   5  13 -11  -53.31   72.29
   5  13 -10   50.77   68.93
   5  13  -9  166.58  132.51
   5  13  -9  150.96   75.55
   5  13  -8  -50.94   61.10
   5  13  -8  -20.53   59.07
   5  13  -7   41.86   59.76
   5  13  -7   56.67   59.05
   5  13  -6  -46.65   61.23
   5  13  -6  -14.12   60.43
   5  13  -512522.15  411.01
   5  13  -512228.61  412.43
   5  13  -4 1099.73  182.09
   5  13  -4 1064.47  171.33
   5  13  -3  538.28   79.17
   5  13  -3  570.95   73.47
   5  13  -2 1551.81  169.27
   5  13  -2 1602.51  156.32
   5  13  -1 1337.52   89.73
   5  13  -1 1188.77   85.52
   5  13   0  414.77  105.59
   5  13   0  376.92   57.07
   5  13   1  109.83   48.51
   5  13   1  142.10   45.87
   5  13   1  123.61   39.62
   5  13   2  977.08  134.24
   5  13   2  885.37  124.86
   5  13   2  982.43  118.94
   5  13   310340.39  388.91
   5  13   310707.33  307.06
   5  13   310831.33  309.29
   5  13   415014.60  392.89
   5  13   415115.44  559.95
   5  13   513840.63  424.43
   5  13   514425.98  371.33
   5  13   6 1267.50   77.39
   5  13   6 1043.61  171.33
   5  13   7 1667.27   76.06
   5  13   7 1625.77  114.76
   5  13   8  122.81   36.17
   5  13   8  152.89   62.61
   5  13   9   19.28   28.81
   5  13   9   56.25   54.13
   5  13  10  197.27  130.00
   5  13  10  231.24   37.36
   5  13  11  168.87   33.82
   5  13  11  105.64   72.69
   5  13  12  130.56   28.69
   5  13  12   88.42   71.89
  -5 -13 -12   57.84   34.66
   5  13  13  -14.87   15.05
   5  13  13   53.86   60.36
  -5 -13 -13   19.99   47.29
   5  13  14  276.36   87.04
  -5 -13 -14  180.06   39.71
   5  13  15   89.25   61.02
   5  13  15  -12.54   12.98
  -5 -13 -15   89.98   45.22
   5  13  16  -33.42   62.96
   5  13  16   -6.81   12.84
  -5 -13 -16   37.42   25.85
   5  13  17   26.44   66.97
   5  13  17  -10.71   21.53
  -5 -13 -17   15.78   26.31
   5  13  18  -13.98   73.35
   5  13  18   -4.94   22.98
   5  14 -12  -26.96   78.55
   5  14 -12  -76.18  134.70
   5  14 -11  -37.00   73.09
   5  14 -11  -45.93   74.84
   5  14 -10   78.17   76.77
   5  14 -10  103.66   78.08
   5  14  -9  137.72  127.27
   5  14  -9   35.27  125.77
   5  14  -8   48.53   65.21
   5  14  -8   27.14   62.90
   5  14  -7  187.87  140.41
   5  14  -7  273.56   77.56
   5  14  -6    4.29   68.83
   5  14  -6  364.14  113.06
   5  14  -5 1958.75  131.09
   5  14  -5 1849.64  126.97
   5  14  -4 1778.83  123.48
   5  14  -4 1645.68  115.14
   5  14  -3  144.45   58.58
   5  14  -3  138.71   65.22
   5  14  -2  125.92  100.64
   5  14  -2  126.62   91.80
   5  14  -1   21.35   50.89
   5  14  -1   98.83   46.62
   5  14   0  337.58  106.35
   5  14   0  226.70   94.37
   5  14   1   79.11   49.66
   5  14   1  114.95   44.53
   5  14   2  622.47  116.60
   5  14   2  474.75   62.20
   5  14   2  481.31   94.30
   5  14   3   -0.16   41.20
   5  14   3    8.30   39.74
   5  14   3  -44.42   44.93
   5  14   4  888.21  148.34
   5  14   4  797.49   83.51
   5  14   536401.05 1231.97
   5  14   535828.56 1125.82
   5  14   6 7758.00  342.25
   5  14   6 6622.16  261.66
   5  14   7 1619.08   93.17
   5  14   7 1510.43  197.33
   5  14   8 4517.56  137.29
   5  14   8 3995.37  183.58
   5  14   9  667.35   51.83
   5  14   9  593.75   91.06
   5  14  10  -44.96   20.69
   5  14  10  100.82   57.79
   5  14  11   -9.03   15.63
   5  14  11  -62.62   99.02
   5  14  12  631.52  103.22
   5  14  12   -8.39   14.77
   5  14  13 1422.77  130.56
  -5 -14 -13 1151.93   69.57
   5  14  14 1887.09  159.26
  -5 -14 -14 1698.18   81.93
   5  14  15 1775.69  162.36
  -5 -14 -15 1542.33  126.55
   5  14  16   48.14   69.82
   5  14  16    2.05   24.21
  -5 -14 -16  -24.40   29.62
   5  15 -10  158.11  154.85
   5  15 -10  171.78   88.29
   5  15  -9   68.68   74.46
   5  15  -9   63.88   73.93
   5  15  -8  -31.80   65.16
   5  15  -8    4.44  107.72
   5  15  -7  -61.93   64.91
   5  15  -6  -27.43   75.33
   5  15  -6  290.06   70.63
   5  15  -5   21.60   66.44
   5  15  -5  201.48  105.34
   5  15  -4   -2.04   61.85
   5  15  -4  107.81   55.77
   5  15  -3   15.83   52.51
   5  15  -3    4.77   80.93
   5  15  -2    0.67   81.70
   5  15  -2   -6.28   41.97
   5  15  -1   24.55   52.68
   5  15  -1   68.50   79.61
   5  15   0  -63.25   73.17
   5  15   0   14.61   36.63
   5  15   1    2.41   44.53
   5  15   1  -17.48   39.65
   5  15   2   74.96   51.71
   5  15   2   35.52   79.84
   5  15   2   77.09   38.35
   5  15   3  189.83   52.42
   5  15   3  127.21   48.28
   5  15   3  135.07   62.92
   5  15   4 2765.18  127.66
   5  15   4 2510.28  127.14
   5  15   4 2808.92  141.26
   5  15   5 7555.08  248.88
   5  15   5 6940.57  218.40
   5  15   6 2025.20  151.51
   5  15   6 6749.86  212.23
   5  15   7 2438.13  229.67
   5  15   8 1854.28  124.97
   5  15   9    4.05   20.73
   5  15   9  758.23   65.18
   5  15  10  -20.26   16.79
   5  15  10  131.12   54.11
   5  15  11   70.90   53.21
   5  15  11   -4.46   15.57
   5  15  12  -13.90   31.09
   5  15  12 1013.94  123.69
   5  15  13    1.96   24.27
   5  15  13  -17.90  103.81
   5  15  14   -2.94   25.48
   5  15  14  145.36  117.25
   5  16  -6  -20.34   53.69
   5  16  -6   31.43   57.65
   5  16  -5    8.58   58.01
   5  16  -5    2.59   90.98
   5  16  -4    6.19   77.97
   5  16  -4  297.95   68.54
   5  16  -3  -29.53   55.76
   5  16  -3    1.13   48.67
   5  16  -2    8.44   99.16
   5  16  -2   31.45   48.11
   5  16  -1    5.51   62.66
   5  16  -1  172.40   49.75
   5  16   0  -24.12   48.12
   5  16   0    2.22   34.12
   5  16   1   27.41   60.08
   5  16   2   -4.71   52.63
   5  16   2  -35.99   25.90
   5  16   3  736.79  116.51
   5  16   3 1024.72  154.75
   5  16   4   -5.79   40.22
   5  16   4   78.55   45.53
   5  16   4  141.55   57.40
   5  16   5 2718.81  201.77
   5  16   5 2808.56  139.56
   5  16   6  -17.36   20.99
   5  16   6  168.38   46.52
   5  16   7   36.49   36.14
   5  16   7   29.78   51.70
   5  16   8  -17.87   28.82
   5  16   8  124.81   77.66
   5  16   9   31.85   20.06
   5  16   9   21.98   97.41
   5  16  10    2.35   19.13
   5  16  10  177.42   58.12
   5  16  11   35.03   19.72
   5  16  11   10.24   63.14
   5  17   0   51.24   52.83
   5  17   0  -21.79   40.72
   5  17   1   12.11   88.79
   5  17   1   10.15   24.43
   5  17   2    7.61   51.50
   5  17   2   15.17   39.74
   5  17   3    9.24   60.36
   5  17   3   14.24   27.92
   5  17   3  286.01   43.70
   5  17   4  -10.66   23.07
   5  17   4  -20.21   63.46
   5  17   4   22.76   84.45
   5  17   5    0.85   38.55
   5  17   5  -42.68   42.30
   5  17   5  -22.41   48.97
   6 -11  -4  141.58  100.86
  -6  11   4   86.21  105.81
   6 -11  -3   74.78   97.50
  -6  11   3  103.46   99.81
   6 -11  -2  437.26  221.80
  -6  11   2  514.08  134.37
   6 -11  -1  -12.39   86.91
  -6  11   1   83.52   91.80
  -6  11   0  188.28  117.34
  -6  11  -1  433.82  141.22
  -6  11  -2 6978.32  577.79
  -6  11  -3 3423.13  267.71
  -6  11  -4  623.62  159.96
  -6  11  -5   81.05  176.84
   6 -10  -9   -6.89  132.40
  -6  10   9    0.28  138.78
   6 -10  -8   70.87   93.58
  -6  10   8   52.50   94.21
   6 -10  -7  673.49  135.60
  -6  10   7  658.03  236.08
   6 -10  -6   -0.00  179.15
  -6  10   6  239.81  110.49
   6 -10  -5 1154.05  151.37
  -6  10   5 1077.64  271.70
   6 -10  -4  322.25  114.59
  -6  10   4  375.57  119.19
   6 -10  -3   26.37  138.84
  -6  10   3  -81.22  142.57
   6 -10  -2  121.23   94.03
  -6  10   2  188.80   99.78
   6 -10  -1  -42.84  135.03
  -6  10   1  -22.24   82.41
   6 -10   0   -1.28   76.77
  -6  10   0  -39.33   81.79
  -6  10  -1 1023.21  148.24
  -6  10  -2   17.48   80.43
  -6  10  -3  892.94  143.93
  -6  10  -4   17.26  138.52
  -6  10  -5  332.11  110.29
  -6  10  -6   95.52   91.46
  -6  10  -7  170.57   97.47
  -6  10  -8  550.16  121.05
  -6  10  -9   67.93   91.53
  -6  10  -9  124.54   91.35
   6  -9 -12   68.50   88.86
  -6   9  12    5.89   89.85
   6  -9 -11  100.60   94.71
  -6   9  11   66.20   97.00
   6  -9 -10  366.14  189.65
  -6   9  10  232.79  114.36
   6  -9  -9   55.94   84.83
  -6   9   9   -4.23  153.16
   6  -9  -8  -52.45   77.62
  -6   9   8   18.73   78.55
   6  -9  -7 -180.16  150.63
  -6   9   7   48.05  155.70
   6  -9  -6   29.10   83.46
  -6   9   6   88.34   87.48
   6  -9  -5  -62.10   84.45
  -6   9   5  -89.42  149.55
   6  -9  -4    0.66  134.69
  -6   9   4   46.06   80.67
   6  -9  -3  158.19   85.87
  -6   9   3    0.89  156.77
   6  -9  -2   24.37  132.11
  -6   9   2  -61.16   79.09
   6  -9  -1  378.60  104.95
  -6   9   1  367.39  187.26
   6  -9   0   69.15  158.05
  -6   9   0  201.37   93.04
   6  -9   1    7.41   69.97
  -6   9  -1   43.12  125.55
  -6   9  -2   48.12   76.92
  -6   9  -3  202.24   92.53
  -6   9  -4  -14.69   69.92
  -6   9  -5  117.15   86.15
  -6   9  -6  707.36  203.08
  -6   9  -7   48.36   77.46
  -6   9  -8  102.97   82.59
  -6   9  -9  114.67   85.62
  -6   9 -10   -7.16   76.71
  -6   9 -10   76.17   75.40
  -6   9 -11   70.05   88.02
  -6   9 -11  262.19  154.09
  -6   9 -12   50.11  140.75
  -6   9 -12   47.51   80.80
   6  -8 -14  479.30  140.03
  -6   8  14  530.59  135.90
   6  -8 -13 4348.65  281.04
  -6   8  13 4400.66  281.51
   6  -8 -12  105.25  103.40
  -6   8  12  119.18   99.16
   6  -8 -11  169.07  190.74
  -6   8  11  284.58  111.25
   6  -8 -10   42.51   82.60
  -6   8  10   58.87   87.69
   6  -8  -9  766.97  129.22
  -6   8   9  802.73  137.45
   6  -8  -8  411.78  110.56
  -6   8   8  394.34  113.01
   6  -8  -7  593.01  117.51
  -6   8   7  493.59  121.43
   6  -8  -6  928.74  130.66
  -6   8   6  861.57  133.19
   6  -8  -5  339.02  174.73
  -6   8   5  299.29  102.29
   6  -8  -4   36.66   76.43
  -6   8   4   80.40   78.92
   6  -8  -3  266.78  161.02
  -6   8   3  225.46  164.57
   6  -8  -2  422.24  101.73
  -6   8   2  432.06  104.51
   6  -8  -1  525.59  181.21
  -6   8   1  670.41  189.18
   6  -8   0    9.99   75.19
  -6   8   0  176.22   78.01
   6  -8   1   85.67  126.60
  -6   8  -1   47.41  130.16
   6  -8   2  431.07   96.89
  -6   8  -2  440.78   97.21
  -6   8  -3  145.96  140.11
  -6   8  -4   56.89   70.97
  -6   8  -5  196.83  144.44
  -6   8  -6   85.28   72.78
  -6   8  -7  113.66   76.46
  -6   8  -8   54.12   72.47
  -6   8  -9  417.80   50.60
  -6   8  -9  504.69   99.96
  -6   8 -10  283.33  164.02
  -6   8 -10  382.54   94.58
  -6   8 -11   27.89   67.21
  -6   8 -11   31.51  120.75
  -6   8 -12   -5.56   86.18
  -6   8 -12  406.86   87.10
  -6   8 -13    0.78  126.64
  -6   8 -13   71.29   73.44
  -6   8 -14    0.30   59.33
  -6   8 -14    1.72  101.74
  -6   8 -15   -7.93   75.98
  -6   8 -15  130.93   75.47
   6  -7 -15  959.40  163.76
  -6   7  15 1151.09  165.43
   6  -7 -14  109.72  102.98
  -6   7  14   85.83  193.86
   6  -7 -13  310.07  122.22
  -6   7  13  451.20  126.76
   6  -7 -12   34.64   86.13
  -6   7  12  106.98  156.08
   6  -7 -11  111.12  164.73
  -6   7  11  139.23   93.63
   6  -7 -10   28.14   80.74
  -6   7  10   80.77  140.54
   6  -7  -9  323.33   98.95
  -6   7   9  192.71  101.64
   6  -7  -8  -51.62  118.61
  -6   7   8   27.15  122.13
   6  -7  -7  813.05  121.35
  -6   7   7  848.40  124.12
   6  -7  -6 1134.65  134.44
  -6   7   6 1384.29  237.95
   6  -7  -5  167.21   93.69
  -6   7   5  290.29   94.33
   6  -7  -4 1753.38  147.95
  -6   7   4 1550.68  150.01
   6  -7  -3 3496.90  190.14
  -6   7   3 3251.57  194.18
   6  -7  -2  -37.21   71.14
  -6   7   2   86.41   67.17
   6  -7  -1    8.43   63.46
  -6   7   1   49.72  111.06
   6  -7   0 1789.91  138.73
  -6   7   0 1946.11  141.45
   6  -7   1  288.63   83.66
  -6   7  -1  158.25  151.08
   6  -7   2  285.34  155.59
  -6   7  -2  393.57   90.58
   6  -7   3 1621.06  131.56
  -6   7  -3 1702.40  225.52
  -6   7  -4 1495.95  130.85
  -6   7  -5  -78.17  120.53
  -6   7  -6  396.30   88.49
  -6   7  -7 1180.34  204.52
  -6   7  -8  797.22  110.17
  -6   7  -9 2378.63  242.28
  -6   7  -9 1944.05   91.43
  -6   7 -10  791.93  103.70
  -6   7 -10  748.86  107.04
  -6   7 -11   93.54   33.95
  -6   7 -11   72.05   68.45
  -6   7 -11    2.92   71.65
  -6   7 -12  175.49  112.59
  -6   7 -12   -2.87   64.38
  -6   7 -13   -9.90   97.66
  -6   7 -13   11.09   56.78
  -6   7 -14    2.50   60.76
  -6   7 -14  -36.01   60.05
  -6   7 -15    2.71   75.76
  -6   7 -15  244.16   76.22
  -6   7 -16   -4.28   95.15
  -6   7 -16    5.54   95.31
   6  -6 -16 3638.46  269.99
  -6   6  16 4096.28  267.22
   6  -6 -15 1061.23  158.25
   6  -6 -14  907.94  143.02
  -6   6  14 1005.44  146.38
   6  -6 -13  242.93  104.29
  -6   6  13  239.99  189.50
   6  -6 -12  446.18  197.71
  -6   6  12  461.56  116.29
   6  -6 -11  144.79   86.20
  -6   6  11   22.66  153.09
   6  -6 -10   48.67   87.21
  -6   6  10  216.77   86.62
   6  -6  -9  636.72  112.19
  -6   6   9  617.02  116.99
   6  -6  -8 1400.00  142.20
  -6   6   8 1426.94  141.48
   6  -6  -7    7.54   69.81
  -6   6   7  -42.23   69.59
   6  -6  -6 5152.03  360.94
  -6   6   6 5143.34  230.21
   6  -6  -5  425.83  102.26
  -6   6   5  635.88  104.41
   6  -6  -4  673.93  183.31
  -6   6   4  748.63  185.69
   6  -6  -3  -48.99   58.62
  -6   6   3   39.35   58.11
   6  -6  -2 2503.07  255.76
  -6   6   2 2475.30  156.21
   6  -6  -1  218.25   80.73
  -6   6   1  152.03   85.36
   6  -6   0  352.29   85.71
  -6   6   0  395.74   86.92
   6  -6   1  613.43  164.27
  -6   6  -1  660.64  170.01
   6  -6   2 3167.46  157.86
  -6   6  -2 3070.74  162.55
   6  -6   3 5361.48  211.21
  -6   6  -3 5560.86  215.69
  -6   6  -4  -80.11   70.32
  -6   6  -5 5539.13  237.06
  -6   6  -6 8999.08  318.76
  -6   6  -713218.76  430.45
  -6   6  -8  -79.10   77.31
  -6   6  -9 1517.15  114.06
  -6   6  -9 1231.84   82.59
  -6   6 -10  193.03   46.50
  -6   6 -10  220.04   73.65
  -6   6 -10  252.69   76.03
  -6   6 -11  659.53   36.96
  -6   6 -11  849.94  162.67
  -6   6 -11 1075.20  167.71
  -6   6 -12   63.22   59.15
  -6   6 -12   37.42   32.38
  -6   6 -12   -4.64   57.54
  -6   6 -13   12.65   53.94
  -6   6 -13   -1.97   55.43
  -6   6 -13   15.19   16.44
  -6   6 -14    4.95   52.31
  -6   6 -14   22.21   93.43
  -6   6 -15   -1.47   61.55
  -6   6 -15  101.99   62.92
  -6   6 -16   -0.88  127.94
  -6   6 -16  289.68   76.87
  -6   6 -17    6.79   66.66
  -6   6 -17  162.79   67.80
  -6   6 -18    8.83   58.12
  -6   6 -18   36.30  101.70
  -6   5  18  182.60  117.35
   6  -5 -17  -56.70   98.65
  -6   5  17 -109.97   92.36
   6  -5 -16 -121.95   97.55
   6  -5 -15   80.94   81.43
  -6   5  15  -17.73   80.01
   6  -5 -14 1310.00  153.25
   6  -5 -13   -1.06   75.28
  -6   5  13   41.75   74.59
   6  -5 -12 1079.80  234.73
   6  -5 -11  252.61   97.53
  -6   5  11  323.85   95.59
   6  -5 -10  136.09   87.19
  -6   5  10  186.90   85.67
   6  -5  -9  481.03  193.01
  -6   5   9  729.68  109.57
   6  -5  -8  160.29   77.15
  -6   5   8   53.33   77.55
   6  -5  -7  493.80   99.75
  -6   5   7  503.09  174.26
   6  -5  -6 2713.30  159.61
  -6   5   6 2545.95  160.39
   6  -5  -5  604.94  100.10
  -6   5   5  723.85  172.00
   6  -5  -4   43.96   59.39
  -6   5   4   16.26   60.60
   6  -5  -3  893.02  102.33
  -6   5   3 1048.64  102.60
   6  -5  -2   13.13   56.41
  -6   5   2   57.45   99.41
   6  -5  -1  351.87  130.18
  -6   5   1  227.28   73.80
   6  -5   0 1103.01  101.56
  -6   5   0 1074.63  102.16
   6  -5   1  124.44   65.60
  -6   5  -1   66.65  120.40
   6  -5   212056.42  510.18
  -6   5  -211719.03  348.62
   6  -5   3 4233.35  196.89
  -6   5  -3 3980.25  195.82
   6  -5   4 8551.73  284.75
  -6   5  -4 8638.81  449.80
  -6   5  -5 2981.68  160.86
  -6   5  -6 2592.10  263.80
  -6   5  -7 2506.40  157.99
  -6   5  -8   94.08  122.48
  -6   5  -9 1136.44  106.00
  -6   5  -9 1046.18   89.35
  -6   5 -10  746.96   43.79
  -6   5 -10 1013.90  162.88
  -6   5 -10 1070.66   94.51
  -6   5 -11  322.68   33.00
  -6   5 -11  358.66   74.63
  -6   5 -11  452.68  133.20
  -6   5 -12  324.99   53.66
  -6   5 -12  355.21   76.97
  -6   5 -12  550.84   75.64
  -6   5 -13  222.52   68.78
  -6   5 -13  278.36   69.22
  -6   5 -13  228.36   26.99
  -6   5 -14  -36.18   92.46
  -6   5 -14   14.60   32.62
  -6   5 -14   75.36   53.03
  -6   5 -15  138.33   58.39
  -6   5 -15   20.48   33.30
  -6   5 -15   88.61   58.10
  -6   5 -16 2168.18  229.34
  -6   5 -16 2434.88  141.19
  -6   5 -17    7.23  119.06
  -6   5 -17  240.37   72.35
  -6   5 -18  -94.32   46.50
  -6   5 -18  100.62   48.32
  -6   5 -19 1071.36  170.20
  -6   5 -19  963.12  105.70
   6  -4 -19  592.83  145.34
  -6   4  19  650.74  149.37
   6  -4 -18  969.17  154.27
  -6   4  18  875.62  158.79
   6  -4 -17  186.63  104.90
  -6   4  17  149.42   98.05
   6  -4 -16  -48.12   71.95
  -6   4  16   54.14   69.28
   6  -4 -15  -36.71   80.09
   6  -4 -14  485.54  113.52
  -6   4  14  466.77  111.33
   6  -4 -13  290.28  172.40
   6  -4 -12   75.99   81.05
  -6   4  12   80.08   78.41
   6  -4 -11 3711.00  205.16
  -6   4  11 3997.59  323.13
   6  -4 -10   94.26   81.05
  -6   4  10  156.68   78.42
   6  -4  -9  401.29  161.42
  -6   4   9  322.25   88.58
   6  -4  -8 1422.77  127.39
  -6   4   8 1388.94  123.67
   6  -4  -7  707.37  109.30
  -6   4   7  887.10  105.67
   6  -4  -6  248.11   77.49
  -6   4   6  163.64  135.58
   6  -4  -5  125.10   66.29
  -6   4   5  107.47   64.74
   6  -4  -4  118.15   61.82
  -6   4   4   85.17   61.58
   6  -4  -3  130.68  109.97
  -6   4   3  130.48  108.47
   6  -4  -2 1012.84   90.49
  -6   4   2  842.91   90.15
   6  -4  -1  416.59   74.11
  -6   4   1  394.80   72.83
   6  -4   0 1123.55  165.77
  -6   4   0 1247.15  164.58
   6  -4   1  647.49   81.46
  -6   4  -1  613.86   82.44
   6  -4   2 4936.45  182.27
  -6   4  -2 4778.92  184.78
   6  -4   3  907.09   98.72
  -6   4  -3  788.23  102.49
   6  -4   410575.88  305.67
  -6   4  -411018.27  449.71
  -6   4  -5   39.55   51.17
  -6   4  -6  -63.92   52.52
  -6   4  -7 3260.52  137.11
  -6   4  -8 1408.49   98.61
  -6   4  -9 1408.49  166.05
  -6   4  -9 1385.91  100.27
  -6   4 -10  564.28   41.96
  -6   4 -10  638.33   76.75
  -6   4 -10  561.41   77.04
  -6   4 -11  941.54   49.47
  -6   4 -11 1136.41  150.45
  -6   4 -11 1101.83  147.74
  -6   4 -12 3550.42  138.09
  -6   4 -12 3675.68  156.95
  -6   4 -12 3905.27  241.80
  -6   4 -13  484.82   73.84
  -6   4 -13  455.60   61.01
  -6   4 -13  387.40   76.41
  -6   4 -14  221.11   60.72
  -6   4 -14  165.67   28.08
  -6   4 -14  173.08  106.64
  -6   4 -15   50.02   22.21
  -6   4 -15   32.48   52.24
  -6   4 -15   25.96   87.45
  -6   4 -16  521.00   71.09
  -6   4 -16  311.33   51.68
  -6   4 -16  358.64   74.67
  -6   4 -17  177.09   61.43
  -6   4 -17  204.20   65.22
  -6   4 -17  104.92   42.45
  -6   4 -18  353.50  125.24
  -6   4 -18  396.95  131.45
  -6   4 -19  122.90   59.62
  -6   4 -19   98.68  111.29
  -6   4 -20  336.05  130.68
  -6   4 -20  390.95   79.37
   6  -3 -19    1.92   93.49
  -6   3  19  -87.56   89.56
   6  -3 -18   82.63  102.65
  -6   3  18  158.67  102.61
   6  -3 -17  898.46  149.34
  -6   3  17  993.33  147.21
   6  -3 -16   96.52   89.67
   6  -3 -15  -11.23   68.65
  -6   3  15   26.88   66.76
   6  -3 -14  439.40  109.66
   6  -3 -13   46.06  135.23
  -6   3  13   59.00   73.91
   6  -3 -12 1289.66  138.81
  -6   3  12 1272.13  227.29
   6  -3 -11  -55.81   70.00
  -6   3  11   -9.96   66.72
   6  -3 -10 1716.05  146.22
  -6   3  10 1499.10  236.87
   6  -3  -919343.85  823.54
  -6   3   918867.71  594.32
   6  -3  -8 5188.46  235.69
  -6   3   8 5194.23  220.40
   6  -3  -7   15.98   57.78
  -6   3   7   -9.72   55.36
   6  -3  -6  133.55   68.38
  -6   3   6  197.46   67.16
   6  -3  -5  193.64   66.64
  -6   3   5  154.96  114.54
   6  -3  -4   84.20   56.69
  -6   3   4   97.62   56.21
   6  -3  -3  -61.03   82.09
  -6   3   3   -4.41   46.70
   6  -3  -2  219.61   58.13
  -6   3   2  139.33   57.21
   6  -3  -1   98.45   51.31
  -6   3   1  155.03   91.71
   6  -3   0   15.91   36.46
  -6   3   0  -14.92   36.65
   6  -3   1  376.70  103.89
  -6   3  -1  277.68   58.94
   6  -3   2 4472.58  233.05
  -6   3  -2 4606.64  152.82
   6  -3   3 3450.67  210.08
  -6   3  -3 3649.09  214.09
   6  -3   4 2412.48  173.46
  -6   3  -4 2285.34  108.57
  -6   3  -5 1550.04   87.39
  -6   3  -6 1630.81   90.92
  -6   3  -7 1011.94  129.02
  -6   3  -8 1096.44   76.29
  -6   3  -8 1092.00   54.32
  -6   3  -9   88.61   44.91
  -6   3  -9   76.67   29.68
  -6   3 -10  201.42   34.43
  -6   3 -10  244.76   53.82
  -6   3 -10  308.77   52.89
  -6   3 -11  933.64   82.53
  -6   3 -11  944.00   77.69
  -6   3 -11 1111.48   74.94
  -6   3 -12 2541.73  110.80
  -6   3 -12 2429.06  112.80
  -6   3 -12 2371.45  117.16
  -6   3 -13  809.06  129.45
  -6   3 -13  827.65  127.00
  -6   3 -13  758.50   47.49
  -6   3 -14  254.82   60.00
  -6   3 -14  326.85   35.03
  -6   3 -14  318.75   61.69
  -6   3 -15  927.31   49.41
  -6   3 -15 1030.74   84.03
  -6   3 -15 1101.98   81.12
  -6   3 -16  266.83   32.66
  -6   3 -16  243.24  105.41
  -6   3 -16  251.87   56.85
  -6   3 -17  440.70  113.79
  -6   3 -17  551.15   73.10
  -6   3 -17  428.19   37.04
  -6   3 -18  456.98   38.83
  -6   3 -18  706.05   73.70
  -6   3 -18  677.02   78.64
  -6   3 -19  829.86   87.97
  -6   3 -19  489.62  136.37
  -6   3 -20  152.46   61.52
  -6   3 -20  116.64   58.81
  -6   3 -21   76.53   99.41
  -6   3 -21   80.21   56.25
   6  -2 -20   23.47   86.60
  -6   2  20   27.25   84.27
   6  -2 -19  198.10  109.92
  -6   2  19  184.19  105.66
   6  -2 -18  588.99  132.08
  -6   2  18  705.95  130.86
   6  -2 -17 1409.28  161.51
  -6   2  17 1558.61  258.74
   6  -2 -16  270.83   99.91
  -6   2  16  166.36   97.78
   6  -2 -15  448.89  117.62
  -6   2  15  694.80  198.61
   6  -2 -14  177.55  156.66
  -6   2  14  166.25   83.74
   6  -2 -13  612.25  192.59
  -6   2  13  638.63  105.45
   6  -2 -12 5525.91  240.29
  -6   2  12 5560.65  239.62
   6  -2 -11   73.79   72.92
  -6   2  11   63.85   68.31
   6  -2 -10   20.30   67.49
  -6   2  10   38.76   68.98
   6  -2  -9 3358.23  332.86
  -6   2   9 3341.49  326.24
   6  -2  -8   99.56   90.42
  -6   2   8  200.68   87.34
   6  -2  -7 1527.42  132.06
  -6   2   7 1292.81  210.71
   6  -2  -6  151.57   65.78
  -6   2   6  178.42   65.71
   6  -2  -5 2686.91  130.25
  -6   2   5 2682.39  126.41
   6  -2  -4  346.02   64.02
  -6   2   4  204.18  109.55
   6  -2  -3  -17.52   68.00
  -6   2   3    6.48   37.40
   6  -2  -2 2638.23  116.41
  -6   2   2 2829.98  115.33
   6  -2  -1  435.35   64.75
  -6   2   1  542.65   63.93
   6  -2   012211.95  301.88
  -6   2   012056.41  295.89
   6  -2   1 5196.31  154.50
  -6   2  -1 5190.10  238.96
   6  -2   2 4779.78  140.53
  -6   2  -2 4749.03  217.35
   6  -2   3 2599.44   96.34
  -6   2  -3 2421.97   97.78
   6  -2   4 1285.21   70.89
  -6   2  -4 1288.37   72.70
   6  -2   5  863.63   61.96
  -6   2  -5  905.36   61.77
  -6   2  -6   72.78   37.83
  -6   2  -7  614.72   94.38
  -6   2  -8   -9.82   65.84
  -6   2  -8   72.10   29.11
  -6   2  -9 1788.84   84.64
  -6   2  -9 1835.98  106.21
  -6   2 -10    6.47   44.68
  -6   2 -10  -17.42   58.78
  -6   2 -10   46.67   54.75
  -6   2 -11  792.71   82.43
  -6   2 -11  790.00   63.98
  -6   2 -11  869.18   97.23
  -6   2 -12  196.77   41.07
  -6   2 -12  121.24   45.07
  -6   2 -12  135.22   32.69
  -6   2 -13  120.75   40.22
  -6   2 -13  106.11   43.48
  -6   2 -13   85.90   31.55
  -6   2 -14 1536.07   78.51
  -6   2 -14 1502.87   63.11
  -6   2 -14 1361.26  137.16
  -6   2 -15   45.96   28.14
  -6   2 -15   59.28   41.22
  -6   2 -15   62.83   66.83
  -6   2 -16   84.04   69.34
  -6   2 -16   66.67   26.93
  -6   2 -16   27.28   42.21
  -6   2 -17  -27.19   65.21
  -6   2 -17   27.25   37.26
  -6   2 -17  -29.05   23.50
  -6   2 -18    0.76   41.40
  -6   2 -18   76.34   66.70
  -6   2 -18  -20.56   67.21
  -6   2 -19  277.81   38.42
  -6   2 -19  562.67   63.15
  -6   2 -19  558.88   65.26
  -6   2 -20  778.81   80.92
  -6   2 -20  749.13   77.59
  -6   2 -21 1685.99  169.64
  -6   2 -21 1597.29  110.64
  -6   2 -22 1975.02  126.59
  -6   2 -22 1954.02  126.72
   6  -1 -20   -7.78  161.13
  -6   1  20   57.65   88.40
   6  -1 -19 1821.94  190.27
  -6   1  19 2217.76  186.94
   6  -1 -18  166.99  106.21
  -6   1  18  346.00  178.30
   6  -1 -17  -42.53   76.85
  -6   1  17   14.36   72.41
   6  -1 -16 1504.88  176.37
  -6   1  16 1347.77  167.74
   6  -1 -15 5090.94  293.82
  -6   1  15 5374.25  254.83
   6  -1 -14  -94.05  131.37
  -6   1  14  -15.99   70.28
   6  -1 -13  687.34  195.10
  -6   1  13  730.05  184.88
   6  -1 -12   18.94   64.28
  -6   1  12   36.32   60.73
   6  -1 -11  -55.89   65.64
  -6   1  11  -50.45  111.94
   6  -1 -10   58.54   65.45
  -6   1  10   86.83   63.00
   6  -1  -9   15.43   53.29
  -6   1   9    5.29   97.59
   6  -1  -8 7138.29  259.09
  -6   1   8 6993.89  243.31
   6  -1  -7 3717.39  160.29
  -6   1   7 3685.44  157.27
   6  -1  -6  694.86  136.50
  -6   1   6  646.97   76.74
   6  -1  -5 5034.55  170.35
  -6   1   5 5102.55  164.46
   6  -1  -4  432.07  105.32
  -6   1   4  317.50   58.05
   6  -1  -3   19.58   39.12
  -6   1   3    4.95   67.78
   6  -1  -2 1048.37   73.23
  -6   1   2  950.47   71.21
   6  -1  -1  166.84   46.83
  -6   1   1  140.84   46.88
   6  -1   014202.23  332.42
  -6   1   014280.84  326.12
   6  -1   1 3216.54  110.39
  -6   1  -1 3391.86  110.95
   6  -1   2  635.03   58.69
  -6   1  -2  750.30   59.31
   6  -1   3 3569.88  168.09
  -6   1  -3 3642.06  109.79
   6  -1   4 3227.44   97.43
  -6   1  -4 3125.87   96.49
   6  -1   5  390.48   45.65
  -6   1  -5  467.02   45.18
  -6   1  -6  487.81   44.95
  -6   1  -7  273.89   68.80
  -6   1  -7  320.86   41.76
  -6   1  -8   40.24   52.33
  -6   1  -8   32.62   29.25
  -6   1  -9 1043.76   58.66
  -6   1  -9  996.36   54.48
  -6   1  -9 1197.84   56.45
  -6   1 -10   90.17   30.41
  -6   1 -10   47.14   30.55
  -6   1 -10   42.54   32.76
  -6   1 -11   88.45   31.28
  -6   1 -11   57.68   30.71
  -6   1 -11  -13.99   58.56
  -6   1 -12   76.98   31.88
  -6   1 -12   40.89   34.55
  -6   1 -12   65.56   30.44
  -6   1 -13   60.41   30.75
  -6   1 -13   30.80   35.01
  -6   1 -13   52.55   30.15
  -6   1 -14  229.02   66.04
  -6   1 -14  175.80   35.74
  -6   1 -14  185.90   43.49
  -6   1 -15  515.83   43.76
  -6   1 -15  457.56   83.16
  -6   1 -15  462.83   91.71
  -6   1 -16  415.07   48.65
  -6   1 -16  316.19   40.20
  -6   1 -16  408.85   51.04
  -6   1 -17  103.73   38.76
  -6   1 -17   64.23   40.07
  -6   1 -17   51.79   50.53
  -6   1 -18  119.31   71.72
  -6   1 -18   96.18   43.33
  -6   1 -18  102.95   52.63
  -6   1 -19  -10.40   25.59
  -6   1 -19    2.57   34.35
  -6   1 -20   13.71   66.87
  -6   1 -21   11.62   40.19
  -6   1 -22  933.81   87.12
   6   0 -21  162.43  107.05
  -6   0  21   68.03  180.22
   6   0 -20  -85.28  145.92
  -6   0  20   44.14   79.57
   6   0 -19  -58.75  157.61
  -6   0  19  -44.80   85.73
   6   0 -18   40.44  169.99
  -6   0  18  162.77   95.82
   6   0 -17   61.72  162.16
  -6   0  17   68.95   89.42
   6   0 -16 8538.56  603.71
  -6   0  16 7559.51  572.46
   6   0 -1512458.54  721.36
  -6   0  1511765.35  445.43
   6   0 -14 1732.11  267.52
  -6   0  14 1933.70  154.55
   6   0 -13 2938.50  282.91
  -6   0  13 2952.68  168.08
   6   0 -12 1010.42  197.79
  -6   0  12 1123.55  111.59
   6   0 -11  103.68   67.40
  -6   0  11   21.49  110.49
   6   0 -10  583.48   90.17
  -6   0  10  666.84   84.38
   6   0  -9 1890.99  121.55
  -6   0   9 1818.17  191.92
   6   0  -8  223.01  114.06
  -6   0   8  193.85   61.61
   6   0  -7   74.45   51.41
  -6   0   7   35.10   87.97
   6   0  -6  130.75   51.28
  -6   0   6   95.15   50.12
   6   0  -5  103.48   48.99
  -6   0   5  119.37   47.05
   6   0  -4 1407.60   83.29
  -6   0   4 1604.55  133.55
   6   0  -3   30.76   36.65
  -6   0   3   13.67   34.63
   6   0  -2   83.60   40.53
  -6   0   2   82.38   38.83
   6   0  -1  208.41   47.35
  -6   0   1  351.48   46.63
   6   0   012850.16  284.06
  -6   0   012642.30  279.05
   6   0   1 6489.95  156.92
  -6   0  -1 6388.59  153.91
   6   0   213820.76  358.84
  -6   0  -213902.62  292.00
   6   0   3   72.30   28.62
  -6   0  -3   54.20   29.03
   6   0   4  456.28   65.34
  -6   0  -4  458.72   39.13
   6   0   5  455.87   37.09
  -6   0  -5  446.05   37.87
  -6   0  -6   99.69   47.71
  -6   0  -7   34.32   41.16
  -6   0  -7   -0.73   55.98
  -6   0  -8 3157.10  119.04
  -6   0  -8 2877.84  150.02
  -6   0  -9  122.06   51.05
  -6   0  -9  188.26   67.05
  -6   0  -9  139.99   29.97
  -6   0 -10 2777.69   80.87
  -6   0 -10 2681.83  122.72
  -6   0 -10 2681.35  148.57
  -6   0 -11 3827.50  181.01
  -6   0 -11 3870.08  105.09
  -6   0 -11 3894.52  106.00
  -6   0 -12  262.53   36.85
  -6   0 -12  180.26   38.80
  -6   0 -12  220.68   75.66
  -6   0 -13 1193.30   59.17
  -6   0 -13 1201.15   63.34
  -6   0 -13 1228.42   67.44
  -6   0 -14 2844.66   99.01
  -6   0 -14 2863.57   98.00
  -6   0 -14 2766.69   90.01
  -6   0 -15  135.92   40.17
  -6   0 -15  128.89   61.98
  -6   0 -15  190.40   40.57
  -6   0 -16  172.24   37.57
  -6   0 -16  179.97   40.45
  -6   0 -17  394.47   47.33
  -6   0 -17  327.69   79.32
  -6   0 -18  101.11   63.95
  -6   0 -18   55.99   62.72
  -6   0 -19  -19.36   30.60
  -6   0 -19    6.20   32.57
  -6   0 -20 1201.06  135.81
  -6   0 -21  258.25   56.13
  -6   0 -22  -96.95   83.67
  -6   0 -23  223.75   56.68
   6   1 -21  151.17  110.98
  -6  -1  21  198.56  106.54
   6   1 -20  -69.21   87.83
  -6  -1  20   -4.17   84.81
   6   1 -19   59.38   86.46
  -6  -1  19   17.95   84.49
   6   1 -18  496.54  229.52
  -6  -1  18  601.49  125.79
   6   1 -17  -47.40  136.47
  -6  -1  17   18.07   70.95
   6   1 -16 9507.65  626.65
  -6  -1  16 9165.48  405.57
   6   1 -1517657.41  889.76
  -6  -1  1517684.13  621.97
   6   1 -14   95.47  130.77
  -6  -1  14  -13.46  123.59
   6   1 -13  347.45  157.11
  -6  -1  13  328.01   83.91
   6   1 -12  377.09  151.96
  -6  -1  12  387.22   81.93
   6   1 -11   82.95   62.93
  -6  -1  11   60.57  109.81
   6   1 -10   21.61   51.03
  -6  -1  10   12.73   49.44
   6   1  -9   18.25   50.23
  -6  -1   9   22.29   86.16
   6   1  -8 4032.96  158.08
  -6  -1   8 4017.59  149.62
   6   1  -7  989.58  147.37
  -6  -1   7 1148.00  139.33
   6   1  -6 6971.30  206.34
  -6  -1   6 6950.85  196.94
   6   1  -5 2940.93  115.08
  -6  -1   5 2984.72  176.70
   6   1  -4  484.88   54.91
  -6  -1   4  443.74   52.97
   6   1  -3  941.15  104.08
  -6  -1   3  894.74   60.06
   6   1  -2 1105.43   60.91
  -6  -1   2 1031.37  100.88
   6   1  -1  950.53   57.19
  -6  -1   1  925.61   55.18
   6   1   0 2026.98  115.17
  -6  -1   0 1883.96   70.69
   6   1   1 1581.75   58.84
  -6  -1  -1 1600.63   58.61
   6   1   2 2261.88  101.65
  -6  -1  -2 2242.20  103.67
   6   1   3 4598.39   99.28
  -6  -1  -3 5202.96  145.56
   6   1   4  106.69   22.84
  -6  -1  -4   91.49   23.55
   6   1   5  124.06   22.88
  -6  -1  -5  118.42   39.95
  -6  -1  -6   -0.80   15.74
  -6  -1  -6   12.92   29.45
  -6  -1  -7  209.25   23.80
  -6  -1  -7  232.17   43.82
  -6  -1  -8  477.13   54.14
  -6  -1  -8  573.67   54.38
  -6  -1  -8  620.06   53.33
  -6  -1  -9  440.28   30.46
  -6  -1  -9  450.25   52.26
  -6  -1  -9  357.72   54.16
  -6  -1 -10 1810.87   84.33
  -6  -1 -10 1856.66   85.56
  -6  -1 -10 1773.20   89.78
  -6  -1 -11 1033.54   73.22
  -6  -1 -11  973.53   80.12
  -6  -1 -11  994.45   68.28
  -6  -1 -12 5614.53  175.76
  -6  -1 -12 5830.59  195.59
  -6  -1 -12 5618.93  169.71
  -6  -1 -13 2058.45   77.30
  -6  -1 -13 1977.64  156.71
  -6  -1 -13 1839.87  106.66
  -6  -1 -14  526.44  100.54
  -6  -1 -14  425.56   41.42
  -6  -1 -15  -16.46   33.86
  -6  -1 -15   16.73   23.94
  -6  -1 -16 2781.46  109.45
  -6  -1 -16 2694.08  130.37
  -6  -1 -17 1468.71   68.99
  -6  -1 -17 1522.93   81.95
  -6  -1 -18   78.81   37.01
  -6  -1 -18  116.67   73.09
  -6  -1 -19   36.39   44.66
  -6  -1 -19  136.98   39.60
  -6  -1 -20 2476.08  111.82
  -6  -1 -21 3692.56  148.22
  -6  -1 -22 2533.11  126.08
  -6  -1 -23  526.55   68.64
   6   2 -21   70.27  100.84
  -6  -2  21  107.51   94.70
   6   2 -20  512.62  130.67
  -6  -2  20  480.49  213.13
   6   2 -19  389.48  120.85
  -6  -2  19  394.64  114.44
   6   2 -18  189.05  104.12
  -6  -2  18  190.64   95.65
   6   2 -17 2859.96  215.57
  -6  -2  17 3331.80  334.31
   6   2 -16 1503.46  246.77
  -6  -2  16  829.99  134.48
   6   2 -15 2259.20  239.78
  -6  -2  15  499.28  117.26
   6   2 -14  -33.75  103.30
  -6  -2  14   28.75   98.92
   6   2 -13  201.78  138.20
  -6  -2  13  133.13   74.75
   6   2 -12    9.35  113.39
  -6  -2  12   78.35   61.46
   6   2 -11 4897.56  313.36
  -6  -2  11 4722.43  286.93
   6   2 -10  329.65  124.84
  -6  -2  10  220.91   65.41
   6   2  -9  200.08   65.38
  -6  -2   9  213.87   61.39
   6   2  -8 2076.66  113.93
  -6  -2   8 1971.50  180.89
   6   2  -7 1165.42   85.37
  -6  -2   7 1224.75   82.82
   6   2  -6 9519.19  253.72
  -6  -2   6 9756.15  345.43
   6   2  -5  348.06   54.80
  -6  -2   5  377.85   51.67
   6   2  -4 5618.95  155.94
  -6  -2   4 5586.73  217.46
   6   2  -314512.54  332.58
  -6  -2   314202.47  320.96
   6   2  -2  596.96   82.96
  -6  -2   2  558.21   81.82
   6   2  -1   93.39   53.03
  -6  -2   1   63.53   29.49
   6   2   0  735.34   42.84
  -6  -2   0  688.53   41.92
   6   2   1 2443.34   66.31
  -6  -2  -1 2520.05   66.82
   6   2   212235.55  228.34
  -6  -2  -212719.22  234.86
   6   2   310159.33  220.53
  -6  -2  -310232.92  222.89
   6   2   4  281.14   22.03
  -6  -2  -4  276.48   21.98
  -6  -2  -5 1074.53   48.74
  -6  -2  -5 1054.51   67.91
  -6  -2  -6  239.97   28.34
  -6  -2  -6  262.79   44.90
  -6  -2  -7  255.66   31.56
  -6  -2  -7  287.58   47.08
  -6  -2  -7  308.32   31.01
  -6  -2  -8  432.12   36.20
  -6  -2  -8  358.12   21.91
  -6  -2  -8  429.87   52.13
  -6  -2  -9  628.02   61.93
  -6  -2  -9  730.70   47.63
  -6  -2  -9  705.83   27.36
  -6  -2 -10  746.40   49.68
  -6  -2 -10  758.32   32.13
  -6  -2 -10  945.08  110.25
  -6  -2 -11 1109.48   63.17
  -6  -2 -11 1122.12   41.64
  -6  -2 -11  931.88  124.27
  -6  -2 -12 5084.07  150.38
  -6  -2 -12 4947.35  116.92
  -6  -2 -12 4900.51  158.51
  -6  -2 -1320923.08  553.32
  -6  -2 -1319787.73  523.53
  -6  -2 -14   12.20   45.14
  -6  -2 -14   48.69   24.65
  -6  -2 -15   48.61   73.13
  -6  -2 -15   27.16   43.49
  -6  -2 -16   14.10   39.76
  -6  -2 -16   23.95   24.91
   6   2  17  -59.12   38.63
  -6  -2 -17   72.61   43.00
  -6  -2 -17   28.36   38.20
   6   2  18   49.88   44.26
  -6  -2 -18   32.09   29.56
  -6  -2 -18   57.29   74.21
   6   2  19 1200.89   89.44
  -6  -2 -19 1306.07   88.64
  -6  -2 -19 1102.14  105.09
   6   2  20   13.73   47.57
  -6  -2 -20   64.33   35.25
   6   2  21 2831.30  138.04
  -6  -2 -21 2453.37  165.91
   6   2  22 2746.95  139.00
  -6  -2 -22 2270.39  113.93
   6   2  23 1039.55   89.84
  -6  -2 -23  863.77   77.85
   6   3 -21  107.41  164.54
  -6  -3  21    6.82  157.80
   6   3 -20   24.04   79.83
  -6  -3  20  -42.24   77.40
   6   3 -19  239.18  106.72
  -6  -3  19  245.02  102.97
   6   3 -18  141.07   91.20
  -6  -3  18    5.24  153.65
   6   3 -17  470.13  111.36
  -6  -3  17  407.05  109.32
   6   3 -16  192.39   92.11
  -6  -3  16  177.70   85.75
   6   3 -15   50.40  116.19
  -6  -3  15    5.67   60.31
   6   3 -14  513.88  175.86
  -6  -3  14  551.93  166.90
   6   3 -13 4196.69  325.66
  -6  -3  13 4571.02  206.73
   6   3 -12  240.52  131.98
  -6  -3  12  194.60   71.70
   6   3 -11  226.07  120.76
  -6  -3  11  126.64   64.57
   6   3 -10  747.81  147.40
  -6  -3  10  582.88  138.72
   6   3  -9  389.83  120.27
  -6  -3   9  308.32   65.56
   6   3  -8 1910.10  172.80
  -6  -3   8 1725.51   96.24
   6   3  -7   -2.63   37.29
  -6  -3   7   -4.57   61.49
   6   3  -612294.82  316.36
  -6  -3   612119.23  299.43
   6   3  -5 8028.66  216.86
  -6  -3   5 7866.67  203.04
   6   3  -423122.46  669.84
  -6  -3   422565.65  631.96
   6   3  -3  848.21   59.56
  -6  -3   3  878.04   57.60
   6   3  -2   57.14   51.47
  -6  -3   2   36.96   28.36
   6   3  -1   46.35   46.09
  -6  -3   1   58.13   25.37
   6   3   0 1399.10   81.25
  -6  -3   0 1470.92   49.33
   6   3   1  386.22   28.76
  -6  -3  -1  377.52   28.11
   6   3   212380.15  265.41
  -6  -3  -212201.54  261.29
   6   3   329083.40  612.97
  -6  -3  -328685.36  602.29
   6   3   4 1585.79   31.83
  -6  -3  -4 1487.22   92.92
  -6  -3  -4 1630.01   48.84
  -6  -3  -513819.64  236.90
  -6  -3  -513198.43  321.58
  -6  -3  -6 4418.66  135.03
  -6  -3  -6 3940.20   53.98
  -6  -3  -6 4465.61   70.55
  -6  -3  -7 5859.07   93.86
  -6  -3  -7 5464.71  157.26
  -6  -3  -7 5626.17   93.13
  -6  -3  -8  860.54  118.30
  -6  -3  -8  864.85   29.93
  -6  -3  -8  859.16   31.88
  -6  -3  -9   54.66   73.80
  -6  -3  -9   51.62   11.06
  -6  -3  -9   65.48   20.75
  -6  -3 -10 3393.46   82.99
  -6  -3 -10 3428.74   59.73
  -6  -3 -10 3533.31  122.53
  -6  -3 -11   37.57   25.69
  -6  -3 -11  -11.71   38.71
  -6  -3 -11   -1.41   24.15
   6   3  1220051.76  533.58
  -6  -3 -1220989.71  547.20
  -6  -3 -1220637.58  479.77
   6   3  1329151.63  822.77
  -6  -3 -1331075.65 1029.42
  -6  -3 -1327961.65  659.38
   6   3  14 1566.78  112.69
  -6  -3 -14 1684.91  114.58
  -6  -3 -14 1606.21   87.82
   6   3  15 1215.39   90.53
  -6  -3 -15 1225.10   90.94
  -6  -3 -15 1215.80   74.42
   6   3  16  -74.73   70.00
  -6  -3 -16  -33.11   70.78
  -6  -3 -16    3.01   20.24
   6   3  17   84.24   85.48
  -6  -3 -17   56.98   49.20
  -6  -3 -17   90.45   46.49
   6   3  18  234.22  101.57
  -6  -3 -18  185.36   58.68
  -6  -3 -18  219.05   34.31
   6   3  19  238.13  103.22
  -6  -3 -19  239.98   60.93
  -6  -3 -19  194.73   36.78
   6   3  20   34.02   80.87
  -6  -3 -20   20.30   50.57
   6   3  21    8.29   88.09
  -6  -3 -21   55.14   33.30
   6   3  22  -36.74   74.41
  -6  -3 -22    6.28   29.23
   6   3  23 1459.99  173.43
  -6  -3 -23 1002.33  124.47
   6   4 -21  -39.17   85.56
  -6  -4  21    1.15   80.01
   6   4 -20   61.41  171.20
  -6  -4  20   99.55   92.01
   6   4 -19   -6.87  152.86
  -6  -4  19  -74.28   82.62
   6   4 -18   74.47   89.89
  -6  -4  18  215.02  150.87
   6   4 -17  544.48  120.31
  -6  -4  17  575.96  112.40
   6   4 -16   27.29   68.49
  -6  -4  16   -1.57   63.81
   6   4 -15   68.06   80.23
  -6  -4  15  159.61   74.41
   6   4 -14    8.89  116.54
  -6  -4  14   66.52  109.48
   6   4 -13  231.15  155.19
  -6  -4  13  386.17   82.10
   6   4 -12  797.92  171.70
  -6  -4  12  779.98   94.60
   6   4 -11  494.00   83.38
  -6  -4  11  440.11   77.81
   6   4 -10   43.51   48.48
  -6  -4  10  -20.04   44.78
   6   4  -9  258.55   66.00
  -6  -4   9  256.06  108.24
   6   4  -8 1053.03   86.04
  -6  -4   8 1161.18   81.23
   6   4  -7  160.09   50.55
  -6  -4   7  145.43   47.63
   6   4  -6   55.76   39.42
  -6  -4   6   21.45   37.27
   6   4  -5 1985.06  141.50
  -6  -4   5 1768.79   79.18
   6   4  -416948.02  409.64
  -6  -4   417748.10  497.30
   6   4  -320660.65  481.12
  -6  -4   320463.83  549.62
   6   4  -2 9182.27  263.69
  -6  -4   2 8965.76  194.78
   6   4  -1 3929.84   92.64
  -6  -4   1 4001.60   90.94
   6   4   0  190.05   25.91
  -6  -4   0  218.26   24.84
   6   4   1  132.69   38.62
  -6  -4  -1  229.25   21.39
   6   4   2 7781.51  155.50
  -6  -4  -2 7695.01  152.71
   6   4   3 3039.35   62.77
  -6  -4  -3 3034.30   47.38
  -6  -4  -3 3089.77  120.00
   6   4   427128.65  488.06
  -6  -4  -429671.59  536.08
  -6  -4  -431148.09  752.98
  -6  -4  -539961.58 1037.04
  -6  -4  -615185.70  389.36
  -6  -4  -716266.08  541.20
  -6  -4  -8 4479.00  152.24
  -6  -4  -9 3944.72   57.30
  -6  -4  -9 4596.21  147.51
  -6  -4  -9 3896.41   54.79
   6   4  10  115.29   48.35
  -6  -4 -10  111.12   17.87
  -6  -4 -10  136.03   50.62
  -6  -4 -10  131.31   16.13
   6   4  11 1157.69   81.51
  -6  -4 -11 1024.50  141.81
  -6  -4 -11 1093.84   25.10
   6   4  1211335.27  422.20
  -6  -4 -1211250.37  310.63
  -6  -4 -1210346.65  188.78
   6   4  1325297.41  695.42
  -6  -4 -1325854.44  713.39
  -6  -4 -1322543.41  506.98
   6   4  14   51.02   59.14
  -6  -4 -14   44.36  105.12
  -6  -4 -14   52.07   21.36
   6   4  15   63.89   52.25
  -6  -4 -15   38.30   53.40
  -6  -4 -15   68.28   21.07
   6   4  16 4720.26  175.33
  -6  -4 -16 4815.38  174.96
  -6  -4 -16 4281.54  142.32
   6   4  17   28.36   52.02
  -6  -4 -17   82.00   53.35
  -6  -4 -17   71.50   41.81
   6   4  18  -14.60   45.84
  -6  -4 -18    3.29   47.03
  -6  -4 -18  -21.15   39.29
   6   4  19   50.03   49.66
  -6  -4 -19  -49.37   50.57
  -6  -4 -19   39.72   25.70
   6   4  20   99.43   59.14
  -6  -4 -20  111.81   32.56
   6   4  21  -62.80   46.60
  -6  -4 -21   46.96   44.56
   6   4  22 2378.05  136.42
  -6  -4 -22 1677.93  133.15
   6   4  23 2714.67  146.69
  -6  -4 -23 1801.31   97.47
   6   4  24  166.93   68.08
   6   5 -20  239.06  111.53
  -6  -5  20  216.30  108.59
   6   5 -19  125.35   93.91
  -6  -5  19    3.52  153.88
   6   5 -18  -44.72  129.63
  -6  -5  18   29.29   70.06
   6   5 -17  -20.81   70.18
  -6  -5  17    3.94   64.09
   6   5 -16   44.92   75.39
  -6  -5  16   40.74   69.78
   6   5 -15 1439.97  140.34
  -6  -5  15 1378.91  130.32
   6   5 -14  -43.22   64.71
  -6  -5  14   18.99  104.47
   6   5 -13   81.42  120.30
  -6  -5  13   55.05  114.44
   6   5 -12  308.67  146.10
  -6  -5  12  367.78   78.18
   6   5 -11  114.03   63.84
  -6  -5  11   60.99   58.98
   6   5 -10   -2.53   48.90
  -6  -5  10  -21.54   45.77
   6   5  -9  275.20   66.24
  -6  -5   9  270.08   61.85
   6   5  -8   31.81   45.06
  -6  -5   8   18.13   41.89
   6   5  -7    5.75   42.07
  -6  -5   7   75.91   69.17
   6   5  -6 2834.07  111.87
  -6  -5   6 2814.70  163.16
   6   5  -5  477.33   53.17
  -6  -5   5  440.67   87.75
   6   5  -4  185.40   41.10
  -6  -5   4  215.10   66.91
   6   5  -3   59.09   30.65
  -6  -5   3   63.19   51.30
   6   5  -2  726.75   43.22
  -6  -5   2  690.67   41.85
   6   5  -1 1482.55   81.72
  -6  -5   1 1430.61   48.77
   6   5   0  679.69   34.26
  -6  -5   0  727.57   54.04
   6   5   1 1318.02   36.71
  -6  -5  -1 1274.36   54.45
  -6  -5  -1 1281.35   72.87
   6   5   2 4321.05   91.41
  -6  -5  -2 4210.77   86.14
  -6  -5  -2 4286.87  197.53
   6   5   3  395.77   19.48
  -6  -5  -3  469.70   97.72
  -6  -5  -3  373.10   11.46
  -6  -5  -4 1229.22   80.11
  -6  -5  -515299.54  401.06
  -6  -5  -681730.21 2427.05
  -6  -5  -756213.18 1804.34
   6   5   8 8107.64  245.45
  -6  -5  -8 8028.16  250.70
   6   5   9 5550.21  182.64
  -6  -5  -9 5793.90  187.91
   6   5  10  944.61  135.29
  -6  -5 -10  977.26  141.29
   6   5  11 3305.46  131.93
  -6  -5 -11 2974.86   57.22
  -6  -5 -11 3274.82  134.45
   6   5  12 1773.26  105.45
  -6  -5 -12 1737.77  106.04
  -6  -5 -12 1533.00   47.80
   6   5  13 2529.74  136.60
  -6  -5 -13 2622.25  220.98
  -6  -5 -13 2265.74   72.82
   6   5  1410650.62  437.12
  -6  -5 -14 8741.49  177.40
  -6  -5 -1410437.88  308.51
   6   5  15 3060.89  224.42
   6   5  15 2737.43   61.65
  -6  -5 -15 2805.81   68.90
  -6  -5 -15 3200.50  230.55
   6   5  16   24.30   48.79
   6   5  16   11.19   15.52
  -6  -5 -16   31.92   32.52
  -6  -5 -16    5.82   50.65
   6   5  17 1499.59  108.41
   6   5  17 1412.65   46.67
  -6  -5 -17 1330.62   80.04
  -6  -5 -17 1719.62  189.89
   6   5  18  200.00   66.19
  -6  -5 -18  195.39   49.76
  -6  -5 -18  158.69   69.16
   6   5  19  261.26   68.04
  -6  -5 -19  257.59   53.94
  -6  -5 -19   24.07   70.43
   6   5  20  117.02   53.83
   6   5  20    0.23   21.01
  -6  -5 -20   62.72   25.93
   6   5  21   63.12   48.77
   6   5  21    0.31   11.85
  -6  -5 -21    7.78   24.45
   6   5  22 2289.75  219.94
  -6  -5 -22 1586.09   80.86
   6   5  23  847.17  173.67
  -6  -5 -23  699.98   59.27
   6   6 -20   76.88   96.52
  -6  -6  20  -30.70  156.53
   6   6 -19   90.04  110.70
  -6  -6  19  297.39  103.25
   6   6 -18  155.99   91.65
  -6  -6  18   22.15   85.74
   6   6 -17  101.46  160.62
  -6  -6  17  150.42   86.48
   6   6 -16 -104.44  131.57
  -6  -6  16  -12.06   71.81
   6   6 -15 1151.99  134.85
  -6  -6  15 1046.45  125.55
   6   6 -14  131.18   77.39
  -6  -6  14   56.72  126.68
   6   6 -13 2099.78  149.64
  -6  -6  13 2232.75  231.00
   6   6 -12 1131.41  200.57
  -6  -6  12 1326.31  108.09
   6   6 -11 1376.40  117.87
  -6  -6  11 1305.50  108.37
   6   6 -10 1549.95  117.48
  -6  -6  10 1396.01  104.58
   6   6  -9 2533.52  133.58
  -6  -6   9 2528.93  123.36
   6   6  -8  202.36   58.20
  -6  -6   8  136.04   54.35
   6   6  -7  371.06   60.66
  -6  -6   7  330.14   58.09
   6   6  -6  -36.69   63.30
  -6  -6   6    6.16   33.78
   6   6  -5 5145.06  226.08
  -6  -6   5 4778.77  136.68
   6   6  -4  106.86   39.60
  -6  -6   4  138.94   64.91
   6   6  -3   98.48   34.44
  -6  -6   3  135.19   32.53
   6   6  -2   83.78   29.64
  -6  -6   2   88.93   27.72
   6   6  -1   43.53   26.02
  -6  -6   1  203.46   24.65
  -6  -6   1   51.26   33.82
   6   6   0 1034.64   63.78
  -6  -6   0 1007.79   98.22
  -6  -6   0 1042.76   59.10
   6   6   1  525.45   42.86
  -6  -6  -1  449.50   49.94
  -6  -6  -1  546.97   40.13
   6   6   2 1440.71   49.03
  -6  -6  -2 1419.21   71.16
   6   6   3 1626.20   40.31
  -6  -6  -3 1655.81  131.10
   6   6   4  234.67    9.07
   6   6   4  263.66    7.14
  -6  -6  -4  291.36   50.22
  -6  -6  -5  135.19   46.33
  -6  -6  -6  956.57   73.95
   6   6   7  858.32   75.26
  -6  -6  -7  782.14   76.05
   6   6   8  984.06  138.64
  -6  -6  -8 1023.50   82.58
   6   6   9  113.73   51.94
  -6  -6  -9  131.22   97.52
   6   6  10  453.48   67.78
  -6  -6 -10  445.11   69.94
   6   6  11   21.41   84.10
  -6  -6 -11   93.08   48.74
  -6  -6 -11   25.86   10.88
   6   6  12  549.56   74.33
   6   6  12  524.54   21.89
  -6  -6 -12  623.59   78.95
  -6  -6 -12  475.95   27.42
   6   6  13  351.13   15.65
   6   6  13  357.80   71.44
  -6  -6 -13  328.87   31.37
  -6  -6 -13  438.56   74.21
   6   6  14  332.27   28.79
   6   6  14  316.29   72.76
  -6  -6 -14  345.25   36.25
  -6  -6 -14  457.82  132.20
   6   6  15  604.68   38.19
   6   6  15  801.69   84.97
  -6  -6 -15  569.86   47.97
  -6  -6 -15  767.40   86.41
   6   6  16  766.08   45.56
   6   6  16  901.40   93.69
  -6  -6 -16  766.55   57.63
  -6  -6 -16  778.71  164.95
   6   6  17 1806.00   71.36
   6   6  17 2135.99  128.06
  -6  -6 -17 1735.77   58.35
  -6  -6 -17 2192.25  132.49
   6   6  18  144.57   67.63
  -6  -6 -18  117.74   26.68
  -6  -6 -18  196.61   71.07
   6   6  19  405.11   28.66
   6   6  19  528.33   83.13
  -6  -6 -19  262.36   58.02
   6   6  20   -1.43   16.69
   6   6  20   37.51   54.03
  -6  -6 -20   47.43   39.13
   6   6  21  359.91   79.56
  -6  -6 -21  199.75   60.35
   6   6  22  277.58   79.04
  -6  -6 -22  135.10   62.48
   6   6  23  531.91   70.42
   6   6  23   -0.28   24.50
   6   7 -20  251.87  109.32
  -6  -7  20   53.68  101.77
   6   7 -19  941.17  281.91
  -6  -7  19 1213.71  163.08
   6   7 -18  977.88  157.99
  -6  -7  18 1230.19  150.77
   6   7 -17   11.91   86.48
  -6  -7  17  122.62   80.41
   6   7 -16  807.83  134.11
  -6  -7  16 1053.69  125.51
   6   7 -15 3665.11  338.81
  -6  -7  15 3388.54  195.72
   6   7 -14  581.20  108.18
  -6  -7  14  765.99  173.77
   6   7 -13   84.54   69.57
  -6  -7  13   66.61  117.06
   6   7 -12 3616.69  184.24
  -6  -7  12 3441.20  268.18
   6   7 -11 1247.33  202.67
  -6  -7  11 1205.58  191.97
   6   7 -10 4473.88  236.13
  -6  -7  10 4886.71  341.37
   6   7  -9 9746.97  357.54
  -6  -7   9 9382.63  484.29
   6   7  -8  483.53   83.09
  -6  -7   8  449.98  131.69
   6   7  -7  851.48  148.39
  -6  -7   7  965.95  136.60
   6   7  -6   63.97   50.16
  -6  -7   6   86.58   47.76
   6   7  -5 2992.13  120.53
  -6  -7   5 3034.28  113.27
   6   7  -4  368.34   52.56
  -6  -7   4  597.75   89.14
   6   7  -3 2946.81   94.94
  -6  -7   3 2961.77   88.56
  -6  -7   3 2996.81   91.34
   6   7  -2  368.88   68.10
  -6  -7   2  398.91   68.59
  -6  -7   2  354.11   37.32
   6   7  -1  342.98   35.44
  -6  -7   1  366.83   40.79
  -6  -7   1  443.86   34.16
   6   7   0  490.45   32.31
  -6  -7   0  487.47   44.02
   6   7   1  985.14   36.20
  -6  -7  -1  975.24   96.42
   6   7   2  551.17   24.89
  -6  -7  -2  602.34   52.30
   6   7   3   -4.26   16.68
   6   7   3   -3.82   18.29
  -6  -7  -3   68.53   31.87
   6   7   4  648.05   24.64
   6   7   4  641.86   26.87
  -6  -7  -4  690.49  103.31
   6   7   5 1241.96   23.93
   6   7   5 1262.02   25.95
  -6  -7  -5 1333.71   77.31
   6   7   6  493.93   62.35
  -6  -7  -6  542.09   63.29
   6   7   7 2157.85  165.94
  -6  -7  -7 2178.05  104.31
   6   7   8 1796.08  100.97
  -6  -7  -8 1995.88  104.11
   6   7   9 1811.14  103.25
  -6  -7  -9 1919.71  107.60
   6   7  10  -47.13   82.68
  -6  -7 -10   48.28   49.25
   6   7  11  428.63   15.95
   6   7  11  510.67   71.90
  -6  -7 -11  434.26  131.16
  -6  -7 -11  416.24   19.87
   6   7  12   57.56   14.49
   6   7  12   80.00   54.93
  -6  -7 -12   79.56   17.95
  -6  -7 -12   81.94   57.02
   6   7  13 1275.28   39.10
   6   7  13 1428.18  104.05
  -6  -7 -13 1140.97   46.50
  -6  -7 -13 1462.54  181.27
   6   7  14   38.48   19.56
   6   7  14   62.84   54.07
  -6  -7 -14   27.66   14.29
  -6  -7 -14   24.87   55.87
   6   7  15  277.25   18.00
   6   7  15  367.87  127.84
  -6  -7 -15  215.58   37.12
  -6  -7 -15  341.73  131.17
   6   7  16 1177.89   35.72
   6   7  16 1323.96  186.66
  -6  -7 -16 1118.31   65.45
  -6  -7 -16 1416.68  114.51
   6   7  17   74.89   29.95
   6   7  17   41.19  116.20
  -6  -7 -17   79.54   22.59
  -6  -7 -17  147.77   68.43
   6   7  18   -0.07   27.36
   6   7  18   -9.87  102.05
  -6  -7 -18  -32.55   20.69
   6   7  19    0.33   17.47
   6   7  19  102.45  103.84
  -6  -7 -19   77.96   37.91
   6   7  20    0.05   12.95
   6   7  20  -15.15   93.66
  -6  -7 -20   14.36   35.31
   6   7  21    0.47   17.96
   6   7  21   -0.99  100.53
  -6  -7 -21   43.70   39.54
   6   7  22   -0.34   18.49
   6   7  22   64.99   59.66
   6   7  23   27.91   66.80
   6   8 -19  -37.05   89.44
  -6  -8  19  -49.17   83.56
   6   8 -18  223.20  186.07
  -6  -8  18  171.28   97.89
   6   8 -17  128.16   93.03
  -6  -8  17  152.37   88.87
   6   8 -16  828.19  126.69
  -6  -8  16  783.23  121.46
   6   8 -15 1983.82  167.61
  -6  -8  15 2104.80  258.64
   6   8 -14    7.44  124.51
  -6  -8  14   82.14  118.29
   6   8 -13  126.27   78.36
  -6  -8  13  188.52  126.09
   6   8 -12  -64.43   64.10
  -6  -8  12   17.31  104.12
   6   8 -11   39.58   60.16
  -6  -8  11   -4.14   97.54
   6   8 -1011512.08  566.76
  -6  -8  1012117.13  548.87
   6   8  -924321.32  793.72
  -6  -8   923123.96  719.49
   6   8  -832725.61 1021.46
  -6  -8   831846.54  956.66
   6   8  -7 3299.88  252.25
  -6  -8   7 3629.76  154.91
   6   8  -6 1875.52  111.38
  -6  -8   6 1882.96   70.92
  -6  -8   6 1939.28  108.88
   6   8  -5 9831.55  284.26
  -6  -8   5 9489.55  286.82
  -6  -8   510533.51  388.30
   6   8  -4  279.85   52.04
  -6  -8   4  235.42   36.81
  -6  -8   4  280.30   51.36
   6   8  -3 1398.42  112.37
  -6  -8   3 1312.81   90.39
  -6  -8   3  820.64   61.09
   6   8  -2 1016.66   57.30
  -6  -8   2  930.43   51.24
   6   8  -1  917.58   50.21
  -6  -8   1  976.35   54.78
   6   8   0 3739.12  134.59
  -6  -8   0 3935.17  109.15
   6   8   1 6921.45  143.18
  -6  -8  -1 7104.97  173.88
   6   8   2 2094.13   52.07
   6   8   2 1960.49   80.25
  -6  -8  -2 2096.29  134.90
   6   8   3 1728.46   42.59
   6   8   3 1775.86   41.99
  -6  -8  -3 1679.27   80.63
   6   8   4 1681.55   53.04
   6   8   4 1703.18   55.08
  -6  -8  -4 1677.79  142.11
   6   8   5  534.22   18.50
   6   8   5  638.43   30.55
   6   8   5  617.04   64.70
  -6  -8  -5  608.07   64.04
   6   8   6   40.49   15.21
   6   8   6   41.02    9.07
   6   8   6   29.15   77.34
  -6  -8  -6   46.33   77.63
   6   8   7 3477.67   59.69
   6   8   7 3277.46   58.11
   6   8   7 3497.73  132.84
  -6  -8  -7 3469.38  134.36
   6   8   8  -13.17   40.95
   6   8   8    2.98   10.56
   6   8   8    9.06   10.22
  -6  -8  -8   -4.46   42.83
   6   8   9  313.27   65.40
   6   8   9  340.22   17.91
  -6  -8  -9  287.07   68.53
   6   8  10  843.90   86.89
   6   8  10  875.01   25.62
  -6  -8 -10  918.89  154.72
   6   8  11 2303.91   49.21
   6   8  11 2402.97  129.46
  -6  -8 -11 2479.58  131.54
  -6  -8 -11 2276.82   54.79
   6   8  12   12.58   15.05
   6   8  12  -89.87   87.52
  -6  -8 -12   12.46   10.55
  -6  -8 -12   -6.94   90.95
   6   8  13  -92.48   93.18
   6   8  13  -15.11    9.88
  -6  -8 -13  -13.06   21.01
  -6  -8 -13  -25.91   53.66
   6   8  14  161.82   70.87
   6   8  14  187.18   25.13
  -6  -8 -14  182.72   31.91
  -6  -8 -14  231.78  126.91
   6   8  15  267.15   79.16
   6   8  15  283.65   18.44
  -6  -8 -15  290.68   80.75
  -6  -8 -15  220.42   38.80
   6   8  16  305.66   79.40
   6   8  16  236.21   32.56
  -6  -8 -16  407.38   81.92
  -6  -8 -16  194.78   41.20
   6   8  17  106.14   17.80
   6   8  17  138.80   70.42
  -6  -8 -17   50.85   23.00
   6   8  18   -0.57   27.15
   6   8  18   -1.61   62.87
  -6  -8 -18   74.96   35.39
   6   8  19   -0.60   25.67
   6   8  19   66.40   58.06
  -6  -8 -19   -9.25   34.29
   6   8  20    0.15   10.22
   6   8  20   -5.14   59.89
  -6  -8 -20   26.73   21.43
   6   8  21    0.28   17.67
   6   8  21 -108.32   62.51
   6   8  22  -24.08  122.01
   6   9 -18  268.89  108.01
  -6  -9  18  220.50  106.84
   6   9 -17  189.53   99.83
  -6  -9  17  189.54  171.94
   6   9 -16   43.07  120.87
  -6  -9  16  -58.85  118.14
   6   9 -15   87.20   81.67
  -6  -9  15   73.78  138.49
   6   9 -14  385.12  100.30
  -6  -9  14  407.58  166.87
   6   9 -13    3.66   60.61
  -6  -9  13  -52.87  101.38
   6   9 -12  230.18   81.05
  -6  -9  12  341.83  139.92
   6   9 -11 1976.90  139.14
  -6  -9  11 2133.82  138.44
   6   9 -10  327.01   80.43
  -6  -9  10  358.55   27.48
  -6  -9  10  383.52   78.86
   6   9  -9  405.33  149.32
  -6  -9   9  399.40   51.25
  -6  -9   9  351.52   79.70
   6   9  -8   95.17   60.28
  -6  -9   8   67.82   23.94
  -6  -9   8   44.54   62.71
   6   9  -7 1957.87  123.41
  -6  -9   7 1700.81   60.96
  -6  -9   7 1773.93  123.81
   6   9  -6 2256.01  205.09
  -6  -9   6 2004.79  106.76
   6   9  -520756.38  560.94
  -6  -9   518737.82  436.42
   6   9  -4   -1.99   47.83
  -6  -9   4  119.95   28.81
   6   9  -3  838.98  104.43
  -6  -9   3  807.87   47.41
   6   9  -2   75.83   34.92
  -6  -9   2   80.70   29.27
   6   9  -1  422.13   75.87
  -6  -9   1  423.13   43.40
   6   9   011694.87  268.30
  -6  -9   011804.61  278.54
   6   9   112242.62  339.36
   6   9   112447.44  339.97
  -6  -9  -112490.16  304.60
   6   9   2 8047.50  173.61
   6   9   2 8400.55  176.89
  -6  -9  -2 8644.41  216.14
   6   9   3 8661.31  215.30
   6   9   3 8815.96  214.76
  -6  -9  -3 8900.06  229.08
   6   9   4 1830.88   49.70
   6   9   4 2083.47   76.05
   6   9   4 2019.09   99.52
  -6  -9  -4 1985.57   92.90
   6   9   5   76.59   16.19
   6   9   5   83.76   16.83
   6   9   5   59.28   83.32
  -6  -9  -5   82.62   46.46
   6   9   6   26.87   21.81
   6   9   6   16.41   12.81
   6   9   6   16.70   42.51
  -6  -9  -6   35.38   76.16
   6   9   7  235.39   27.53
   6   9   7  224.36   59.24
   6   9   7  214.40   16.45
  -6  -9  -7  266.86   60.18
   6   9   8  190.26   15.22
   6   9   8  260.31   60.50
  -6  -9  -8  138.62  109.45
   6   9   9 1478.10  106.11
   6   9   9 1585.50   32.83
  -6  -9  -9 1504.76  109.44
   6   9  10 3357.90  153.56
   6   9  10 3592.66   79.64
  -6  -9 -10 3367.89  157.16
   6   9  11  537.04  150.45
   6   9  11  565.88   33.07
  -6  -9 -11  547.97   36.94
  -6  -9 -11  538.98   87.63
   6   9  12   57.62  106.50
   6   9  12   59.66   22.99
  -6  -9 -12   59.83   25.68
  -6  -9 -12   63.89   62.16
   6   9  13 3025.51  159.32
   6   9  13 2809.72   73.19
  -6  -9 -13 2614.37   59.64
  -6  -9 -13 3245.81  259.16
   6   9  14  167.56   74.72
   6   9  14  135.71   27.41
  -6  -9 -14   83.56   76.16
  -6  -9 -14  123.54   20.15
   6   9  15  115.13   72.89
   6   9  15  110.37   16.72
  -6  -9 -15  259.28   74.94
  -6  -9 -15  102.72   34.69
   6   9  16   34.13   63.83
   6   9  16   43.19   14.89
  -6  -9 -16  -10.83   31.98
   6   9  17  969.07  112.72
   6   9  17  785.96   48.62
  -6  -9 -17  709.62   37.06
   6   9  18   15.80   14.81
   6   9  18  -54.44   61.32
  -6  -9 -18   -8.36   23.38
   6   9  19  215.64   84.29
  -6  -9 -19  136.33   25.41
   6   9  20    0.02    9.91
   6   9  20  183.27   64.23
   6   9  21  246.12   96.86
   6   9  22   45.80   78.18
   6  10 -17  171.82   95.99
  -6 -10  17   28.44   90.77
   6  10 -16  246.03  100.53
  -6 -10  16  167.25   96.34
   6  10 -15  243.23   88.67
  -6 -10  15   28.71   84.46
   6  10 -14  253.69  147.96
  -6 -10  14  138.45   84.11
   6  10 -13  104.73   62.32
  -6 -10  13    9.87   20.07
  -6 -10  13    8.13   62.97
   6  10 -12  280.06   67.52
  -6 -10  12   63.25   14.91
  -6 -10  12   63.76   67.92
   6  10 -11  352.66  139.08
  -6 -10  11  263.45   20.38
   6  10 -10   -3.44   52.48
  -6 -10  10   13.20   23.57
   6  10  -9   20.11   52.10
  -6 -10   9   15.17   26.29
   6  10  -8  303.00  108.51
  -6 -10   8  109.22   21.50
   6  10  -7  853.77   89.54
  -6 -10   7  822.33   60.95
   6  10  -6 5866.71  211.17
  -6 -10   6 5738.47  129.48
   6  10  -511507.96  437.78
  -6 -10   510786.24  240.19
   6  10  -4  155.57   51.91
  -6 -10   4  206.03   52.47
   6  10  -3  709.39  104.48
  -6 -10   3  655.63   41.64
   6  10  -2   43.77   34.33
  -6 -10   2   49.40   45.07
   6  10  -1   37.54   51.71
   6  10  -1   16.25   29.58
  -6 -10   1   21.68   26.91
   6  10   0   -8.74   24.06
   6  10   0   56.03   41.78
  -6 -10   0   -5.48   25.24
   6  10   1   12.02   24.72
   6  10   1   18.12   23.97
  -6 -10  -1    9.92   51.54
   6  10   2 1682.41   60.93
   6  10   2 1713.71   60.39
  -6 -10  -2 1847.67   80.03
   6  10   3  330.49   55.91
   6  10   3  363.66   53.39
  -6 -10  -3  381.83   88.51
   6  10   4 2533.99   66.64
   6  10   4 2688.90   68.56
   6  10   4 2666.85  114.32
  -6 -10  -4 2772.30  107.78
   6  10   5 1117.15   40.33
   6  10   5 1173.73   66.08
   6  10   5 1114.03   84.17
  -6 -10  -5 1240.45   81.80
   6  10   6  646.24   49.94
   6  10   6  686.65   75.06
   6  10   6  682.49   52.01
  -6 -10  -6  727.97  126.30
   6  10   7   64.82   27.74
   6  10   7   40.04   82.78
   6  10   7    7.35   16.24
  -6 -10  -7   46.07   47.44
   6  10   8 2216.01  122.58
   6  10   8 2376.37   74.58
  -6 -10  -8 2200.74  123.13
   6  10   9  298.50   22.03
   6  10   9  251.79   72.39
  -6 -10  -9  266.02   74.31
   6  10  10 8493.39  406.71
   6  10  10 8770.22  191.63
  -6 -10 -10 8543.44  285.40
   6  10  11 5248.59  330.69
   6  10  11 5457.45  101.12
  -6 -10 -11 5205.62  327.32
   6  10  12 6603.85  257.50
   6  10  12 6458.16  157.51
  -6 -10 -12 6704.78  257.31
  -6 -10 -12 6324.69  164.90
   6  10  1312993.68  428.49
   6  10  1312635.15  297.47
  -6 -10 -1313785.11  443.33
  -6 -10 -1312220.05  309.94
   6  10  14  675.06  110.62
   6  10  14  690.88   47.14
  -6 -10 -14  652.57   57.95
  -6 -10 -14  943.86  112.18
   6  10  15  377.93   91.72
   6  10  15  320.99   37.28
  -6 -10 -15  276.77   47.02
   6  10  16   48.51   73.19
   6  10  16   70.36   29.66
  -6 -10 -16   77.27   22.41
   6  10  17  963.75  119.05
   6  10  17  699.80   33.01
  -6 -10 -17  741.65   61.42
   6  10  18  277.74   82.51
   6  10  18   60.48   25.37
   6  10  19 1764.71  164.73
   6  10  20 2814.77  206.15
   6  10  21  543.24  126.38
   6  11 -16  364.81  209.30
   6  11 -15  -22.14   78.78
   6  11 -14  108.73   84.01
   6  11 -13  -27.95  118.73
   6  11 -12  -24.41   63.54
   6  11 -11  733.91   89.59
  -6 -11  11  342.99   28.76
   6  11 -10   80.97   96.23
  -6 -11  10   10.73   19.54
   6  11  -9  554.49   85.66
  -6 -11   9  465.40   37.34
   6  11  -8  135.32   64.37
  -6 -11   8  142.94   31.71
   6  11  -7  240.75  116.94
  -6 -11   7  256.45   39.08
   6  11  -6  192.40   60.76
  -6 -11   6  242.88   24.80
   6  11  -5  559.92   70.05
  -6 -11   5  575.52   33.63
   6  11  -4   49.26   79.52
  -6 -11   4   83.68   40.97
   6  11  -3  888.89   68.26
  -6 -11   3  850.75   70.20
   6  11  -2  106.09   75.51
   6  11  -2  152.98   41.98
  -6 -11   2  144.31   30.09
   6  11  -1  335.57   45.90
   6  11  -1  341.88   45.21
  -6 -11   1  269.39   36.39
   6  11   0  653.99   84.48
   6  11   0  530.32   48.68
  -6 -11   0  558.22   77.25
   6  11   1  541.97   47.05
   6  11   1  547.38   77.66
  -6 -11  -1  561.52   50.11
   6  11   2  934.09   88.12
   6  11   2  984.78   52.94
  -6 -11  -2 1056.14   64.67
   6  11   3  199.49   33.54
   6  11   3  190.16   32.02
   6  11   3  223.56   51.45
  -6 -11  -3  205.36   81.32
   6  11   4   69.32   49.07
   6  11   4  105.54   27.52
   6  11   4  162.36   49.50
  -6 -11  -4   87.02   45.64
   6  11   5 4885.38  155.23
   6  11   5 5065.87  156.20
   6  11   5 5231.33  174.88
  -6 -11  -5 5273.15  166.58
   6  11   6   15.12   19.82
   6  11   6    9.99   44.35
   6  11   6    1.16   20.53
  -6 -11  -6   45.78   71.66
   6  11   7   32.95   31.97
   6  11   7   -7.32   81.37
   6  11   7   -4.57   19.31
  -6 -11  -7   85.40   44.55
   6  11   8 4154.80  168.42
   6  11   8 4212.82  121.67
  -6 -11  -8 4071.27  160.75
   6  11   9  233.15   24.23
   6  11   9  132.18   69.74
  -6 -11  -9  201.82  116.65
   6  11  10  436.84   45.82
   6  11  10  334.48  141.58
  -6 -11 -10  321.98   80.32
   6  11  11   72.34   67.68
   6  11  11  115.57   34.10
  -6 -11 -11   32.01   68.74
   6  11  12   91.97   74.53
   6  11  12  142.55   21.42
  -6 -11 -12  115.26   77.47
  -6 -11 -12  106.33   24.09
   6  11  13 2244.58  155.07
   6  11  13 2316.97   57.24
  -6 -11 -13 2162.84   92.34
   6  11  14  -66.01   63.33
   6  11  14   -8.50   16.63
  -6 -11 -14  -32.36   33.38
   6  11  15  274.69   88.84
   6  11  15  234.91   23.79
  -6 -11 -15  190.21   27.86
   6  11  16 1131.17  126.11
   6  11  16  894.24   35.70
  -6 -11 -16  940.63   70.68
   6  11  17  201.77   91.20
  -6 -11 -17  169.75   28.90
   6  11  18  335.05   76.65
   6  11  18    1.69   17.49
   6  11  19   76.32   90.98
   6  11  20 5129.78  295.74
   6  12 -15 1323.99  166.71
   6  12 -14 2987.39  349.40
   6  12 -13  694.57  120.54
   6  12 -12  198.91   85.18
   6  12 -11    4.75   99.59
   6  12 -10   20.24   59.98
   6  12  -9  -30.73   52.90
  -6 -12   9   10.72   16.33
   6  12  -8   33.32   86.06
  -6 -12   8    5.81   19.26
   6  12  -7   68.46   57.33
  -6 -12   7   74.82   16.16
   6  12  -6  950.79   87.96
  -6 -12   6  806.82   32.81
   6  12  -5  252.24   60.82
  -6 -12   5  204.27   23.81
   6  12  -4   35.49   42.72
   6  12  -4   19.72   41.78
  -6 -12   4   11.06   33.23
   6  12  -3   31.36   71.52
  -6 -12   3   41.14   38.02
   6  12  -2  401.51   58.03
   6  12  -2  567.20   56.76
  -6 -12   2  459.01   60.97
   6  12  -1  809.14   63.64
   6  12  -1  827.43  109.93
  -6 -12   1  927.72   48.39
   6  12   0  154.99   44.65
   6  12   0  236.40   73.35
  -6 -12   0  258.15   36.51
   6  12   1 1759.20  122.65
   6  12   1 1731.83  118.83
  -6 -12  -1 1812.74   74.35
   6  12   2  852.62   56.30
   6  12   2  993.70   90.36
  -6 -12  -2 1036.67   99.66
   6  12   3  240.13   62.52
   6  12   3  153.62   50.33
   6  12   3  209.05   58.89
  -6 -12  -3  232.09   76.88
   6  12   4   98.76   30.65
   6  12   4   85.56   50.21
   6  12   4   97.60   83.68
  -6 -12  -4  135.38   42.54
   6  12   5  208.51   31.73
   6  12   5  268.02   56.84
   6  12   5  253.08   57.57
  -6 -12  -5  249.86   51.59
   6  12   6  294.23   31.28
   6  12   6  259.08   61.49
   6  12   6  237.43   33.34
  -6 -12  -6  206.68   95.66
   6  12   7  139.82   47.74
   6  12   7  252.46   60.48
  -6 -12  -7  124.87   97.81
   6  12   8   33.78   21.63
   6  12   8    5.10   52.20
  -6 -12  -8   30.52   48.51
   6  12   9  895.66   41.20
   6  12   9  777.38   94.67
  -6 -12  -9  855.11   90.67
   6  12  10   29.20   34.22
   6  12  10  -86.91   98.02
  -6 -12 -10   39.20   54.36
   6  12  11  516.83   51.93
   6  12  11  407.24   88.09
   6  12  12  503.66   92.68
   6  12  12  474.05   31.61
   6  12  13  776.39  104.37
   6  12  13  690.11   34.45
  -6 -12 -13  586.74   38.04
   6  12  14  -12.45   68.31
   6  12  14   31.04   18.61
  -6 -12 -14   45.79   37.84
   6  12  15  281.35   83.08
   6  12  15  107.58   18.67
  -6 -12 -15  184.58   27.45
   6  12  16   66.21   64.94
   6  12  16    3.96   10.54
  -6 -12 -16   -0.29   34.62
   6  12  17  185.52   67.64
   6  12  17    0.20   10.06
   6  12  18  143.14   95.72
   6  12  19  251.73  108.33
   6  13 -13  108.55   87.89
   6  13 -12  171.70  152.78
   6  13 -11  -39.12   68.63
   6  13 -10   57.81   67.68
   6  13  -9   31.24  107.14
   6  13  -8  175.60   71.60
   6  13  -7  166.74   65.37
  -6 -13   7  113.09   25.58
   6  13  -6   -2.23   89.80
   6  13  -6   47.80   50.62
  -6 -13   6   18.81   24.64
   6  13  -5  496.86   80.87
   6  13  -5  545.47  133.56
  -6 -13   5  447.79   48.08
   6  13  -4 5806.93  207.15
   6  13  -4 5832.66  305.20
  -6 -13   4 5420.06  127.31
   6  13  -3  -31.20   40.11
   6  13  -3  -61.52   67.87
  -6 -13   3    7.01   19.52
   6  13  -2  185.50   50.70
   6  13  -2  149.70   48.63
  -6 -13   2  154.19   28.76
   6  13  -1   65.62   80.16
   6  13  -1  155.30   74.80
  -6 -13   1  115.28   29.32
   6  13   0   92.42   41.03
   6  13   0   42.81   67.24
  -6 -13   0   72.45   51.69
   6  13   1  257.25   83.77
   6  13   1  325.81   46.40
  -6 -13  -1  310.00   69.02
   6  13   2   46.73   32.97
   6  13   2    7.78   31.16
  -6 -13  -2   37.17   56.25
   6  13   3  529.18   91.06
   6  13   3  648.40   68.08
   6  13   3  678.94   51.63
  -6 -13  -3  645.81   59.88
   6  13   4 1334.51   67.81
   6  13   4 1236.74   64.15
   6  13   4 1339.36  157.48
  -6 -13  -4 1532.62   82.81
   6  13   5  146.34   34.62
   6  13   5  136.48   58.20
   6  13   5  130.15   64.68
  -6 -13  -5  162.65   50.90
   6  13   6  125.47   58.31
   6  13   6  145.07   32.80
   6  13   6  124.16   34.90
  -6 -13  -6  177.86   52.45
   6  13   7  274.26   58.67
   6  13   7  297.58  114.09
  -6 -13  -7  214.12   59.44
   6  13   8  345.13   59.53
   6  13   8  330.65   73.89
   6  13   9  922.31   73.36
   6  13   9  822.34   95.16
   6  13  10  365.62   34.24
   6  13  10  289.78  141.47
   6  13  11  247.83   30.66
   6  13  11  305.99   79.87
   6  13  12  286.00   27.62
   6  13  12  195.22   84.12
   6  13  13   25.37   59.06
   6  13  13   -7.71   13.62
   6  13  14  -21.48   66.67
   6  13  14  -23.16   12.41
   6  13  15   -2.04   63.40
   6  13  15   -5.75   11.24
   6  13  16  187.45   68.16
   6  13  16    2.74   11.43
   6  13  17  361.46  109.92
   6  13  18   -9.38   73.56
   6  14 -12   42.60   75.80
   6  14 -11  -64.17   75.12
   6  14 -10  449.05  100.32
   6  14 -10  518.89  174.17
   6  14  -9  -50.67   65.45
   6  14  -9  -34.83   63.62
   6  14  -8   82.03   65.64
   6  14  -8   91.48   66.91
   6  14  -7  104.15  102.95
   6  14  -7    4.98  108.02
   6  14  -6  299.98   74.20
   6  14  -6  347.98   77.13
   6  14  -5  -15.22   50.06
   6  14  -5   -7.57   47.60
   6  14  -4  -71.89   83.56
   6  14  -4   40.05   45.50
   6  14  -3  540.26   76.15
   6  14  -3  575.33   71.53
   6  14  -2   87.35   77.91
   6  14  -2   59.10   41.41
  -6 -14   2   12.19   22.40
   6  14  -1   74.21   40.39
   6  14  -1   80.48   64.50
  -6 -14   1  -15.78   23.11
   6  14   0   -3.06   36.83
   6  14   0   -7.37   34.00
  -6 -14   0   17.54   24.37
   6  14   1  524.46   61.53
   6  14   1  535.34   56.49
   6  14   2  939.10   69.29
   6  14   2  940.58  106.88
   6  14   3   65.63   63.85
   6  14   3    6.88   60.47
   6  14   3   17.66   41.92
   6  14   4  181.51   47.55
   6  14   4   66.39   83.63
   6  14   4  169.83   57.75
   6  14   5 9765.89  263.97
   6  14   5 9879.42  334.62
   6  14   5 9729.48  375.84
   6  14   6 8102.21  222.35
   6  14   6 7976.39  282.09
   6  14   6 7841.02  231.84
   6  14   7   -2.73   79.25
   6  14   7    1.22   30.85
   6  14   8  460.85   72.25
   6  14   8  375.29   79.73
   6  14   9  890.65   72.41
   6  14   9 1025.67  102.54
   6  14  10  -71.82   30.23
   6  14  10   98.06  109.37
   6  14  11   10.33   22.46
   6  14  11   98.73  100.64
   6  14  12   15.61   23.09
   6  14  12  164.89   64.43
   6  14  13  120.62   62.73
   6  14  13   -0.37   21.27
   6  14  14  118.84   68.00
   6  14  14   10.24   22.00
   6  14  15   56.64   78.63
   6  14  16   49.59   79.44
   6  15  -9   92.29   74.45
   6  15  -9   88.86   73.69
   6  15  -8  -41.81   62.90
   6  15  -8   -5.66   60.00
   6  15  -7  677.18   97.34
   6  15  -7  643.08  171.82
   6  15  -6  -99.22   60.52
   6  15  -6   12.49   56.16
   6  15  -5  143.79   65.43
   6  15  -5  258.33  121.96
   6  15  -4  653.17   85.68
   6  15  -4  481.11  134.20
   6  15  -3   95.03   57.39
   6  15  -3   82.18   53.32
   6  15  -2   36.30   88.90
   6  15  -2   67.11   79.79
   6  15  -1   51.41   46.07
   6  15  -1    2.65   40.85
   6  15   0  122.10   53.44
   6  15   0  170.36   47.77
   6  15   1  -12.44   38.76
   6  15   1   47.86   59.28
   6  15   2   20.42   44.55
   6  15   2   91.20   39.26
   6  15   3  849.72  136.94
   6  15   3 1113.42   70.02
   6  15   4 6744.54  219.51
   6  15   4 6525.07  229.19
   6  15   5 1009.32  139.21
   6  15   5 1140.28  170.59
   6  15   6 1537.00  120.23
   6  15   6 1620.17   91.96
   6  15   7  788.98  166.11
   6  15   7  811.40   66.51
   6  15   8   15.24   34.49
   6  15   8  891.66   73.23
   6  15   9   -9.94   16.72
   6  15   9  588.99   61.29
   6  15  10  483.72   64.74
   6  15  10   23.37   17.12
   6  15  11   10.73   14.77
   6  15  11  183.82  102.74
   6  15  12    1.43   13.43
   6  15  12   46.77   99.49
   6  15  13    5.33   13.63
   6  15  13   17.41   62.50
   6  15  14  147.80   88.32
   6  16  -6  392.40   97.26
   6  16  -6  759.63  130.93
   6  16  -5   72.53  119.79
   6  16  -5  113.57   51.41
   6  16  -4  -29.04   59.36
   6  16  -4   59.98   39.38
   6  16  -3  -13.46   55.85
   6  16  -3  -51.83   32.97
   6  16  -2   -3.11   95.17
   6  16  -2  -56.77   28.58
   6  16  -1    7.95   50.17
   6  16  -1  -26.99   23.63
   6  16   0   19.55   43.90
   6  16   0  -22.29   34.80
   6  16   1   69.58   43.32
   6  16   1   -6.59   20.20
   6  16   2   21.79   43.58
   6  16   2  -22.82   32.69
   6  16   3 7343.32  346.84
   6  16   4 1087.98   92.36
   6  16   4 1065.66   93.12
   6  16   5  834.78   75.38
   6  16   5  621.64  146.54
   6  16   6  262.18   68.42
   6  16   6  191.08   92.86
   6  16   7   -8.54   27.10
   6  16   7   -8.98   46.87
   6  16   7   21.66   33.04
   6  16   8  672.96  139.28
   6  16   8  394.71   54.04
   6  16   9    2.76   16.93
   6  16   9  150.44   54.13
   6  16  10    5.93   15.96
   6  16  10   27.97   54.08
   6  16  11   20.89   16.69
   6  16  11   16.57   61.48
   6  17  -1   16.02   48.93
   6  17  -1    0.60   37.73
   6  17   0   -3.78   50.28
   6  17   0  -19.98   23.56
   6  17   1    1.62   73.51
   6  17   1    0.26   32.82
   6  17   2  -37.66   42.08
   6  17   2    6.32   19.57
   6  17   3  236.08   46.91
   6  17   3  -32.39   21.70
   6  17   4 -209.53   71.02
   6  17   4   38.14   32.42
   6  17   5  788.70   75.34
   6  17   5  724.26   81.84
   6  17   6    9.85   65.11
   6  17   6   -8.65   19.80
   6  17   6  -59.85   79.31
   7 -10  -4  297.98  199.00
  -7  10   4  299.84  121.40
   7 -10  -3  446.94  125.83
  -7  10   3  456.75  132.51
   7 -10  -2  212.61  106.02
  -7  10   2  154.26  109.86
   7 -10  -1  232.96  182.91
  -7  10   1  153.99  108.67
   7 -10   0 -171.75   77.15
  -7  10   0  169.74   77.68
  -7  10  -1 3187.77  419.01
  -7  10  -2 7357.34  384.21
  -7  10  -3 1759.13  204.54
  -7  10  -4  188.64  110.41
  -7  10  -5   66.65   95.80
   7  -9  -9  298.36  122.00
   7  -9  -8   13.79   80.77
  -7   9   8  -90.40  145.31
   7  -9  -7  659.96  139.25
  -7   9   7  784.95  140.88
   7  -9  -6  -62.71   91.08
  -7   9   6  -81.77  163.14
   7  -9  -5  583.97  214.18
  -7   9   5  514.41  129.40
   7  -9  -4   61.01   84.42
  -7   9   4   45.67   89.66
   7  -9  -3   93.34   63.93
  -7   9   3 -104.92   67.72
   7  -9  -2  704.26  229.48
  -7   9   2  903.42  137.33
   7  -9  -1 -118.29   90.22
  -7   9   1  -74.88   93.59
   7  -9   0  353.97  233.74
  -7   9   0  915.64  135.96
   7  -9   1 5102.98  267.37
  -7   9  -1 5151.91  274.54
  -7   9  -2 2148.84  194.15
  -7   9  -3  -96.71  159.35
  -7   9  -4   42.14   80.64
  -7   9  -5   -6.82   70.30
  -7   9  -6  -55.08   80.68
  -7   9  -7   45.42   79.09
  -7   9  -8  183.40  164.63
  -7   9  -9   60.39   82.35
  -7   9 -10   16.43   68.71
  -7   9 -10  -12.12   70.75
   7  -8 -11  462.86  131.56
  -7   8  11  556.85  133.94
   7  -8 -10  -36.24   82.92
  -7   8  10   -7.78   87.24
   7  -8  -9   56.27   72.60
  -7   8   9  -72.18   76.59
   7  -8  -8  359.11  198.93
  -7   8   8  355.45  117.28
   7  -8  -7  163.04   97.26
  -7   8   7  142.16   97.83
   7  -8  -6   56.84   83.50
  -7   8   6   75.89   87.38
   7  -8  -5   60.78   84.56
  -7   8   5   94.49   87.03
   7  -8  -4    6.13   76.71
  -7   8   4   75.51   79.69
   7  -8  -3    1.79  140.79
  -7   8   3  -98.11   83.21
   7  -8  -2  539.37  111.96
  -7   8   2  512.37  113.40
   7  -8  -1  581.56  210.29
  -7   8   1  912.36  126.25
   7  -8   0  517.47  108.50
  -7   8   0  518.21  111.57
   7  -8   1   49.59  111.92
  -7   8  -1  -26.05   66.31
   7  -8   2  172.04   82.22
  -7   8  -2   81.11   84.35
  -7   8  -3  405.18  103.64
  -7   8  -4  476.87  106.49
  -7   8  -5   56.43  131.69
  -7   8  -6  121.70   82.26
  -7   8  -7  342.09   97.14
  -7   8  -8  135.54   81.82
  -7   8  -9  118.53   80.71
  -7   8 -10  109.73  120.27
  -7   8 -10   -9.65   70.70
  -7   8 -11 1251.15  147.42
  -7   8 -11 1508.03  149.86
  -7   8 -12 1859.65  174.93
  -7   8 -12 2593.18  172.48
   7  -7 -13  155.53  189.22
  -7   7  13  135.86  111.30
   7  -7 -12  410.85  136.57
  -7   7  12  452.34  136.76
   7  -7 -11 2657.83  224.05
  -7   7  11 2904.34  371.37
   7  -7 -10   67.11   94.74
  -7   7  10   78.17   93.99
   7  -7  -9  532.97  219.32
  -7   7   9  810.85  227.64
   7  -7  -8  319.62  110.12
  -7   7   8  421.58  112.70
   7  -7  -7  515.26  113.13
  -7   7   7  452.05  114.16
   7  -7  -6  169.07  162.71
  -7   7   6  195.45   92.99
   7  -7  -5  -27.71   69.07
  -7   7   5    3.93   69.45
   7  -7  -4  428.40  181.40
  -7   7   4  344.20  103.36
   7  -7  -3 3272.53  192.51
  -7   7   3 3145.22  190.93
   7  -7  -2   65.20  145.96
  -7   7   2  135.31   84.93
   7  -7  -1  527.53  101.68
  -7   7   1  418.00  102.40
   7  -7   0  974.16  197.84
  -7   7   0  938.91  120.39
   7  -7   1  501.76   96.97
  -7   7  -1  399.59   96.99
   7  -7   2  153.61  131.66
  -7   7  -2  116.85   77.83
   7  -7   3   53.82   71.73
  -7   7  -3  138.28   73.81
  -7   7  -4   96.34   73.80
  -7   7  -5   39.72   66.09
  -7   7  -6   13.03   60.67
  -7   7  -7  568.64  169.86
  -7   7  -8  286.53   85.81
  -7   7  -9   -5.44  106.90
  -7   7  -9   21.68   24.11
  -7   7 -10  -20.26   60.68
  -7   7 -10   -8.62   36.64
  -7   7 -10  -12.70   60.54
  -7   7 -11 1496.09  134.47
  -7   7 -11 1647.94  137.78
  -7   7 -12  380.12  131.99
  -7   7 -12   18.42   75.78
  -7   7 -13  107.63   66.83
  -7   7 -13   -3.95   67.97
  -7   7 -14   -1.11   67.73
  -7   7 -14  100.38   66.77
  -7   7 -15   -0.95  110.01
  -7   7 -15   26.51   62.15
   7  -6 -15   11.53   86.37
  -7   6  14  172.28  112.89
   7  -6 -13   -8.18   93.21
  -7   6  13  109.68   90.65
   7  -6 -12 2109.95  190.46
  -7   6  12 2026.96  194.74
   7  -6 -11    1.37  112.20
  -7   6  11  625.33  112.28
   7  -6 -10   -0.70  117.32
  -7   6  10   -2.50   67.31
   7  -6  -9  -79.37   69.72
  -7   6   9   64.91   68.30
   7  -6  -8  254.54   97.63
  -7   6   8  242.10   98.27
   7  -6  -7   36.32  147.70
  -7   6   7  172.80  147.71
   7  -6  -6  823.58  122.33
  -7   6   6  905.52  123.99
   7  -6  -5  708.03  117.33
  -7   6   5  909.31  199.17
   7  -6  -4  119.95   85.69
  -7   6   4  192.00   85.47
   7  -6  -3  206.00   88.99
  -7   6   3  257.32  153.44
   7  -6  -2 1026.87  117.88
  -7   6   2 1035.45  119.81
   7  -6  -1  -31.87   62.36
  -7   6   1   10.84   61.61
   7  -6   0 1937.57  140.30
  -7   6   0 1987.14  144.92
   7  -6   1 1227.78  209.93
  -7   6  -1 1375.74  123.64
   7  -6   2 1458.58  122.33
  -7   6  -2 1379.11  123.32
   7  -6   3 1137.62  116.98
  -7   6  -3 1266.51  120.49
  -7   6  -4 2564.33  150.17
  -7   6  -5  174.23   74.45
  -7   6  -6   83.00   66.73
  -7   6  -7  712.95  100.02
  -7   6  -8  122.25   70.21
  -7   6  -9 1039.42  106.67
  -7   6  -9  930.85   52.43
  -7   6 -10    4.85   55.25
  -7   6 -10   -7.75   22.87
  -7   6 -10  -23.47   54.18
  -7   6 -11  242.53  115.43
  -7   6 -11  112.89   45.56
  -7   6 -11   -3.16   68.01
  -7   6 -12  -12.40   21.34
  -7   6 -12  -18.39   54.48
  -7   6 -12  -15.24   54.43
  -7   6 -13   97.77   63.59
  -7   6 -13   -3.11  108.30
  -7   6 -14    0.09   57.45
  -7   6 -14   91.16   98.99
  -7   6 -15   -9.36   58.81
  -7   6 -15  -93.34  102.40
  -7   6 -16    0.50   70.32
  -7   6 -16  221.38   70.34
  -7   5  15   51.60   93.69
   7  -5 -14  654.51  137.59
   7  -5 -13   91.28   79.04
  -7   5  13  -50.06   78.14
   7  -5 -12    2.83   68.55
   7  -5 -11   -2.88   81.97
  -7   5  11   97.11   79.93
   7  -5 -10    2.19  160.71
  -7   5  10  325.70  155.72
   7  -5  -9   -0.20   88.20
  -7   5   9  268.70   86.94
   7  -5  -8 1607.97  151.70
  -7   5   8 1677.98  260.45
   7  -5  -7 2360.47  170.00
  -7   5   7 2644.00  172.43
   7  -5  -6    4.25   64.42
  -7   5   6   28.76  112.05
   7  -5  -5   94.22  117.69
  -7   5   5   21.83   65.97
   7  -5  -4  528.89   96.85
  -7   5   4  574.32   98.14
   7  -5  -3  -32.66  105.93
  -7   5   3   -8.11   58.77
   7  -5  -2 2083.80  146.99
  -7   5   2 2147.34  149.10
   7  -5  -1 7618.81  280.89
  -7   5   1 7996.62  417.78
   7  -5   0 3002.44  172.09
  -7   5   0 3000.19  168.74
   7  -5   1 5443.63  208.37
  -7   5  -1 5456.47  207.05
   7  -5   2   27.43   89.04
  -7   5  -2  -13.65   54.26
   7  -5   3  416.00   79.84
  -7   5  -3  402.64   83.37
   7  -5   4 1690.34  120.94
  -7   5  -4 2220.51  216.70
  -7   5  -5 5179.21  213.16
  -7   5  -6 8490.22  449.25
  -7   5  -7  408.74   90.76
  -7   5  -8  -53.66  112.27
  -7   5  -9  112.60   66.45
  -7   5  -9   85.36   35.87
  -7   5 -10  271.65  124.28
  -7   5 -10  264.15   36.52
  -7   5 -10   -4.01   70.12
  -7   5 -11  757.41   79.65
  -7   5 -11 1157.49   98.46
  -7   5 -11  808.89   92.96
  -7   5 -12  119.26   50.56
  -7   5 -12  137.50   61.60
  -7   5 -12  108.71   61.14
  -7   5 -13  302.30  114.87
  -7   5 -13   72.28  114.35
  -7   5 -13  177.88   29.40
  -7   5 -14  296.09   66.58
  -7   5 -14  280.68   67.85
  -7   5 -14  140.92   28.97
  -7   5 -15   -3.50   54.02
  -7   5 -15   71.83   55.43
  -7   5 -16   -1.26   96.25
  -7   5 -16  -50.71   56.24
  -7   5 -17  -77.59   91.73
  -7   5 -17    2.37   50.75
  -7   5 -18  -36.19   53.71
  -7   5 -18   85.44   54.53
  -7   4  17   94.55  101.14
  -7   4  16   -2.12   74.91
   7  -4 -15   60.51   91.51
   7  -4 -14  596.28  124.05
  -7   4  14  467.29  120.91
   7  -4 -13    3.02   69.47
   7  -4 -12    0.15   80.72
  -7   4  12   99.29   78.91
   7  -4 -11   -0.74  112.91
   7  -4 -10   -3.60   81.61
  -7   4  10  145.07   77.62
   7  -4  -9 2350.07  178.41
  -7   4   9 2629.04  280.12
   7  -4  -8 7400.07  456.62
  -7   4   8 7480.17  290.17
   7  -4  -7 5371.68  240.71
  -7   4   7 5565.38  379.69
   7  -4  -6   65.26   69.35
  -7   4   6   37.66   68.44
   7  -4  -5  352.83   89.25
  -7   4   5  417.90   87.28
   7  -4  -4 3658.67  172.26
  -7   4   4 3425.69  165.43
   7  -4  -3  195.36   68.63
  -7   4   3  107.86   70.40
   7  -4  -2   18.95   53.98
  -7   4   2   36.29   95.36
   7  -4  -1  -28.17   53.14
  -7   4   1  -13.52   52.37
   7  -4   0   51.57   97.60
  -7   4   0   33.35   55.59
   7  -4   1  615.53   88.84
  -7   4  -1 1107.61  167.24
   7  -4   216838.32  475.91
  -7   4  -217226.79  480.35
   7  -4   317448.25  484.37
  -7   4  -317285.03  482.53
   7  -4   4 2392.18  220.19
  -7   4  -4 2410.26  141.93
  -7   4  -5  148.82   59.97
  -7   4  -6  -50.90   95.78
  -7   4  -7 3308.68  153.04
  -7   4  -815381.33  468.48
  -7   4  -9 9217.52  321.70
  -7   4  -9 8150.61  228.25
  -7   4 -10  174.52  112.78
  -7   4 -10  242.69   63.98
  -7   4 -10  -37.99   57.26
  -7   4 -11   -0.61   48.75
  -7   4 -11   50.92   51.68
  -7   4 -11   24.93   49.60
  -7   4 -12  201.10   61.64
  -7   4 -12  216.06  109.09
  -7   4 -12  255.76   63.34
  -7   4 -13  158.00   56.25
  -7   4 -13  112.10   58.40
  -7   4 -13  129.05   30.77
  -7   4 -14   -3.17   72.70
  -7   4 -14   17.65   43.17
  -7   4 -14    1.24   22.24
  -7   4 -15   -0.47   45.56
  -7   4 -15   16.33   23.04
  -7   4 -15   12.42   81.18
  -7   4 -16  828.65   48.29
  -7   4 -16 1169.40   91.28
  -7   4 -16 1116.45   95.57
  -7   4 -17  502.14   76.22
  -7   4 -17    3.02  121.34
  -7   4 -18  557.40   79.85
  -7   4 -18  546.55   82.07
  -7   4 -19   58.02   89.84
  -7   4 -19   23.81   51.04
  -7   3  18  152.13  112.43
  -7   3  17   31.72   91.79
   7  -3 -16  863.32  145.25
   7  -3 -15   77.94   73.04
  -7   3  15  -60.11   69.87
   7  -3 -14   -0.51   65.81
   7  -3 -13    0.76   84.29
  -7   3  13  139.78   79.38
   7  -3 -12   -1.86   63.28
   7  -3 -11 3068.61  318.18
  -7   3  11 3191.30  188.04
   7  -3 -10 -107.20   80.66
  -7   3  10 -105.64  134.47
   7  -3  -9  413.19   97.46
  -7   3   9  313.62   92.86
   7  -3  -8 9241.60  499.47
  -7   3   8 9554.79  493.36
   7  -3  -7 3736.58  196.77
  -7   3   7 3884.37  191.72
   7  -3  -6 2607.29  157.45
  -7   3   6 2519.06  149.14
   7  -3  -5 1796.46  124.72
  -7   3   5 1771.42  125.80
   7  -3  -4  991.90  101.83
  -7   3   4 1063.20  100.05
   7  -3  -3   46.39   57.99
  -7   3   3  102.60   98.88
   7  -3  -2  377.98  126.17
  -7   3   2  311.24   70.86
   7  -3  -1 4750.02  177.13
  -7   3   1 4990.52  180.52
   7  -3   0 4112.09  171.11
  -7   3   0 4521.21  277.69
   7  -3   114965.95  450.88
  -7   3  -114469.53  418.85
   7  -3   276783.63 2750.44
  -7   3  -276953.93 2434.87
   7  -3   354691.16 1891.09
  -7   3  -356988.33 1947.01
   7  -3   4 7668.80  256.67
  -7   3  -4 9227.27  283.76
   7  -3   5 1965.80  104.16
  -7   3  -5 1908.40  105.10
  -7   3  -6 5373.04  259.04
  -7   3  -7   -2.82   38.89
  -7   3  -8   80.60   48.10
  -7   3  -9  991.48  137.06
  -7   3  -9 1111.25   97.92
  -7   3 -10 1079.93   97.50
  -7   3 -10 1188.23   81.62
  -7   3 -10 1027.02   78.95
  -7   3 -11  172.50   63.15
  -7   3 -11  102.71   89.83
  -7   3 -11  111.04   89.92
  -7   3 -12  617.38   83.70
  -7   3 -12  577.74   70.83
  -7   3 -12  645.67   67.22
  -7   3 -13 2233.87  106.71
  -7   3 -13 2152.20  109.02
  -7   3 -13 1954.24   76.87
  -7   3 -14  176.81   50.98
  -7   3 -14  171.31   34.32
  -7   3 -14  140.20   93.21
  -7   3 -15   17.28   47.05
  -7   3 -15   70.98   74.67
  -7   3 -15   72.99   28.56
  -7   3 -16  153.18   31.76
  -7   3 -16  132.84   49.13
  -7   3 -16  105.26   54.19
  -7   3 -17  842.79   73.52
  -7   3 -17  645.69   46.15
  -7   3 -17  596.23  131.30
  -7   3 -18  554.94  120.14
  -7   3 -18  723.28  128.06
  -7   3 -18  528.79   41.79
  -7   3 -19  170.59   56.47
  -7   3 -19  178.61   59.48
  -7   3 -20  191.88   55.55
  -7   3 -20   49.55   56.21
  -7   2  19   23.26   87.98
   7  -2 -18  281.49  125.90
  -7   2  18  347.64  117.83
   7  -2 -17  616.67  137.18
   7  -2 -16  798.53  129.54
  -7   2  16  485.87  131.80
   7  -2 -15    1.62   68.89
   7  -2 -14    0.60   71.33
  -7   2  14   28.99   68.22
   7  -2 -13   -0.43   82.02
  -7   2  13  160.08   76.31
   7  -2 -12  334.53  178.92
  -7   2  12  436.84   96.18
   7  -2 -11 1295.16  227.52
  -7   2  11 1310.14  127.09
   7  -2 -10  116.45   78.86
  -7   2  10  136.04   76.97
   7  -2  -9  310.47   93.91
  -7   2   9  266.08   89.01
   7  -2  -8   27.26  142.81
  -7   2   8  127.47   79.23
   7  -2  -7 7075.04  283.62
  -7   2   7 7247.19  423.10
   7  -2  -6   80.34   76.94
  -7   2   6   69.08   68.01
   7  -2  -5  921.84   98.86
  -7   2   5  904.10  173.00
   7  -2  -4  476.35   81.54
  -7   2   4  517.80   79.47
   7  -2  -3 4689.03  175.96
  -7   2   3 4858.94  173.93
   7  -2  -2 2097.10  113.79
  -7   2   2 2057.53  187.86
   7  -2  -1 1738.72  169.51
  -7   2   1 1839.78  103.83
   7  -2   0  170.19   55.07
  -7   2   0  175.14   55.41
   7  -2   1 5802.65  187.67
  -7   2  -1 6046.91  196.32
   7  -2   225152.68  643.42
  -7   2  -225377.22  799.60
   7  -2   314392.11  361.56
  -7   2  -314004.34  364.67
   7  -2   4 1845.77   91.13
  -7   2  -4 1729.54   92.68
   7  -2   5  -16.40   32.05
  -7   2  -5   18.54   32.88
  -7   2  -6   48.03   69.88
  -7   2  -7  179.86   46.03
  -7   2  -8   43.12   39.61
  -7   2  -8   83.55   33.99
  -7   2  -9   55.60   65.82
  -7   2  -9   40.92   30.61
  -7   2 -10  102.78   34.51
  -7   2 -10  131.70   40.01
  -7   2 -10  143.96   43.03
  -7   2 -11  307.02   43.26
  -7   2 -11  365.70   92.91
  -7   2 -11  402.00   48.55
  -7   2 -12 2088.39   89.39
  -7   2 -12 2074.38   82.36
  -7   2 -12 2260.08   99.91
  -7   2 -13 2318.59  157.49
  -7   2 -13 2364.39  145.88
  -7   2 -13 2150.90   81.93
  -7   2 -14   19.74   60.15
  -7   2 -14   53.75   37.33
  -7   2 -14   20.87   28.79
  -7   2 -15  438.14   99.23
  -7   2 -15  526.13   54.29
  -7   2 -15  536.26   45.65
  -7   2 -16   10.89   24.49
  -7   2 -16  -13.71   58.00
  -7   2 -16   -0.37   31.22
  -7   2 -17  102.63   70.71
  -7   2 -17   58.31   54.37
  -7   2 -17  134.44   45.35
  -7   2 -18   23.55   41.43
  -7   2 -18   25.14   37.89
  -7   2 -18   67.39   47.43
  -7   2 -19  -21.64   34.21
  -7   2 -19   11.55   62.60
  -7   2 -19   28.44   39.59
  -7   2 -20    0.76   24.40
  -7   2 -20   23.20   66.04
  -7   2 -20   42.56   67.78
  -7   2 -21  397.31   64.72
  -7   2 -21  397.36  112.06
   7  -1 -19  176.43  121.66
  -7   1  19  404.87  118.38
   7  -1 -18  135.16  101.54
  -7   1  18   88.39  175.00
   7  -1 -17   53.44   91.25
  -7   1  17   81.00   87.30
   7  -1 -16  210.84   99.02
  -7   1  16   99.38  168.37
   7  -1 -15  309.55   98.58
  -7   1  15  133.39   95.87
   7  -1 -14  489.28  106.69
  -7   1  14  424.67  105.48
   7  -1 -13   95.81   78.93
  -7   1  13   95.24   75.09
   7  -1 -12  344.22  156.72
  -7   1  12  277.97   84.96
   7  -1 -11  401.49   93.83
  -7   1  11  406.17  154.12
   7  -1 -10 1310.61  122.52
  -7   1  10 1256.75  115.77
   7  -1  -9   59.86   66.71
  -7   1   9   27.19  116.50
   7  -1  -8 8836.50  511.24
  -7   1   8 9557.05  337.73
   7  -1  -734208.00 1075.92
  -7   1   733810.54 1245.88
   7  -1  -614675.44  463.11
  -7   1   614884.48  448.98
   7  -1  -5 2110.93  126.24
  -7   1   5 1948.34  119.04
   7  -1  -4  564.63   76.13
  -7   1   4  548.96  126.98
   7  -1  -3  572.97   71.80
  -7   1   3  507.36   69.51
   7  -1  -2  235.35   97.09
  -7   1   2  196.11   54.98
   7  -1  -1 5418.98  244.99
  -7   1   1 5375.16  239.78
   7  -1   0 1106.31  125.84
  -7   1   0  948.72   74.11
   7  -1   1  144.91   45.10
  -7   1  -1  101.90   44.75
   7  -1   2  595.27   62.02
  -7   1  -2  686.12   61.37
   7  -1   3  729.14  102.71
  -7   1  -3  539.32   60.13
   7  -1   4 5859.37  225.31
  -7   1  -4 6197.57  230.18
   7  -1   5   76.22   35.85
  -7   1  -5   86.77   65.61
  -7   1  -6 1150.00   64.13
  -7   1  -7  583.60   51.33
  -7   1  -8 1141.61   62.77
  -7   1  -8 1016.54   66.04
  -7   1  -9 1676.31  118.32
  -7   1  -9 1631.14   75.33
  -7   1 -10  116.68   37.25
  -7   1 -10  123.15   38.10
  -7   1 -10   96.21   63.94
  -7   1 -11 4187.87  127.13
  -7   1 -11 4423.43  129.07
  -7   1 -11 4539.64  177.60
  -7   1 -12 1605.90   70.77
  -7   1 -12 1487.34   71.75
  -7   1 -12 1515.57  119.60
  -7   1 -13  751.99   52.90
  -7   1 -13  730.76   56.81
  -7   1 -13  695.37   52.64
  -7   1 -14   94.46   33.90
  -7   1 -14   54.82   63.25
  -7   1 -14   75.95   34.14
  -7   1 -15   35.31   27.05
  -7   1 -15   -2.98   26.23
  -7   1 -15  -21.12   29.00
  -7   1 -16   12.06   28.74
  -7   1 -16   49.95   53.03
  -7   1 -16   37.98   32.92
  -7   1 -17   32.83   32.02
  -7   1 -17   70.65   50.20
  -7   1 -17    3.80   60.08
  -7   1 -18   99.69   35.72
  -7   1 -18   -5.26   52.40
  -7   1 -18  -12.73   65.65
  -7   1 -19  -26.27   32.41
  -7   1 -19  -24.26   51.85
  -7   1 -19   19.57   25.33
  -7   1 -20    4.62   29.77
  -7   1 -20  -83.70   36.46
  -7   1 -20    4.01   38.85
  -7   1 -21   64.21   46.66
  -7   1 -21   74.10   44.84
   7   0 -19  618.19  146.54
  -7   0  19  868.64  241.25
   7   0 -18  158.38  102.54
  -7   0  18   48.45   97.94
   7   0 -17 3124.00  230.66
  -7   0  17 2594.69  238.43
   7   0 -16 1048.47  152.64
  -7   0  16  899.05  134.28
   7   0 -15  987.77  137.49
  -7   0  15  862.24  130.04
   7   0 -14   84.25   81.18
  -7   0  14   83.67  132.21
   7   0 -13   -9.36   66.40
  -7   0  13   43.25   62.63
   7   0 -12  255.27  152.54
  -7   0  12  288.71   83.26
   7   0 -11   11.45  105.29
  -7   0  11   28.62   56.74
   7   0 -10 2494.45  151.94
  -7   0  10 2540.94  142.14
   7   0  -9 2076.82  136.60
  -7   0   9 2110.21  129.55
   7   0  -8   96.90   64.44
  -7   0   8  157.23   62.24
   7   0  -7  432.09   82.30
  -7   0   7  406.82   79.36
   7   0  -6   30.56   50.98
  -7   0   6   38.75   48.15
   7   0  -5 2615.26  198.58
  -7   0   5 2505.67  116.88
   7   0  -4  136.87   52.71
  -7   0   4  146.53   89.01
   7   0  -3   -7.21   36.67
  -7   0   3   14.11   35.29
   7   0  -2 2108.64  159.26
  -7   0   2 2092.76   93.03
   7   0  -1 1701.90  134.79
  -7   0   1 1496.47  130.94
   7   0   0 1173.28   68.58
  -7   0   0 1211.44   68.60
   7   0   1  950.27  108.20
  -7   0  -1 1017.06   63.06
   7   0   2 5304.84  207.57
  -7   0  -2 5178.83  140.67
   7   0   318782.58  421.77
  -7   0  -318660.28  417.37
   7   0   4 4250.45  115.50
  -7   0  -4 4495.29  117.95
   7   0   5 2384.64  121.99
  -7   0  -5 2328.14   77.70
  -7   0  -6   41.89   28.34
  -7   0  -7   82.76   54.58
  -7   0  -7  125.85   43.88
  -7   0  -8 2886.54  128.23
  -7   0  -8 2661.28  103.44
  -7   0  -9  925.62   83.18
  -7   0  -9  881.94   66.30
  -7   0  -9  981.56   50.44
  -7   0 -10  323.63   84.47
  -7   0 -10  264.59   61.43
  -7   0 -10  281.68   35.61
  -7   0 -11  942.55   51.10
  -7   0 -11  817.28  113.72
  -7   0 -11  877.45   50.99
  -7   0 -12  807.25  106.47
  -7   0 -12  716.20   48.23
  -7   0 -12  749.16   82.13
  -7   0 -13   38.78   25.76
  -7   0 -13   -7.95   27.15
  -7   0 -13   -6.14   58.67
  -7   0 -14  953.51   54.15
  -7   0 -14  927.11   56.72
  -7   0 -14  971.61   64.51
  -7   0 -15  101.43   37.87
  -7   0 -15   96.14   31.79
  -7   0 -15   65.26   33.79
  -7   0 -16  127.21   40.39
  -7   0 -16  170.92   61.06
  -7   0 -16  197.20   63.89
  -7   0 -17   -9.85   27.65
  -7   0 -17  -49.67   53.59
  -7   0 -17  -17.28   30.48
  -7   0 -18  201.51   73.90
  -7   0 -18  188.96   40.70
  -7   0 -18  289.86   44.13
  -7   0 -19  436.56   90.53
  -7   0 -19  457.72   82.08
  -7   0 -19  434.34   50.33
  -7   0 -20  -14.92   36.62
  -7   0 -20   66.52   34.42
  -7   0 -20  101.36   64.30
  -7   0 -21   37.87   62.64
  -7   0 -21    7.62   36.43
  -7   0 -21  -33.37   34.05
  -7   0 -22  540.44   64.23
  -7   0 -22  498.48   64.43
   7   1 -20  169.19  196.66
  -7  -1  20  172.11  194.29
   7   1 -19  285.90  228.22
  -7  -1  19  486.66  128.36
   7   1 -18 4076.19  438.59
  -7  -1  18 3216.02  254.89
   7   1 -1710443.50  484.07
  -7  -1  17 9782.64  682.65
   7   1 -16 3700.63  262.46
  -7  -1  16 4254.56  251.64
   7   1 -15 1399.04  161.42
  -7  -1  15 1626.07  156.44
   7   1 -14  220.63   98.91
  -7  -1  14  359.17   89.42
   7   1 -13   48.57  130.14
  -7  -1  13   89.51   69.15
   7   1 -12  -60.73  102.42
  -7  -1  12   33.38   95.34
   7   1 -11   45.58   99.92
  -7  -1  11  -30.61   53.95
   7   1 -10   90.63   63.49
  -7  -1  10   60.19   60.68
   7   1  -9 1393.34  110.88
  -7  -1   9 1434.35  104.87
   7   1  -8  424.42   74.19
  -7  -1   8  340.30   69.87
   7   1  -7 3111.87  223.47
  -7  -1   7 2818.83  213.85
   7   1  -6 4320.61  159.31
  -7  -1   6 4447.17  155.05
   7   1  -5   40.83   44.14
  -7  -1   5   27.07   75.47
   7   1  -4 1819.61   94.47
  -7  -1   4 1885.78   90.12
   7   1  -3  723.69  108.34
  -7  -1   3  633.23   59.32
   7   1  -2 1205.31   69.99
  -7  -1   2 1136.01  112.37
   7   1  -1   18.49   32.94
  -7  -1   1   30.60   31.72
   7   1   0 2583.35   88.18
  -7  -1   0 2562.15   87.43
   7   1   1 1175.05   96.10
  -7  -1  -1 1129.51   56.92
   7   1   2   -3.35   23.43
  -7  -1  -2   28.57   42.17
   7   1   3 5026.61  115.82
  -7  -1  -3 5405.58  165.92
   7   1   4 3232.75   80.20
  -7  -1  -4 3283.06  121.89
   7   1   5 1317.62   80.24
  -7  -1  -5 1392.55   49.64
  -7  -1  -6 1135.67   44.31
  -7  -1  -7  147.17   25.62
  -7  -1  -7  125.16   81.42
  -7  -1  -8  398.93   30.66
  -7  -1  -8  343.65   97.36
  -7  -1  -9 1207.47   74.30
  -7  -1  -9 1190.09   76.42
  -7  -1  -9 1165.89   44.79
  -7  -1 -10  960.57   42.50
  -7  -1 -10  796.56   71.85
  -7  -1 -10  946.10   71.04
  -7  -1 -11  212.96   50.33
  -7  -1 -11  137.31   49.54
  -7  -1 -11  142.95   29.79
  -7  -1 -12 6388.45  198.81
  -7  -1 -12 6553.68  158.33
  -7  -1 -12 6494.56  200.61
  -7  -1 -1313695.46  379.02
  -7  -1 -1314337.58  498.32
  -7  -1 -1313777.34  405.26
  -7  -1 -14  579.11   46.53
  -7  -1 -14  739.96   51.46
  -7  -1 -14  757.18  118.41
  -7  -1 -15  105.64   45.99
  -7  -1 -15  142.22   31.78
  -7  -1 -15   67.40   59.39
  -7  -1 -16  361.74   55.24
  -7  -1 -16  448.05   44.56
  -7  -1 -16  437.02   39.34
  -7  -1 -17   37.46   38.78
  -7  -1 -17   29.72   48.81
  -7  -1 -17  104.55   55.86
  -7  -1 -18   20.64   68.59
  -7  -1 -18   49.83   29.63
  -7  -1 -18   98.41   33.92
  -7  -1 -19  358.32   46.80
  -7  -1 -19  328.88   43.45
  -7  -1 -19  192.85   52.33
  -7  -1 -20  690.84   61.73
  -7  -1 -20  661.95   96.04
  -7  -1 -20  693.87   71.31
  -7  -1 -21 2083.79  101.13
  -7  -1 -21 2133.96   98.68
  -7  -1 -21 1362.39  103.07
  -7  -1 -22  -39.93   39.65
  -7  -1 -22   21.88   65.52
   7   2 -20   31.16   76.90
  -7  -2  20  -27.97   75.18
   7   2 -19   77.47  110.82
  -7  -2  19  182.41  103.34
   7   2 -18 6496.11  545.04
  -7  -2  18 6496.29  539.89
   7   2 -17 7291.28  547.45
  -7  -2  17 5793.32  331.18
   7   2 -16 1191.49  283.73
  -7  -2  16 1250.60  155.22
   7   2 -15  126.98  128.65
  -7  -2  15  -89.17  122.91
   7   2 -14  799.79  219.69
  -7  -2  14  900.84  117.69
   7   2 -13  849.89  204.73
  -7  -2  13  906.93  111.46
   7   2 -12  459.62  172.82
  -7  -2  12  484.79  156.83
   7   2 -11   86.36  109.24
  -7  -2  11   44.39   58.30
   7   2 -10   57.68   63.07
  -7  -2  10  128.24   58.34
   7   2  -9 1768.54  118.33
  -7  -2   9 1803.48  189.42
   7   2  -8 3978.53  165.11
  -7  -2   8 4157.10  162.40
   7   2  -717819.81  493.67
  -7  -2   718733.83  626.27
   7   2  -6  305.41  109.84
  -7  -2   6  320.43   58.97
   7   2  -5 2525.87  112.76
  -7  -2   5 2597.72  105.82
   7   2  -4 4978.74  224.48
  -7  -2   4 4954.63  143.85
   7   2  -3 2177.52   88.63
  -7  -2   3 2032.23   84.12
   7   2  -2 1366.84   68.54
  -7  -2   2 1393.49   66.88
   7   2  -1  695.66   49.99
  -7  -2   1  694.30   83.35
   7   2   0 2744.36   81.27
  -7  -2   0 2619.24   77.59
   7   2   1 3973.96   96.12
  -7  -2  -1 3972.16   93.70
   7   2   2  136.43   27.06
  -7  -2  -2  127.98   26.72
   7   2   3 2468.28   92.86
  -7  -2  -3 2305.38   59.96
   7   2   4  231.54   42.45
  -7  -2  -4  213.56   24.44
   7   2   5 3396.43   97.54
  -7  -2  -5 3135.28   65.58
  -7  -2  -6 8743.60  187.95
  -7  -2  -6 7886.89  216.83
  -7  -2  -7  280.48   21.58
  -7  -2  -7  304.73   54.07
  -7  -2  -8   -2.05   24.02
  -7  -2  -8  -17.20   35.53
  -7  -2  -8   -4.63   24.06
  -7  -2  -9 1811.38   67.13
  -7  -2  -9 1697.94   93.27
  -7  -2  -9 1731.33   46.17
  -7  -2 -10  535.28   65.67
  -7  -2 -10  539.85   28.01
  -7  -2 -10  543.30   30.20
  -7  -2 -11  265.44   98.41
  -7  -2 -11  232.27   24.09
  -7  -2 -11  257.73   26.52
  -7  -2 -12  838.42   37.30
  -7  -2 -12  884.82   41.87
  -7  -2 -12  935.70   77.51
  -7  -2 -13  993.02   42.79
  -7  -2 -13  996.28   46.39
  -7  -2 -13 1030.64   84.04
  -7  -2 -14    5.12   35.77
  -7  -2 -14    1.04   17.92
  -7  -2 -14   -6.78   34.92
  -7  -2 -15   61.09   88.36
  -7  -2 -15  109.10   29.56
  -7  -2 -15  118.32   26.54
  -7  -2 -16  817.59   74.09
  -7  -2 -16  721.91   69.57
  -7  -2 -16  721.37   79.05
  -7  -2 -17  -21.61   41.56
  -7  -2 -17   43.49   27.12
  -7  -2 -17   16.60   24.51
  -7  -2 -18  511.76  115.88
  -7  -2 -18  594.98   70.21
  -7  -2 -19  249.66   61.01
  -7  -2 -19  372.20   38.96
  -7  -2 -20   78.29   54.98
  -7  -2 -20   64.27   50.83
  -7  -2 -21  908.60   64.31
  -7  -2 -21  920.54   87.34
  -7  -2 -22 2731.18  174.73
  -7  -2 -23 1152.77   82.15
   7   3 -20  645.06  153.53
  -7  -3  20  816.14  144.14
   7   3 -19  -23.54   78.77
  -7  -3  19   53.30  131.20
   7   3 -18  479.76  129.60
  -7  -3  18  300.76  130.95
   7   3 -17  591.42  134.69
  -7  -3  17  319.62  114.06
   7   3 -16  153.14  154.99
  -7  -3  16   50.04   80.22
   7   3 -15  863.66  219.86
  -7  -3  15  770.33  205.99
   7   3 -14 2091.76  280.92
  -7  -3  14 2182.11  160.67
   7   3 -13 1987.66  254.47
  -7  -3  13 1908.55  144.56
   7   3 -12 9420.23  485.51
  -7  -3  12 9155.03  453.08
   7   3 -11  336.25  148.82
  -7  -3  11  432.92   79.47
   7   3 -10   22.85  105.87
  -7  -3  10   65.68   55.15
   7   3  -9  758.45   89.36
  -7  -3   9  669.35  142.39
   7   3  -813120.57  381.74
  -7  -3   812587.42  350.46
   7   3  -714351.83  400.70
  -7  -3   714063.06  375.50
   7   3  -6 2016.70  103.63
  -7  -3   6 1903.58  157.31
   7   3  -5 4947.92  229.43
  -7  -3   5 5010.07  150.87
   7   3  -4   98.22   40.46
  -7  -3   4   85.78   38.86
   7   3  -3   63.31   59.55
  -7  -3   3    2.94   57.52
   7   3  -2 2296.96   80.76
  -7  -3   2 2322.92   77.41
   7   3  -1    5.39   23.09
  -7  -3   1  -28.97   39.27
   7   3   0  410.41   35.60
  -7  -3   0  415.86   33.88
   7   3   1  735.51   62.83
  -7  -3  -1  682.92   59.51
   7   3   2 3996.66  115.95
  -7  -3  -2 3852.70   78.61
   7   3   3 9652.32  202.74
  -7  -3  -3 8898.07  155.95
   7   3   411874.57  200.93
  -7  -3  -411289.29  191.26
   7   3   5  274.83   16.95
  -7  -3  -5  257.53   16.65
  -7  -3  -5  201.35   56.15
  -7  -3  -6   52.21   19.92
  -7  -3  -6   84.39   43.66
  -7  -3  -7  193.02   21.42
  -7  -3  -7  139.22   49.47
  -7  -3  -7  143.45   11.96
  -7  -3  -8   24.99   16.21
  -7  -3  -8   -5.43   39.28
  -7  -3  -8    8.50   16.04
  -7  -3  -9  558.68   32.32
  -7  -3  -9  679.85  117.34
  -7  -3  -9  564.02   30.96
  -7  -3 -10 1793.41   99.81
  -7  -3 -10 1751.95   58.04
  -7  -3 -10 1706.72   36.71
  -7  -3 -11 1193.95   35.14
  -7  -3 -11 1228.06   33.02
  -7  -3 -11 1257.97   89.79
  -7  -3 -12  107.81   18.48
  -7  -3 -12  159.87   56.67
  -7  -3 -12  127.13   35.24
  -7  -3 -13   45.81   33.40
  -7  -3 -13   87.84   88.06
  -7  -3 -13   48.22   31.70
  -7  -3 -14  369.38   29.35
  -7  -3 -14  321.27   65.36
  -7  -3 -14  398.89   45.73
  -7  -3 -15   -2.64   46.82
  -7  -3 -15   30.56   37.43
  -7  -3 -15   42.35   19.27
  -7  -3 -16 2547.48  191.31
  -7  -3 -16 2334.26   72.91
  -7  -3 -16 2271.84   94.96
  -7  -3 -17  413.89   69.00
  -7  -3 -17  416.08   32.30
  -7  -3 -18    6.35   41.79
  -7  -3 -18    8.65   35.12
  -7  -3 -19   37.44   80.68
  -7  -3 -19   27.66   24.08
  -7  -3 -20   -6.67   25.07
  -7  -3 -20  -45.03   46.47
  -7  -3 -21  163.86   65.85
  -7  -3 -21  311.62   66.64
  -7  -3 -22  100.28   36.55
   7   4 -20   94.84  104.67
  -7  -4  20  172.34  175.13
   7   4 -19   34.57   75.47
  -7  -4  19  -38.13   73.54
   7   4 -18  -86.88   88.26
  -7  -4  18  -22.04   84.88
   7   4 -17  901.16  134.85
  -7  -4  17  747.43  127.92
   7   4 -16  980.33  135.27
  -7  -4  16  874.03  218.19
   7   4 -15 1393.40  147.40
  -7  -4  15 1564.53  139.35
   7   4 -14   21.74  111.14
  -7  -4  14    6.96   59.37
   7   4 -13  292.32  152.92
  -7  -4  13  242.87   79.11
   7   4 -12   10.63  129.55
  -7  -4  12  151.76  119.52
   7   4 -11  582.02  150.19
  -7  -4  11  426.88   83.23
   7   4 -10  -51.23  100.39
  -7  -4  10   65.40   54.25
   7   4  -9  324.74  127.22
  -7  -4   9  358.00   68.38
   7   4  -8  348.67  120.12
  -7  -4   8  356.74   64.56
   7   4  -7  428.57   65.69
  -7  -4   7  411.23  107.30
   7   4  -6    1.36   39.59
  -7  -4   6   36.87   36.88
   7   4  -5  491.27   57.98
  -7  -4   5  494.62   54.45
   7   4  -4 2230.48  147.57
  -7  -4   4 2338.39   88.25
   7   4  -314521.15  350.95
  -7  -4   314575.88  417.36
   7   4  -218073.84  490.67
  -7  -4   217352.88  387.40
   7   4  -1 3340.43   90.43
  -7  -4   1 3381.55   88.62
   7   4   0  217.34   27.84
  -7  -4   0  181.61   26.50
   7   4   1  646.39   56.39
  -7  -4  -1  537.24   52.58
   7   4   229856.63  676.34
  -7  -4  -227381.64  623.06
   7   4   338882.84  829.49
  -7  -4  -339556.70  898.37
   7   4   412995.19  230.58
  -7  -4  -412965.60  228.05
  -7  -4  -412487.92  333.19
  -7  -4  -5 1117.84   87.37
  -7  -4  -5 1184.29   25.36
  -7  -4  -612477.39  332.13
  -7  -4  -7 1600.97  107.10
  -7  -4  -8  -88.25   92.72
  -7  -4  -9 4502.39  157.05
  -7  -4 -10 2374.26   40.50
  -7  -4 -10 2886.36  123.06
  -7  -4 -11   -1.69   14.70
  -7  -4 -11  -99.93   83.87
  -7  -4 -11   -8.58    8.02
  -7  -4 -12 5167.71   90.81
  -7  -4 -12 5823.82  205.97
  -7  -4 -12 4993.95   87.74
  -7  -4 -13 8783.44  268.91
  -7  -4 -13 7328.15  171.35
  -7  -4 -13 7239.04  163.46
  -7  -4 -14 1470.06  165.52
  -7  -4 -14 1185.48   58.64
  -7  -4 -14 1183.72   52.11
  -7  -4 -15   30.02   45.17
  -7  -4 -15  -18.84   23.67
   7   4  16   94.01   50.56
  -7  -4 -16   52.92   51.14
  -7  -4 -16   36.48   17.65
   7   4  17   25.45   46.49
  -7  -4 -17   47.62   81.66
  -7  -4 -17   10.65   17.43
   7   4  18  372.72   70.23
  -7  -4 -18  380.99   69.59
  -7  -4 -18  285.39   49.21
   7   4  19  141.77   56.81
  -7  -4 -19  110.12   99.98
  -7  -4 -19   53.99   42.29
   7   4  20  112.24   50.59
  -7  -4 -20   -1.29   52.11
  -7  -4 -20   13.62   23.44
   7   4  21  297.61   62.99
  -7  -4 -21   14.98   62.98
  -7  -4 -21  110.09   30.87
   7   4  22   27.99   54.99
   7   4  23   85.62   61.99
   7   5 -20   69.43   89.22
  -7  -5  20  -14.89   85.11
   7   5 -19  252.17  200.49
  -7  -5  19  284.23  107.54
   7   5 -18   50.95   92.26
  -7  -5  18  156.28   86.51
   7   5 -17  513.91  117.25
  -7  -5  17  412.74  191.35
   7   5 -16   97.86   83.77
  -7  -5  16   27.55  138.15
   7   5 -15  595.96  113.67
  -7  -5  15  632.21  106.39
   7   5 -14   66.90   65.40
  -7  -5  14  -16.90   60.46
   7   5 -13  124.76   75.48
  -7  -5  13  140.90   70.70
   7   5 -12  -27.19  101.05
  -7  -5  12   29.97   53.70
   7   5 -11  691.74  163.38
  -7  -5  11  662.74  150.45
   7   5 -10 5299.84  314.82
  -7  -5  10 5175.20  191.66
   7   5  -9  180.53  106.34
  -7  -5   9   82.34   55.72
   7   5  -8 1909.03  180.28
  -7  -5   8 1849.96  103.56
   7   5  -7   32.73   85.52
  -7  -5   7   82.51   44.75
   7   5  -6  919.16  118.80
  -7  -5   6  720.98   64.50
   7   5  -5  720.14  108.62
  -7  -5   5  730.05   60.55
   7   5  -4   70.63   38.12
  -7  -5   4   91.55   62.65
   7   5  -3  750.48   56.03
  -7  -5   3  841.56   89.46
   7   5  -2 2452.77  121.89
  -7  -5   2 2452.68  117.12
   7   5  -1  352.32   33.97
  -7  -5   1  387.52   56.41
   7   5   0   51.63   21.14
  -7  -5   0   36.19   19.93
   7   5   1 3514.61   71.86
  -7  -5  -1 3514.55   70.47
   7   5   2 6433.00  136.31
  -7  -5  -2 6580.69  134.69
  -7  -5  -2 6929.16  189.65
   7   5   3 1377.80   39.95
  -7  -5  -3 1375.05   38.11
  -7  -5  -3 1215.96  149.48
   7   5   4 5228.96   70.25
  -7  -5  -4 5969.01  172.00
  -7  -5  -4 5166.57   70.08
  -7  -5  -5 3386.61  140.61
  -7  -5  -623202.27  651.52
  -7  -5  -7103981.7 3735.51
  -7  -5  -821324.23  617.09
  -7  -5  -9  129.74   59.76
  -7  -5 -10  444.73  129.05
  -7  -5 -11   59.17   59.42
   7   5  1211702.92  385.74
  -7  -5 -1212484.43  398.43
   7   5  1332954.20  964.25
  -7  -5 -1333799.14 1190.61
  -7  -5 -1329969.86  650.80
   7   5  14 2254.76  125.55
  -7  -5 -14 2393.32  131.15
  -7  -5 -14 1936.75   57.25
  -7  -5 -14 2022.35   44.43
   7   5  15  871.93   90.71
  -7  -5 -15  963.42  160.03
   7   5  16 2891.89  143.82
  -7  -5 -16 3048.57  146.80
   7   5  17  -48.41   92.78
  -7  -5 -17   39.64   29.59
  -7  -5 -17   37.42   54.64
   7   5  18   48.09   89.90
  -7  -5 -18   -2.33   31.13
  -7  -5 -18   74.29   52.16
   7   5  19  628.76  149.31
  -7  -5 -19  484.59   57.40
  -7  -5 -19  864.77   89.55
   7   5  20  104.84  113.44
  -7  -5 -20  118.59   26.26
  -7  -5 -20  212.44   68.11
   7   5  21  306.45  137.61
   7   5  22  -76.82  115.21
   7   5  23  -11.72   96.67
   7   6 -19   -2.56   85.98
  -7  -6  19  -50.41   82.12
   7   6 -18   75.20   83.91
  -7  -6  18   -7.11   83.31
   7   6 -17 -145.93  138.65
  -7  -6  17   74.78  128.83
   7   6 -16   41.54   72.45
  -7  -6  16  -61.56   65.57
   7   6 -15   11.77   66.13
  -7  -6  15   10.25   61.07
   7   6 -14    3.14   67.70
  -7  -6  14   57.28   61.44
   7   6 -13   28.36   64.15
  -7  -6  13   33.79   58.39
   7   6 -12  837.37  102.35
  -7  -6  12  711.71   92.94
   7   6 -11  351.27  142.93
  -7  -6  11  398.73  130.13
   7   6 -10 1137.89  186.18
  -7  -6  10 1374.05  169.13
   7   6  -9  307.13  119.34
  -7  -6   9  187.88  110.70
   7   6  -8   30.71   50.56
  -7  -6   8   88.20   83.26
   7   6  -7   57.95   47.04
  -7  -6   7   20.58   78.31
   7   6  -6  741.11   70.53
  -7  -6   6  714.33  113.84
   7   6  -5 1249.27   78.29
  -7  -6   5 1367.63  121.32
   7   6  -4   -2.14   31.51
  -7  -6   4   33.56   51.35
   7   6  -3  172.15   63.71
  -7  -6   3  107.05   59.11
   7   6  -2  993.93   86.91
  -7  -6   2  970.60   48.76
   7   6  -1 3336.59   86.69
  -7  -6   1 3246.40   79.71
   7   6   0 2963.60  102.85
  -7  -6   0 2828.97   65.21
   7   6   1  303.88   40.03
  -7  -6  -1  342.64   37.17
  -7  -6  -1  400.83   53.28
   7   6   2  320.36   30.19
  -7  -6  -2  396.77   53.44
  -7  -6  -2  270.39   16.12
   7   6   3   20.84   14.93
  -7  -6  -3   39.53   39.55
  -7  -6  -4 4564.22  146.51
  -7  -6  -5  202.73   56.47
  -7  -6  -6 2710.27  123.35
  -7  -6  -7   -6.92   47.91
  -7  -6  -8 1373.14  102.57
  -7  -6  -9   49.02   98.80
   7   6  10 7689.90  240.79
  -7  -6 -10 8123.64  256.44
   7   6  11 1070.26  107.52
  -7  -6 -11 1078.08  109.53
   7   6  1215658.80  482.57
  -7  -6 -1216031.57  492.48
   7   6  13 5047.66  317.68
  -7  -6 -13 5129.51  206.72
   7   6  14   29.15   97.21
  -7  -6 -14   67.97  100.39
  -7  -6 -14   34.10   13.92
   7   6  15 1029.00  100.91
  -7  -6 -15 1104.33  104.85
   7   6  16  539.64   84.15
  -7  -6 -16  413.42   36.19
  -7  -6 -16  455.72  147.81
   7   6  17 5579.27  225.37
  -7  -6 -17 5702.39  226.75
   7   6  18    3.86   55.26
  -7  -6 -18   16.12   16.48
  -7  -6 -18   85.22  101.88
   7   6  19  128.86   57.96
  -7  -6 -19    6.31   18.95
  -7  -6 -19  103.25   60.59
   7   6  20  960.25  101.90
  -7  -6 -20  622.76  103.82
   7   6  21  366.81   89.03
   7   6  22  307.90   90.21
   7   6  23  377.73   92.50
   7   7 -19  421.58  137.78
  -7  -7  19  573.28  127.01
   7   7 -18 2365.41  224.80
  -7  -7  18 2631.84  335.90
   7   7 -17 1123.12  155.42
  -7  -7  17 1096.60  249.21
   7   7 -16  337.49  191.99
  -7  -7  16  397.02  101.30
   7   7 -15  -51.35  113.37
  -7  -7  15    8.67   59.84
   7   7 -14   82.41   82.19
  -7  -7  14  193.11   76.13
   7   7 -13  220.95   82.62
  -7  -7  13  227.90   77.09
   7   7 -12  134.48   71.96
  -7  -7  12  130.30   66.49
   7   7 -11   72.09   65.06
  -7  -7  11  112.14   61.33
   7   7 -10 1301.75  194.70
  -7  -7  10 1303.46  107.12
   7   7  -9  167.23  124.34
  -7  -7   9  239.56   68.85
   7   7  -8   30.79   54.16
  -7  -7   8   34.31   50.70
   7   7  -7  119.16   54.48
  -7  -7   7   83.05   52.06
   7   7  -6   46.87   45.04
  -7  -7   6   29.59   43.03
   7   7  -5 6472.23  196.49
  -7  -7   5 6639.40  184.29
   7   7  -4  424.92   53.75
  -7  -7   4  471.29   50.30
   7   7  -3 1864.81   77.16
  -7  -7   3 1923.90  115.83
   7   7  -2  368.07   40.42
  -7  -7   2  380.48   38.37
   7   7  -1 1344.06   54.48
  -7  -7   1 1400.19   70.55
  -7  -7   1 1450.98   81.17
   7   7   0  140.22   24.67
  -7  -7   0   71.04   39.94
  -7  -7   0  131.67   38.66
   7   7   1 3445.60  103.03
  -7  -7  -1 3599.51  176.80
   7   7   2   10.04   12.75
  -7  -7  -2    5.37   34.49
   7   7   3   38.39   18.02
  -7  -7  -3   56.17   40.25
   7   7   4  494.78   15.91
   7   7   4  460.25   13.84
  -7  -7  -4  618.88   61.45
  -7  -7  -5   -3.64   38.16
  -7  -7  -6 4257.05  232.49
  -7  -7  -7  160.98   58.62
  -7  -7  -8  661.03   81.57
   7   7   9 1615.01  107.73
  -7  -7  -9 1543.34  110.06
   7   7  10  180.84   64.32
  -7  -7 -10  158.84   66.01
   7   7  11    8.41   90.16
  -7  -7 -11  -38.46   92.92
   7   7  12 4368.21  179.92
  -7  -7 -12 4622.24  194.13
   7   7  13  650.09   87.79
  -7  -7 -13  660.47  159.83
   7   7  14 1594.60  117.28
  -7  -7 -14 1622.80  120.74
   7   7  15   26.15   50.94
  -7  -7 -15    5.77    7.80
  -7  -7 -15   -0.29   91.78
   7   7  16  752.63   96.48
  -7  -7 -16  688.60   99.74
   7   7  17  -27.75   57.44
  -7  -7 -17  -15.70   11.95
  -7  -7 -17  104.34  102.05
   7   7  18  213.43  121.35
  -7  -7 -18  281.09   73.80
  -7  -7 -18   62.32   31.15
   7   7  19  546.98  160.57
  -7  -7 -19  489.64  100.14
   7   7  20  178.33  135.13
   7   7  21  -25.25  113.34
   7   7  22 1066.73  129.26
   7   8 -18    4.49  137.90
  -7  -8  18    1.56  129.59
   7   8 -17 3430.67  242.27
  -7  -8  17 3509.22  236.52
   7   8 -16 2407.90  193.39
  -7  -8  16 2327.19  182.03
   7   8 -15  161.09   90.96
  -7  -8  15  158.85   83.86
   7   8 -14  325.87  173.96
  -7  -8  14  453.37   95.05
   7   8 -13 1044.56  120.88
  -7  -8  13 1111.70  114.85
   7   8 -12   31.11   60.20
  -7  -8  12   19.35   57.52
   7   8 -11  213.81   74.01
  -7  -8  11  166.95   69.73
   7   8 -10 1061.24  110.99
  -7  -8  10 1209.05  105.42
   7   8  -911045.33  540.97
  -7  -8   911610.03  382.11
   7   8  -824556.91  802.84
  -7  -8   823314.38  722.91
   7   8  -724582.54  760.37
  -7  -8   723937.78  695.40
   7   8  -6 7951.06  267.45
  -7  -8   6 7897.03  347.60
   7   8  -5 1981.15  104.47
  -7  -8   5 1997.59  159.03
   7   8  -4   48.29   62.60
  -7  -8   4    2.25   29.41
  -7  -8   4   13.47   32.50
   7   8  -3  359.37   81.31
  -7  -8   3  447.47   77.97
  -7  -8   3  437.16   77.64
   7   8  -2  544.43   77.26
  -7  -8   2  472.45   50.26
  -7  -8   2  587.81   45.04
   7   8  -1  355.53   36.88
  -7  -8   1  428.23   78.91
   7   8   0    7.98   20.96
  -7  -8   0   28.39   30.85
   7   8   1  178.50   23.98
  -7  -8  -1  152.26   42.68
   7   8   2  293.84   38.95
  -7  -8  -2  340.39   50.95
   7   8   3  103.72   26.35
   7   8   3  116.68   23.48
  -7  -8  -3   87.17   45.94
   7   8   4 1032.10   32.27
   7   8   4 1032.89   23.65
  -7  -8  -4 1092.26  132.88
   7   8   5 1824.44   30.91
   7   8   5 1805.13   31.97
  -7  -8  -5 2106.37  100.53
  -7  -8  -6   54.26   85.05
  -7  -8  -7   15.97   46.10
   7   8   8  775.51   85.14
  -7  -8  -8  919.39  149.49
   7   8   9  115.79   56.75
  -7  -8  -9   70.30   59.06
   7   8  10    8.94   90.53
  -7  -8 -10  -47.93   93.08
   7   8  11 2087.16  127.12
  -7  -8 -11 2220.29  131.88
   7   8  12  819.52   94.05
  -7  -8 -12  815.37  169.70
   7   8  13  -10.43   56.03
  -7  -8 -13  -52.27   57.17
   7   8  14  195.72  129.74
  -7  -8 -14  249.50  132.18
   7   8  15   64.60   90.21
  -7  -8 -15    2.79    7.07
  -7  -8 -15   24.47   53.09
   7   8  16   16.27   95.08
   7   8  16   17.60   12.02
  -7  -8 -16  -11.55   15.72
  -7  -8 -16  -24.33   56.31
   7   8  17   37.26   58.35
   7   8  17    8.34   15.28
  -7  -8 -17   16.67   18.01
  -7  -8 -17   17.49   60.79
   7   8  18  -32.05   61.99
   7   8  18   24.99   18.42
  -7  -8 -18   68.48   67.44
   7   8  19  416.39   93.61
   7   8  20   -1.16   56.10
   7   8  21   41.25   68.89
   7   8  22  328.55  172.95
   7   9 -18  470.00  133.73
  -7  -9  18  564.25  121.98
   7   9 -17   62.64  106.10
  -7  -9  17  216.84   95.72
   7   9 -16  756.58  236.63
  -7  -9  16  945.31  127.83
   7   9 -15  470.11  107.60
  -7  -9  15  413.94  101.14
   7   9 -14   71.36   77.05
  -7  -9  14   85.17   72.09
   7   9 -13    5.34   55.55
  -7  -9  13   -3.66   52.31
   7   9 -12  112.02  121.88
  -7  -9  12   70.89   64.27
   7   9 -11   89.65   68.91
  -7  -9  11   72.75   62.80
   7   9 -10  363.86   81.05
  -7  -9  10  242.46   74.43
   7   9  -9   58.65   61.99
  -7  -9   9   -1.40   56.32
   7   9  -8 5837.30  393.53
  -7  -9   8 6056.45  241.27
   7   9  -738921.72 1206.06
  -7  -9   733513.33  991.25
  -7  -9   739419.11 1426.80
   7   9  -630010.59  908.15
  -7  -9   626905.22  864.42
  -7  -9   631088.35  885.12
   7   9  -5 1083.59   98.43
  -7  -9   5 1273.15   71.56
  -7  -9   5 1295.82   97.20
   7   9  -416390.44  544.00
  -7  -9   415450.78  464.18
   7   9  -3 4813.96  144.36
  -7  -9   3 4705.95  134.62
   7   9  -2  294.26   42.27
  -7  -9   2  263.63   71.82
   7   9  -1  245.88   37.89
  -7  -9   1  316.87   43.31
   7   9   0 1303.92   89.00
  -7  -9   0 1177.29  117.02
   7   9   1 7530.10  215.82
  -7  -9  -1 7663.65  206.80
   7   9   2 5703.85  161.14
   7   9   2 5710.87  120.01
  -7  -9  -2 5962.24  253.51
   7   9   3 4788.87   98.48
   7   9   3 4747.98   94.97
  -7  -9  -3 5218.30  160.26
   7   9   4 2370.73   66.47
   7   9   4 2308.13   50.28
  -7  -9  -4 2603.06  174.16
   7   9   5   -1.21    8.81
   7   9   5   -8.40   15.89
  -7  -9  -5   38.81   38.31
   7   9   6   14.08   11.79
   7   9   6   20.75   13.10
  -7  -9  -6  -37.67   79.29
   7   9   7  422.88   13.18
   7   9   7  402.53   14.30
   7   9   7  491.91   69.70
  -7  -9  -7  450.53   71.25
   7   9   8    1.01   51.18
  -7  -9  -8   69.05   53.16
   7   9   9 2210.58  125.39
  -7  -9  -9 2219.17  130.55
   7   9  10 1654.56  116.97
  -7  -9 -10 1741.21  119.37
   7   9  11  371.85   80.85
  -7  -9 -11  435.19   82.60
   7   9  12  113.09  119.88
  -7  -9 -12  169.53   70.78
   7   9  13  235.36  132.78
  -7  -9 -13  269.84  137.69
   7   9  14   -1.44    7.14
   7   9  14   41.43   52.38
  -7  -9 -14   -6.87    9.93
  -7  -9 -14  -12.79   53.49
   7   9  15   82.61   12.76
   7   9  15  183.17   67.73
  -7  -9 -15  164.44  124.61
   7   9  16   21.04   12.63
   7   9  16  -40.23   58.59
  -7  -9 -16  -25.00   63.23
  -7  -9 -16    4.72   17.09
   7   9  17  121.21   11.64
   7   9  17  171.42   75.92
  -7  -9 -17  142.95   82.13
   7   9  18  276.00   83.59
  -7  -9 -18   69.75   88.84
   7   9  19   48.19   72.15
   7   9  20   21.23   66.35
   7   9  21   67.67   78.64
   7  10 -17  101.45   87.09
  -7 -10  17   12.71   83.72
   7  10 -16  -14.12   70.45
  -7 -10  16   22.93   67.83
   7  10 -15  118.58   84.78
  -7 -10  15   66.43   80.88
   7  10 -14  183.62  158.27
  -7 -10  14  206.88   86.19
   7  10 -13  -39.11   65.60
  -7 -10  13   12.34   16.58
  -7 -10  13   83.15   61.34
   7  10 -12  142.03   77.98
  -7 -10  12  126.86   37.73
  -7 -10  12  203.77   74.14
   7  10 -11  -59.11  103.68
  -7 -10  11   15.98   31.50
  -7 -10  11   25.87   55.50
   7  10 -10 1195.42  114.24
  -7 -10  10 1113.21   47.94
  -7 -10  10 1361.52  115.26
   7  10  -9  -29.81   54.85
  -7 -10   9   33.92   21.14
  -7 -10   9  -38.05   55.79
   7  10  -8 2739.58  156.99
  -7 -10   8 2677.98  120.08
   7  10  -710772.56  478.99
  -7 -10   7 9072.95  228.67
   7  10  -613040.65  393.64
  -7 -10   611765.89  355.66
   7  10  -5 2025.12  115.17
  -7 -10   5 2098.25  121.26
   7  10  -4  822.97  116.69
  -7 -10   4  753.87   50.27
   7  10  -3  574.03   98.97
  -7 -10   3  581.80   77.48
   7  10  -2  366.39   46.69
  -7 -10   2  347.95   42.15
   7  10  -1  374.80   43.17
  -7 -10   1  479.05   77.41
   7  10   0  694.33   45.56
   7  10   0  760.35   77.53
  -7 -10   0  688.64   55.45
   7  10   1 1416.57   57.58
   7  10   1 1409.96   56.06
  -7 -10  -1 1515.43   76.87
   7  10   2 2925.69   80.00
   7  10   2 3021.94   77.96
  -7 -10  -2 3259.63  179.14
   7  10   3 3700.49  122.59
   7  10   3 3941.69  121.90
  -7 -10  -3 4206.96  142.51
   7  10   4 5374.52  110.91
   7  10   4 5547.71  144.44
  -7 -10  -4 6081.29  267.89
   7  10   5  135.72   31.49
   7  10   5  144.64   31.26
  -7 -10  -5  145.07   55.21
   7  10   6 1773.17   38.20
   7  10   6 1748.67   54.77
   7  10   6 1834.86  109.31
  -7 -10  -6 1888.71  107.43
   7  10   7   36.53   19.03
   7  10   7   39.25   18.56
   7  10   7   97.79   52.27
  -7 -10  -7   92.21   52.53
   7  10   8 1277.09   36.65
   7  10   8 1152.21   34.80
   7  10   8 1223.52  172.10
  -7 -10  -8 1519.52  102.89
   7  10   9   92.12   14.32
   7  10   9  158.34   60.02
   7  10   9   80.99    8.73
  -7 -10  -9   89.50  107.02
   7  10  10  100.77   13.15
   7  10  10   69.81   63.65
   7  10  10   97.00   14.00
  -7 -10 -10  110.82   67.16
   7  10  11 1953.17  218.02
   7  10  11 1819.96   35.72
   7  10  11 1772.11   36.51
  -7 -10 -11 2191.06  132.27
   7  10  12  566.00  159.36
   7  10  12  492.98   18.89
  -7 -10 -12  517.19   94.68
   7  10  13 1585.95  129.32
  -7 -10 -13 1607.97  133.09
   7  10  14  653.08  102.00
  -7 -10 -14  699.03  179.17
   7  10  15   24.66   13.15
   7  10  15  -54.70   62.15
  -7 -10 -15    8.20   16.99
  -7 -10 -15   53.01   66.54
   7  10  16   19.01   14.70
   7  10  16   73.55   64.38
  -7 -10 -16  -25.20   69.48
   7  10  17  198.69   79.72
  -7 -10 -17    3.80   83.59
   7  10  18   14.37   66.12
   7  10  19  380.34  104.52
   7  10  20   88.36   84.52
   7  10  21  -27.72   76.91
   7  11 -16  404.56  204.42
   7  11 -15  290.74  108.43
   7  11 -14  136.99   88.03
   7  11 -13   47.70  127.80
   7  11 -12   55.70   58.68
  -7 -11  12    4.44   13.83
   7  11 -11    4.63   62.18
  -7 -11  11   32.93   16.49
   7  11 -10  700.92   96.84
  -7 -11  10  549.32   32.32
   7  11  -9  226.04  125.17
  -7 -11   9  175.32   40.87
   7  11  -8   63.63   54.61
  -7 -11   8   26.29   35.89
   7  11  -7  618.97   82.15
  -7 -11   7  643.66   38.16
   7  11  -6   76.31   97.20
  -7 -11   6  123.00   27.32
   7  11  -5   16.68   44.82
  -7 -11   5   65.89   42.80
   7  11  -4    6.16   40.09
  -7 -11   4   38.56   24.04
   7  11  -3   39.23   71.49
  -7 -11   3   91.86   29.04
   7  11  -2  373.56   49.21
  -7 -11   2  401.58   69.11
   7  11  -1 1109.89   63.94
   7  11  -1 1170.84   63.28
  -7 -11   1 1144.50   61.57
   7  11   0   20.78   52.07
   7  11   0    8.54   28.67
  -7 -11   0   80.47   33.48
   7  11   1  428.73   42.40
   7  11   1  487.72   40.77
  -7 -11  -1  542.10   91.64
   7  11   2 1181.98   53.30
   7  11   2 1127.88   54.08
  -7 -11  -2 1374.58   78.51
   7  11   3 6545.33  201.26
   7  11   3 6937.39  205.21
  -7 -11  -3 7197.28  209.52
   7  11   4 8099.06  178.64
   7  11   4 8690.37  185.04
  -7 -11  -4 9261.40  351.42
   7  11   5   53.69   37.69
   7  11   5  110.91   37.72
  -7 -11  -5  152.77   53.06
   7  11   6  101.47   18.83
   7  11   6  115.99   31.25
   7  11   6  143.90   57.15
  -7 -11  -6  136.60   54.12
   7  11   7  581.62   41.42
   7  11   7  670.21   41.50
   7  11   7  659.74  142.03
  -7 -11  -7  695.35  134.50
   7  11   8  490.67   35.96
   7  11   8  529.65   36.58
   7  11   8  551.77   80.62
  -7 -11  -8  635.34   79.25
   7  11   9  217.98   16.10
   7  11   9  288.00   28.17
   7  11   9  154.98   71.44
  -7 -11  -9  192.12   69.74
   7  11  10  454.67   86.89
   7  11  10  426.81   31.34
   7  11  10  486.17   32.01
  -7 -11 -10  396.47   88.98
   7  11  11 4175.20  307.98
   7  11  11 4070.32   71.82
  -7 -11 -11 4371.53  198.30
   7  11  12  968.64  120.13
   7  11  12 1074.96   40.77
  -7 -11 -12 1149.04  121.29
   7  11  13  -49.23   65.17
  -7 -11 -13    9.96   67.39
   7  11  14 3588.19  194.42
  -7 -11 -14 3657.26  205.10
   7  11  15  253.26   14.81
   7  11  15  269.88   89.19
  -7 -11 -15  304.34   96.66
   7  11  16  307.20   93.74
   7  11  17  232.36   92.01
   7  11  18  176.80   89.48
   7  11  19  -20.10   74.79
   7  11  20   26.76   81.54
   7  12 -14  556.78  210.80
   7  12 -13  716.26  122.62
   7  12 -12   94.98   76.24
   7  12 -11   22.89  109.94
   7  12 -10  749.87   96.24
  -7 -12  10  494.03   43.47
   7  12  -9  752.68   95.31
  -7 -12   9  583.68   49.00
   7  12  -8  185.36  113.34
  -7 -12   8  132.57   37.13
   7  12  -7  102.88   58.02
  -7 -12   7   98.99   21.99
   7  12  -6  -10.06   42.56
  -7 -12   6   -2.93   18.49
   7  12  -5  536.38   69.34
  -7 -12   5  494.70   36.11
   7  12  -4  -20.25   71.05
  -7 -12   4   41.28   40.33
   7  12  -3  829.82   69.79
   7  12  -3  938.78   69.66
  -7 -12   3  897.60   76.78
   7  12  -2  201.12   70.60
   7  12  -2   86.43   68.52
  -7 -12   2   81.74   30.63
   7  12  -1   18.01   32.07
   7  12  -1   -5.00   31.72
  -7 -12   1   39.53   28.03
   7  12   0 1631.41   73.44
   7  12   0 1587.68   71.15
  -7 -12   0 1735.04  115.81
   7  12   1   30.29   28.43
  -7 -12  -1   62.65   34.00
   7  12   2  456.22   40.85
   7  12   2  448.25   39.68
  -7 -12  -2  512.99   53.73
   7  12   3  426.97   36.30
   7  12   3  433.17   63.16
  -7 -12  -3  488.06   57.80
   7  12   4   78.52   25.67
   7  12   4   78.17   42.30
  -7 -12  -4  107.20   78.10
   7  12   5   21.38   18.84
   7  12   5   -1.29   31.79
   7  12   5    0.57   42.67
  -7 -12  -5  -39.87   38.72
   7  12   6  140.52   38.10
   7  12   6  127.42   37.09
   7  12   6   83.43   57.53
  -7 -12  -6   37.58   51.80
   7  12   7   -5.00   28.33
   7  12   7   20.42   16.40
   7  12   7  -24.57   84.75
  -7 -12  -7  -22.36   76.21
   7  12   8   64.51   17.77
   7  12   8   49.26   29.94
   7  12   8   52.74   57.22
  -7 -12  -8   41.53   53.06
   7  12   9  -18.22   12.96
   7  12   9   52.48   47.15
   7  12   9   30.01   23.05
  -7 -12  -9   40.24   44.14
   7  12  10  705.47   43.32
   7  12  10  583.28  164.89
   7  12  10  684.78   27.39
  -7 -12 -10  846.95  153.98
   7  12  11  104.52  121.42
   7  12  11   98.60   27.35
  -7 -12 -11   66.53   70.15
   7  12  12  104.78   75.94
   7  12  12  136.63   27.92
  -7 -12 -12  157.44   79.34
   7  12  13  824.37  108.66
   7  12  13  644.60   25.46
  -7 -12 -13  852.27  113.73
   7  12  14 1077.44  110.66
  -7 -12 -14   58.96  114.88
   7  12  15  -36.57   71.02
   7  12  16  -39.75   73.48
   7  12  17   56.08   78.57
   7  12  18   89.69   88.50
   7  12  19   11.31   76.22
   7  13 -13  122.28   89.85
   7  13 -12    8.87  114.33
   7  13 -11   71.75   72.29
   7  13 -10  436.71   92.45
   7  13  -9    6.62   94.62
   7  13  -8   69.88   53.72
  -7 -13   8   12.16   14.31
   7  13  -7   34.46   45.38
  -7 -13   7   -1.59   14.16
   7  13  -6    0.26   91.77
  -7 -13   6   49.43   19.49
   7  13  -5   68.10   52.72
   7  13  -5  141.51   54.07
  -7 -13   5   87.80   23.33
   7  13  -4 1577.88  100.70
   7  13  -4 1736.84   98.56
  -7 -13   4 1489.06   57.37
   7  13  -3  146.35   85.60
   7  13  -3  144.75   48.04
  -7 -13   3  129.01   29.12
   7  13  -2  347.75   92.72
   7  13  -2  398.50   55.45
  -7 -13   2  471.52   65.64
   7  13  -1   34.29   29.84
   7  13  -1  -19.36   28.12
  -7 -13   1  -19.68   40.32
   7  13   0   72.41   64.24
   7  13   0   98.61   36.20
  -7 -13   0   90.54   33.98
   7  13   1  204.23   40.52
   7  13   1  274.30   67.27
  -7 -13  -1  241.12   43.12
   7  13   2  393.08   72.61
   7  13   2  522.78   75.03
  -7 -13  -2  439.31   52.68
   7  13   3  483.09   43.95
   7  13   3  511.22   70.60
  -7 -13  -3  563.85   98.05
   7  13   4  496.31   42.38
   7  13   4  519.93   40.25
  -7 -13  -4  732.15  105.35
   7  13   5  820.71   73.11
   7  13   5  793.24   43.88
   7  13   5  784.27   83.83
  -7 -13  -5  877.06   74.25
   7  13   6  124.84   27.70
   7  13   6  146.11   26.99
   7  13   6  190.29   59.76
  -7 -13  -6  121.05   52.99
   7  13   7  269.43   48.90
   7  13   7  284.72   47.43
   7  13   7  283.92  122.56
  -7 -13  -7  278.55   61.71
   7  13   8  410.30   30.52
   7  13   8  385.01   29.85
   7  13   8  502.14   79.85
  -7 -13  -8  319.00  123.17
   7  13   9  100.14   36.53
   7  13   9   85.57   64.26
   7  13   9   77.96   36.65
  -7 -13  -9  104.42   60.02
   7  13  10   54.38   32.92
   7  13  10  108.99  113.66
   7  13  10   68.62   19.95
  -7 -13 -10  104.98   61.24
   7  13  11   75.54   18.50
   7  13  11  129.95  119.16
  -7 -13 -11   31.31   67.57
   7  13  12 1157.73  118.38
   7  13  12 1045.62   55.62
   7  13  13  746.40  110.79
   7  13  13  712.70   44.48
   7  13  14  215.35   88.92
   7  13  15  -71.00   76.67
   7  13  16   40.94   75.71
   7  13  17  -41.01   78.88
   7  14 -11   21.99   66.59
   7  14 -10   36.79  116.69
   7  14  -9  144.78   74.16
   7  14  -8   -0.71   49.61
   7  14  -7   34.22  100.32
   7  14  -7   43.46   54.40
   7  14  -6  257.51   65.29
   7  14  -6  230.00   62.71
  -7 -14   6  174.70   19.45
   7  14  -5  -92.07   49.37
   7  14  -5   43.47   47.28
  -7 -14   5   42.19   18.34
   7  14  -4  210.25  106.98
   7  14  -4  131.03   59.50
  -7 -14   4  236.00   28.22
   7  14  -3  155.95   50.59
   7  14  -3  104.92   82.70
  -7 -14   3   74.42   26.93
   7  14  -2  431.97   62.29
   7  14  -2  420.59   58.43
  -7 -14   2  421.52   38.96
   7  14  -1  -36.54   31.68
  -7 -14   1   16.49   23.29
   7  14   0  292.77   50.89
   7  14   0  370.24   82.13
  -7 -14   0  349.06   41.35
   7  14   1   50.15   38.63
   7  14   1  116.04   63.37
  -7 -14  -1  124.89   35.31
   7  14   2  -21.59   45.34
   7  14   2   -5.54   24.42
  -7 -14  -2   14.13   26.64
   7  14   3  797.42   56.93
   7  14   3  809.66   53.50
  -7 -14  -3  874.25  108.84
   7  14   4  -10.80   53.23
   7  14   4   35.72   27.78
  -7 -14  -4   39.71   70.67
   7  14   5 1167.46   61.54
   7  14   5 1196.87   58.20
   7  14   5 1244.93  102.16
  -7 -14  -5 1247.43   90.50
   7  14   6 2270.80  122.81
   7  14   6 2450.33  120.37
   7  14   6 2569.79  139.07
  -7 -14  -6 2654.11  127.01
   7  14   7  252.41   33.32
   7  14   7  176.84   53.97
   7  14   7  201.23  122.41
  -7 -14  -7  189.51   63.63
   7  14   8   45.84   24.87
   7  14   8   63.36   39.83
   7  14   8   46.20   59.09
  -7 -14  -8   61.06   53.34
   7  14   9   41.32   20.01
   7  14   9   69.15   59.99
   7  14   9   83.16   40.28
  -7 -14  -9    0.16   56.57
   7  14  10   -1.97   14.10
   7  14  10   29.87   98.34
   7  14  10   40.41   19.77
   7  14  11    0.55   18.01
   7  14  11   87.20   97.62
   7  14  11  -18.43   18.35
   7  14  12  -34.52   52.33
   7  14  12    3.12   15.13
   7  14  13   61.23   71.09
   7  14  14  115.04   79.68
   7  14  15  -50.97   76.11
   7  14  16   33.90   76.00
   7  15  -9   58.01   67.60
   7  15  -9  110.87   72.37
   7  15  -8  345.65   89.52
   7  15  -8  452.56  141.63
   7  15  -7   95.06  122.89
   7  15  -7  151.95   66.92
   7  15  -6 1200.29   99.65
   7  15  -6 1033.17  108.75
   7  15  -5   83.63   60.48
   7  15  -5  128.93   91.59
   7  15  -4  -10.12   78.45
   7  15  -4   85.05   40.36
  -7 -15   4  -13.27   10.49
   7  15  -3 1072.44   93.99
   7  15  -3 1238.36  130.37
   7  15  -2  417.23   54.12
   7  15  -2  229.42  111.07
   7  15  -1   38.60   82.66
   7  15  -1  144.18   65.18
   7  15   0  227.71   47.57
   7  15   0  166.89   35.82
  -7 -15   0   84.58   24.10
   7  15   1   -5.44   66.21
   7  15   1   31.10   25.89
  -7 -15  -1   67.82   27.12
   7  15   2   59.65   40.55
  -7 -15  -2   95.96   35.58
   7  15   3   23.98   34.20
  -7 -15  -3   15.89   35.22
   7  15   4   18.30   61.05
   7  15   4  -80.46   30.28
  -7 -15  -4   -2.48   40.05
   7  15   5 3058.05  114.52
   7  15   6 5198.84  226.58
   7  15   6 5772.12  235.53
   7  15   7 1082.90   65.82
   7  15   7 1099.01  191.46
   7  15   8 3016.45   99.42
   7  15   8 3273.03  171.97
   7  15   9 1102.41  115.28
   7  15   9 1026.42   90.11
   7  15  10  740.93   98.51
   7  15  10  582.92   42.23
   7  15  11    1.89   10.99
   7  15  11  -96.56   92.21
   7  15  11   -3.77   18.92
   7  15  12  -61.72   68.93
   7  15  13  116.75   77.63
   7  15  14  132.44   85.18
   7  16  -6 1885.90  142.83
   7  16  -5  205.89  106.89
   7  16  -5   19.38   47.25
   7  16  -4  896.38   70.15
   7  16  -4    0.56   30.92
   7  16  -3  903.71   66.40
   7  16  -3  -17.81   29.18
   7  16  -2    7.28   77.75
   7  16  -2   15.42   22.20
   7  16  -1   70.82   43.71
   7  16  -1  -13.98   35.83
   7  16   0  514.93   47.67
   7  16   0  -42.84   21.96
   7  16   1   -9.67   65.54
   7  16   1   10.24   30.50
   7  16   2  168.75   47.15
   7  16   2   33.76   35.24
   7  16   3  913.69   73.20
   7  16   4 4473.66  222.80
   7  16   5  371.85   42.47
   7  16   5   -1.91   19.16
   7  16   6   26.51   54.86
   7  16   6   -6.63   24.95
   7  16   6  -13.89   49.12
   7  16   7 4716.46  210.24
   7  16   7 5219.02  225.26
   7  16   8  436.82   48.04
   7  16   8  335.19  158.16
   7  16   9   98.28   47.84
   7  16   9    9.52   25.53
   7  16   9   15.79   59.67
   7  16  10   10.99   26.36
   7  16  10  171.13   67.75
   7  16  10  101.04   28.74
   7  16  11  374.03   91.44
   7  17  -1  -12.80   45.01
   7  17  -1   14.48   21.28
   7  17   0  -15.16   44.72
   7  17   0  -23.27   36.27
   7  17   1  120.48   73.35
   7  17   1    1.40   19.86
   7  17   2  229.30   51.00
   7  17   2   24.72   21.60
   7  17   3 1862.86   82.72
   7  17   3   39.87   49.24
   7  17   4 5779.80  287.27
   7  17   5 1202.57   85.19
   7  17   6  788.40   49.46
   7  17   6    6.79   22.20
   8  -9  -3  535.09  226.64
  -8   9   3  621.73  137.89
   8  -9  -2  189.91  107.04
  -8   9   2  181.29  109.48
   8  -9  -1  818.03  145.59
  -8   9   1  876.66  149.41
   8  -9   0 1771.22  178.89
  -8   9   0 1890.46  312.63
   8  -9   1  -82.80   91.71
  -8   9  -1  -32.06   95.13
  -8   9  -2   51.91  161.11
  -8   9  -3 1122.30  163.70
  -8   9  -4 2684.40  212.64
  -8   9  -5  837.06  250.85
   8  -8  -8  238.97  119.30
  -8   8   8  314.64  122.05
   8  -8  -7   15.77   87.09
  -8   8   7   80.40  154.95
   8  -8  -6  260.58  189.88
  -8   8   6  233.11  109.31
   8  -8  -5  -33.38   76.03
  -8   8   5   20.03   76.35
   8  -8  -4 2024.66  305.94
  -8   8   4 2313.61  190.03
   8  -8  -3  -13.41   86.68
  -8   8   3 -163.92   94.57
   8  -8  -2  104.67   84.10
  -8   8   2   23.78   90.09
   8  -8  -1 1620.77  171.39
  -8   8   1 1870.48  168.84
   8  -8   0 1024.79  149.13
  -8   8   0 1253.84  258.31
   8  -8   1   45.90  143.82
  -8   8  -1   35.68   86.13
   8  -8   2 1077.94  141.01
  -8   8  -2 1055.46  245.33
  -8   8  -3   35.99   77.29
  -8   8  -4   33.00   75.13
  -8   8  -5  187.38   91.56
  -8   8  -6    2.33   63.90
  -8   8  -7 1323.71  239.27
  -8   8  -8  106.38   87.69
  -8   8  -9 1455.77  151.56
   8  -7 -10  719.22  142.35
  -8   7  10  692.47  144.50
   8  -7  -9   75.92   90.71
  -8   7   9   34.70   94.37
   8  -7  -8  275.29  112.34
  -8   7   8  371.85  117.80
   8  -7  -7 1552.62  270.90
  -8   7   7 1357.11  164.37
   8  -7  -6 -119.72   87.96
  -8   7   6  -59.24   90.18
   8  -7  -5  -66.57   75.74
  -8   7   5   14.78   77.83
   8  -7  -4   18.90   72.30
  -8   7   4   19.31   73.58
   8  -7  -3   90.43   85.00
  -8   7   3  133.38   86.76
   8  -7  -2   56.17  139.29
  -8   7   2   90.27  140.80
   8  -7  -1 1290.32  135.50
  -8   7   1 1331.64  140.99
   8  -7   0  369.93  173.07
  -8   7   0  378.73  178.28
   8  -7   1    6.35   63.68
  -8   7  -1   12.01   64.72
   8  -7   2   95.31   76.37
  -8   7  -2   13.78  134.57
   8  -7   3  767.37  114.14
  -8   7  -3  847.60  115.19
  -8   7  -4   15.17  113.06
  -8   7  -5  230.00   85.96
  -8   7  -6   94.03   74.23
  -8   7  -7  263.81  151.04
  -8   7  -8  169.56   81.63
  -8   7  -9 1374.41  226.79
  -8   7 -10 2863.99  146.33
  -8   7 -10   -8.94  123.81
  -8   7 -11  405.41  110.84
  -8   7 -11  796.07  109.38
  -8   7 -12  198.41  128.94
  -8   7 -12   -2.99  128.48
   8  -6 -12   -0.10  203.05
  -8   6  12  378.88  204.34
   8  -6 -11 3882.91  278.46
  -8   6  11 4610.64  281.77
   8  -6 -10  544.56  140.11
  -8   6  10  731.65  239.48
   8  -6  -9  102.61   95.25
  -8   6   9   98.63   93.48
   8  -6  -8  175.82  182.78
  -8   6   8  436.45  187.50
   8  -6  -7  288.25   99.58
  -8   6   7  245.16  103.89
   8  -6  -6   28.79   76.93
  -8   6   6   87.67  136.69
   8  -6  -5  419.27  194.71
  -8   6   5  573.36  112.20
   8  -6  -4  269.22   94.42
  -8   6   4  247.58  166.73
   8  -6  -3  -82.35  122.14
  -8   6   3   -8.89   70.87
   8  -6  -2 1285.39  134.12
  -8   6   2 1462.72  230.21
   8  -6  -1  246.19  154.34
  -8   6   1  277.16   91.72
   8  -6   0  -15.57   55.59
  -8   6   0   57.95  100.31
   8  -6   1  303.20  156.37
  -8   6  -1  366.37   90.00
   8  -6   2  767.65  105.28
  -8   6  -2  781.86  183.09
   8  -6   3  198.75   79.96
  -8   6  -3  277.79   82.65
  -8   6  -4   76.60  119.57
  -8   6  -5  663.67   99.36
  -8   6  -6  133.96  127.48
  -8   6  -7  796.70  102.53
  -8   6  -8  -46.19   63.21
  -8   6  -9    4.60  118.80
  -8   6  -9  102.75   33.69
  -8   6 -10 1348.68  117.11
  -8   6 -10 1109.59   61.35
  -8   6 -11  -35.86   51.96
  -8   6 -11    5.05   23.15
  -8   6 -11   15.32   50.68
  -8   6 -12   15.69   49.72
  -8   6 -12   -2.25   21.32
  -8   6 -12    1.70   85.77
  -8   6 -13  493.93   79.94
  -8   6 -13   -1.11   78.83
  -8   6 -14   -3.56   67.11
  -8   6 -14  178.28   67.00
   8  -5 -14    0.79   76.11
  -8   5  13  312.88  118.17
   8  -5 -12    3.80  229.36
  -8   5  12  731.37  131.17
   8  -5 -11   -2.76   93.77
  -8   5  11  184.01   93.83
   8  -5 -10    1.11   73.79
  -8   5  10  -25.37   73.24
   8  -5  -9    2.99  173.47
  -8   5   9  284.10   97.14
   8  -5  -8  617.87  116.76
  -8   5   8  521.71  114.85
   8  -5  -7  124.74   80.95
  -8   5   7   25.99   80.26
   8  -5  -6    0.27  110.65
  -8   5   6    4.89   63.50
   8  -5  -5  140.22   81.52
  -8   5   5  145.83   82.21
   8  -5  -4  929.20  114.13
  -8   5   4  895.93  115.71
   8  -5  -3  238.42   91.88
  -8   5   3  352.24   91.86
   8  -5  -2 1211.42  122.13
  -8   5   2  988.60  122.64
   8  -5  -1 1284.94  125.37
  -8   5   1 1305.91  125.19
   8  -5   0  397.58  154.12
  -8   5   0  370.92   90.04
   8  -5   1  239.44   75.57
  -8   5  -1  182.71   78.28
   8  -5   2 1594.09  122.92
  -8   5  -2 1770.20  208.33
   8  -5   3  417.72  142.03
  -8   5  -3  357.07   81.72
   8  -5   4  367.64   80.81
  -8   5  -4  515.75  141.79
  -8   5  -5  440.30   82.81
  -8   5  -6  331.44  137.88
  -8   5  -7 2180.50  136.90
  -8   5  -8  -23.54   98.98
  -8   5  -9  -41.38   54.14
  -8   5  -9  -14.88   31.00
  -8   5 -10   64.50   53.64
  -8   5 -10  -51.25   29.58
  -8   5 -11   39.57   95.58
  -8   5 -11   33.09   28.80
  -8   5 -11    8.05   55.62
  -8   5 -12  458.97   79.08
  -8   5 -12  384.22   42.27
  -8   5 -12    4.84  131.66
  -8   5 -13  381.66   40.23
  -8   5 -13  622.73   79.05
  -8   5 -13   15.59   76.95
  -8   5 -14    5.97   49.57
  -8   5 -14   21.14   84.86
  -8   5 -15   15.27  117.07
  -8   5 -15  252.69   68.37
  -8   5 -16   -1.70   51.40
  -8   5 -16   37.23   50.25
   8  -4 -15    5.38   83.95
  -8   4  14  205.08  105.87
   8  -4 -12   -0.49   72.86
  -8   4  12   18.01   71.00
   8  -4 -11   -2.71   85.15
  -8   4  11  121.66   80.99
   8  -4 -10  816.07  133.65
  -8   4  10  955.91  130.05
   8  -4  -9    0.77  179.30
  -8   4   9  452.71  101.29
   8  -4  -8  837.56  121.54
  -8   4   8  740.09  116.64
   8  -4  -7  171.53   88.57
  -8   4   7  235.30   86.31
   8  -4  -6  337.62   92.13
  -8   4   6  325.89   90.24
   8  -4  -5   47.70   62.46
  -8   4   5   -8.99   61.42
   8  -4  -4  261.50  144.30
  -8   4   4  284.71   83.13
   8  -4  -3   10.03   52.75
  -8   4   3  -22.35   92.46
   8  -4  -2  740.85  102.94
  -8   4   2  779.99  100.50
   8  -4  -1  642.41   93.40
  -8   4   1  622.23  161.98
   8  -4   0   67.83   61.35
  -8   4   0   27.39   60.32
   8  -4   1 3837.89  265.00
  -8   4  -1 3779.70  170.38
   8  -4   2  191.99   69.23
  -8   4  -2  158.10   71.47
   8  -4   3 1086.93   98.38
  -8   4  -3 1197.38   99.84
   8  -4   4  176.70  114.54
  -8   4  -4  246.00  118.12
  -8   4  -5   36.05   52.81
  -8   4  -6  545.36  141.98
  -8   4  -7 1961.34  130.19
  -8   4  -811148.40  531.57
  -8   4  -918283.80  554.22
  -8   4  -915108.62  440.70
  -8   4 -10 4332.86  287.29
  -8   4 -10 3222.07  122.87
  -8   4 -11   -0.50   50.63
  -8   4 -11   25.31   30.97
  -8   4 -11   43.08   49.78
  -8   4 -12  421.68   44.23
  -8   4 -12  289.10   73.84
  -8   4 -12  369.27   67.32
  -8   4 -13   36.71   28.99
  -8   4 -13  -12.64   82.84
  -8   4 -13  -31.98   79.63
  -8   4 -14    3.45   37.38
  -8   4 -14   15.27   39.83
  -8   4 -14   -5.90   22.85
  -8   4 -15   83.51   52.03
  -8   4 -15  143.25   54.27
  -8   4 -15   64.30   30.32
  -8   4 -16   58.82   85.00
  -8   4 -16   -3.29   80.13
  -8   4 -17    6.91   55.92
  -8   4 -17  235.59   59.17
  -8   3  15   84.21   92.01
   8  -3 -13    2.41   96.83
  -8   3  13  290.50   93.65
   8  -3 -12    0.19   84.57
  -8   3  12  134.37   80.25
   8  -3 -11    0.91   65.38
  -8   3  11   -3.45   63.22
   8  -3 -10    1.20  132.85
  -8   3  10   56.52   73.37
   8  -3  -9   -0.47   72.82
  -8   3   9   78.07   70.74
   8  -3  -8  118.16   86.63
  -8   3   8  239.40   82.71
   8  -3  -7  430.69  177.21
  -8   3   7  530.80   98.42
   8  -3  -6 1434.83  127.87
  -8   3   6 1450.20  123.99
   8  -3  -5  660.61  102.33
  -8   3   5  848.58  102.31
   8  -3  -4  623.37   91.49
  -8   3   4  461.79  159.50
   8  -3  -3  268.45   76.17
  -8   3   3  226.49   74.44
   8  -3  -2 1247.17  107.18
  -8   3   2 1333.73  182.21
   8  -3  -1  269.43  127.27
  -8   3   1  301.11   73.93
   8  -3   0 1106.21   98.65
  -8   3   0  956.36  104.09
   8  -3   114599.69  411.41
  -8   3  -114801.01  543.15
   8  -3   2   40.77   53.24
  -8   3  -2   84.98   55.65
   8  -3   3  796.34  141.67
  -8   3  -3  957.19  145.58
   8  -3   4   71.20   48.19
  -8   3  -4   11.88   48.89
   8  -3   5  491.13   66.37
  -8   3  -5  396.74   67.51
  -8   3  -6  430.57  116.50
  -8   3  -7  102.40   51.94
  -8   3  -8  182.94  100.58
  -8   3  -9   -1.40   42.63
  -8   3  -9   -9.68   33.53
  -8   3 -10  858.94  138.01
  -8   3 -10  825.38   64.13
  -8   3 -11  829.96   82.38
  -8   3 -11  764.51   62.16
  -8   3 -11 1047.63   82.54
  -8   3 -12   31.14   32.10
  -8   3 -12   85.27   78.02
  -8   3 -12   -9.71   40.82
  -8   3 -13 1090.05   77.55
  -8   3 -13  901.70   62.30
  -8   3 -13 1152.07   83.33
  -8   3 -14  819.82  114.22
  -8   3 -14  674.22   72.95
  -8   3 -14  701.69   53.32
  -8   3 -15  133.47   48.78
  -8   3 -15  128.80   89.75
  -8   3 -15  134.50   35.66
  -8   3 -16  172.70   49.46
  -8   3 -16  189.73   36.00
  -8   3 -16  132.70   55.10
  -8   3 -17   29.44   27.62
  -8   3 -17  -33.03   71.09
  -8   3 -17   46.61   45.54
  -8   3 -18  927.68   80.20
  -8   3 -18  975.76   87.59
  -8   3 -19  922.90   80.39
  -8   3 -19  820.81  140.65
  -8   2  16 1188.68  171.58
   8  -2 -14    0.09   84.56
  -8   2  14  115.22   79.54
   8  -2 -13   -1.00   79.50
  -8   2  13   88.06   75.53
   8  -2 -12    1.55   86.33
  -8   2  12  205.28   82.70
   8  -2 -11    0.46   74.13
  -8   2  11   66.51   69.95
   8  -2 -10  -53.36  132.97
  -8   2  10   89.14   72.53
   8  -2  -9 1432.57  140.49
  -8   2   9 1414.37  133.40
   8  -2  -8 2635.76  169.59
  -8   2   8 2451.54  160.65
   8  -2  -7  417.86  165.56
  -8   2   7  313.89   92.04
   8  -2  -6 4794.00  216.40
  -8   2   6 4566.73  202.63
   8  -2  -5   -9.39  111.53
  -8   2   5   53.24   61.04
   8  -2  -4  642.74   90.69
  -8   2   4  631.43   89.41
   8  -2  -3  333.53  127.96
  -8   2   3  341.35  127.67
   8  -2  -2  767.79   90.42
  -8   2   2  934.48   89.14
   8  -2  -1 1997.91  132.94
  -8   2   1 2669.87  212.28
   8  -2   026737.43  941.19
  -8   2   026315.04  713.27
   8  -2   117604.25  518.60
  -8   2  -119452.05  530.97
   8  -2   2  171.22   64.85
  -8   2  -2  150.94  112.76
   8  -2   3    4.80   44.04
  -8   2  -3   61.11   45.64
   8  -2   4  855.34   73.05
  -8   2  -4  876.85   74.93
   8  -2   5   26.23   40.82
  -8   2  -5   66.81   74.30
  -8   2  -6 1222.42   79.34
  -8   2  -7   -0.27   31.83
  -8   2  -8  -50.93   71.76
  -8   2  -9  716.52   64.26
  -8   2  -9  659.88   96.56
  -8   2 -10  405.42   98.37
  -8   2 -10  357.03   84.59
  -8   2 -11 4294.80  148.05
  -8   2 -11 4020.53  187.69
  -8   2 -11 4916.32  209.43
  -8   2 -12  -13.24   30.88
  -8   2 -12   41.38   62.61
  -8   2 -12  -27.90   32.87
  -8   2 -13   83.38   37.04
  -8   2 -13   45.09   34.27
  -8   2 -13   52.52   39.79
  -8   2 -14   29.59   34.43
  -8   2 -14   37.25   65.63
  -8   2 -14   43.64   30.60
  -8   2 -15  -13.25   49.28
  -8   2 -15   32.87   31.89
  -8   2 -15  -16.15   25.79
  -8   2 -16    2.39   59.23
  -8   2 -16  -32.96   29.56
  -8   2 -16  -27.66   37.98
  -8   2 -17  353.54   43.85
  -8   2 -17  390.36   51.92
  -8   2 -17  339.96   93.90
  -8   2 -18  -32.52   34.15
  -8   2 -18   13.15   47.36
  -8   2 -18   -2.65   37.41
  -8   2 -19  194.78   79.00
  -8   2 -19  147.84   50.98
  -8   2 -19  123.13   60.00
  -8   1  18   92.88  100.05
  -8   1  17  -37.01   87.30
   8  -1 -16  970.02  155.50
  -8   1  16  728.45  245.96
   8  -1 -15   -2.88   99.97
  -8   1  15  314.41   98.59
   8  -1 -14    1.72   71.88
  -8   1  14  -22.18   69.67
   8  -1 -13    2.91   87.61
  -8   1  13  231.61   83.02
   8  -1 -12   -2.55   73.99
  -8   1  12  103.66   69.34
   8  -1 -11 -130.82  135.03
  -8   1  11  -61.01  127.08
   8  -1 -10  152.23  134.40
  -8   1  10  110.03   73.00
   8  -1  -9   84.59   73.22
  -8   1   9   28.24  120.38
   8  -1  -8 8824.87  338.61
  -8   1   8 9233.79  346.40
   8  -1  -720394.16  900.50
  -8   1   721730.34  891.37
   8  -1  -611916.21  434.22
  -8   1   612544.47  423.25
   8  -1  -5  -30.25  103.67
  -8   1   5   51.90  102.16
   8  -1  -4   43.66   50.53
  -8   1   4  -23.65   48.45
   8  -1  -3 4787.86  275.76
  -8   1   3 4877.21  176.45
   8  -1  -2 1358.79   99.10
  -8   1   2 1475.26   99.97
   8  -1  -1  746.67   82.46
  -8   1   1  808.07   81.38
   8  -1   0 7782.83  241.80
  -8   1   0 8130.20  348.96
   8  -1   113230.39  475.43
  -8   1  -112324.24  340.29
   8  -1   2 1481.85  163.91
  -8   1  -2 1611.90   95.85
   8  -1   3  572.21  108.12
  -8   1  -3  490.44   63.32
   8  -1   4 3535.20  183.49
  -8   1  -4 3872.59  189.09
   8  -1   5   -8.32   61.31
  -8   1  -5   33.04   35.46
  -8   1  -6  716.21   59.36
  -8   1  -7  471.83   88.86
  -8   1  -8  573.37   52.65
  -8   1  -8  520.75   59.85
  -8   1  -9   14.46   30.70
  -8   1  -9    6.80   34.00
  -8   1 -10 2799.95  154.61
  -8   1 -10 2512.04  103.50
  -8   1 -10 2892.11   99.37
  -8   1 -11 6690.04  263.70
  -8   1 -11 7003.82  190.48
  -8   1 -11 7087.76  181.63
  -8   1 -12  141.89   37.04
  -8   1 -12  143.89   70.53
  -8   1 -12  136.77   39.61
  -8   1 -13  214.13   71.94
  -8   1 -13  197.07   68.72
  -8   1 -13  220.67   42.09
  -8   1 -14    4.96   45.39
  -8   1 -14   -4.09   27.49
  -8   1 -14   -1.29   26.89
  -8   1 -15    0.06   51.12
  -8   1 -15   55.19   31.46
  -8   1 -15    5.41   30.95
  -8   1 -16   29.05   61.80
  -8   1 -16   95.40   34.16
  -8   1 -16   70.31   34.53
  -8   1 -17   16.57   30.60
  -8   1 -17    8.60   31.26
  -8   1 -17   60.24   33.32
  -8   1 -18   57.63   52.85
  -8   1 -18   29.54   56.40
  -8   1 -18   20.94   34.79
  -8   1 -19   85.29   56.75
  -8   1 -19   84.10   35.63
  -8   1 -19   -0.73   38.37
  -8   1 -20  124.71   79.87
  -8   1 -20  136.40   43.46
  -8   1 -20  192.37   38.71
   8   0 -18  150.06   95.28
  -8   0  18  -25.79   90.81
   8   0 -17  242.29  108.21
  -8   0  17  109.00  190.82
   8   0 -16   90.94   90.46
  -8   0  16   73.64   87.54
   8   0 -15  245.10  100.18
  -8   0  15  178.90   95.30
   8   0 -14   34.26   77.04
  -8   0  14   63.47  132.04
   8   0 -13  181.42   84.90
  -8   0  13  121.89   82.43
   8   0 -12  170.39   82.22
  -8   0  12  125.65  138.25
   8   0 -11  161.25  127.89
  -8   0  11   83.59   70.26
   8   0 -10  -20.73   58.99
  -8   0  10  -10.75   55.44
   8   0  -9   83.30   65.17
  -8   0   9   33.25   62.16
   8   0  -8  379.86   84.27
  -8   0   8  374.44   82.63
   8   0  -7   37.21  110.75
  -8   0   7   14.47   65.00
   8   0  -6 1223.63  119.73
  -8   0   6 1076.35  111.08
   8   0  -5 1225.82  192.68
  -8   0   5 1371.66  112.26
   8   0  -4  957.95   97.58
  -8   0   4 1012.42   93.13
   8   0  -3 5676.25  280.59
  -8   0   3 5445.37  182.00
   8   0  -2  444.91   65.86
  -8   0   2  474.62  111.88
   8   0  -1  540.94   62.97
  -8   0   1  445.86   62.78
   8   0   0 1266.36   82.26
  -8   0   0 1322.99   81.22
   8   0   1   -1.60   42.77
  -8   0  -1  171.40   75.35
   8   0   227423.77  686.05
  -8   0  -227040.23  669.32
   8   0   315552.76  375.31
  -8   0  -315342.60  370.63
   8   0   4 1035.00   64.92
  -8   0  -4 1154.10   64.93
   8   0   5  780.46   88.16
  -8   0  -5  632.11   91.26
  -8   0  -6  587.73   81.11
  -8   0  -7  141.73   34.59
  -8   0  -8   68.21   32.54
  -8   0  -8  140.89   79.03
  -8   0  -9 1399.08   62.04
  -8   0  -9 1341.92   83.60
  -8   0 -10 2414.46  127.21
  -8   0 -10 2377.25  104.40
  -8   0 -10 2512.78  124.39
  -8   0 -11  106.50   32.90
  -8   0 -11   86.71   44.01
  -8   0 -11   93.67   53.99
  -8   0 -12  299.65   66.23
  -8   0 -12  351.10   53.52
  -8   0 -12  364.96   38.73
  -8   0 -13   23.14   45.38
  -8   0 -13    5.36   45.44
  -8   0 -13   31.94   60.56
  -8   0 -14  167.88   55.74
  -8   0 -14  129.29   33.46
  -8   0 -14  102.08   71.06
  -8   0 -15  282.59   37.36
  -8   0 -15  321.12   65.24
  -8   0 -15  243.80   46.41
  -8   0 -16  300.19   39.23
  -8   0 -16  225.92   46.47
  -8   0 -16  300.47   37.68
  -8   0 -17  150.86   45.13
  -8   0 -17  315.43   38.47
  -8   0 -17  236.25   39.96
  -8   0 -18  385.88   84.32
  -8   0 -18  390.00   72.65
  -8   0 -18  351.15   77.46
  -8   0 -19  796.08  102.89
  -8   0 -19  762.77   56.13
  -8   0 -19  708.99   96.74
  -8   0 -20 2015.35   98.86
  -8   0 -20 1984.01   91.39
  -8   0 -20 2072.94   99.88
  -8   0 -21 1277.73   84.38
  -8   0 -21 1389.55   84.99
  -8   0 -21 1305.29  119.33
   8   1 -18  -36.98   90.28
  -8  -1  18  -14.90  151.73
   8   1 -17 1968.42  202.34
  -8  -1  17 2028.88  186.70
   8   1 -16   64.23   82.33
  -8  -1  16   -5.60   80.39
   8   1 -15   21.87   78.37
  -8  -1  15   57.85  130.00
   8   1 -14   47.76   80.16
  -8  -1  14   81.17   74.30
   8   1 -13   40.68   76.53
  -8  -1  13  119.14   72.31
   8   1 -12  142.51  137.60
  -8  -1  12  132.56  132.45
   8   1 -11   34.48  116.09
  -8  -1  11   58.16   62.50
   8   1 -10  221.14   77.02
  -8  -1  10  280.23  131.69
   8   1  -9   40.92   61.79
  -8  -1   9   91.22   58.47
   8   1  -8  120.88   58.26
  -8  -1   8    2.45   56.62
   8   1  -7  188.53  113.39
  -8  -1   7  162.52   62.90
   8   1  -6  963.81   91.85
  -8  -1   6 1059.61   87.05
   8   1  -5   39.85   45.98
  -8  -1   5   -6.47   79.81
   8   1  -4   94.66   48.74
  -8  -1   4   42.41   46.04
   8   1  -3 3337.45  201.58
  -8  -1   3 3214.01  124.50
   8   1  -2   79.29   47.25
  -8  -1   2  171.21   44.91
   8   1  -1  594.82   57.64
  -8  -1   1  522.74   56.34
   8   1   0  134.67   41.17
  -8  -1   0  127.37   70.21
   8   1   1   69.98   33.84
  -8  -1  -1   30.52   33.39
   8   1   2    3.57   29.70
  -8  -1  -2   40.44   29.41
   8   1   3  -12.44   46.01
  -8  -1  -3   -3.45   26.12
   8   1   4  312.56   37.88
  -8  -1  -4  248.12   65.38
   8   1   5  133.91   30.89
  -8  -1  -5  156.23   55.81
  -8  -1  -6  173.17   56.06
  -8  -1  -7 2314.42  106.82
  -8  -1  -7 1975.26  106.61
  -8  -1  -8   49.18   43.40
  -8  -1  -8   42.77   44.92
  -8  -1  -9   54.84   45.02
  -8  -1  -9   84.52   46.72
  -8  -1  -9   78.43   25.55
  -8  -1 -10   -2.95   21.05
  -8  -1 -10  -84.28   68.75
  -8  -1 -10   -6.86   20.26
  -8  -1 -11  258.66   55.68
  -8  -1 -11  383.06   58.93
  -8  -1 -11  329.57   34.03
  -8  -1 -12 1521.91   94.64
  -8  -1 -12 1542.29   88.76
  -8  -1 -12 1487.97   57.62
  -8  -1 -13 2210.99  105.96
  -8  -1 -13 2041.96  110.19
  -8  -1 -13 2223.13  107.05
  -8  -1 -14  289.79   58.89
  -8  -1 -14  346.01   37.23
  -8  -1 -14  318.65  100.56
  -8  -1 -15  471.22   62.82
  -8  -1 -15  467.86   68.31
  -8  -1 -15  415.09  101.92
  -8  -1 -16  219.84   34.83
  -8  -1 -16  173.74   49.33
  -8  -1 -16  210.52   32.81
  -8  -1 -17  135.62   46.05
  -8  -1 -17   71.04   57.21
  -8  -1 -17  158.07   30.60
  -8  -1 -18  131.52   85.18
  -8  -1 -18  231.50   38.52
  -8  -1 -18  219.91   57.33
  -8  -1 -19  143.54   89.28
  -8  -1 -19  203.30   40.31
  -8  -1 -19  232.43   35.25
  -8  -1 -20 2428.09  157.33
  -8  -1 -20 2781.60  126.47
  -8  -1 -20 2541.44  102.45
  -8  -1 -21 2768.74  178.35
  -8  -1 -21 3469.63  148.58
  -8  -1 -21 2993.78  173.65
   8   2 -19  364.56  236.27
  -8  -2  19  399.54  224.60
   8   2 -18   -2.36  157.66
  -8  -2  18  -17.23   84.18
   8   2 -17 2683.60  243.31
  -8  -2  17 2479.67  220.26
   8   2 -16  252.49  114.86
  -8  -2  16  334.65  187.12
   8   2 -15  133.92   79.95
  -8  -2  15  -30.47   75.87
   8   2 -14  170.84   87.56
  -8  -2  14  140.81   82.04
   8   2 -13  108.11  130.32
  -8  -2  13   60.74   71.59
   8   2 -12  -27.02  115.08
  -8  -2  12  -35.44   60.45
   8   2 -11   72.35  120.65
  -8  -2  11   73.94   62.08
   8   2 -10   50.93   61.18
  -8  -2  10   40.49   99.46
   8   2  -9  429.70   81.05
  -8  -2   9  401.33   78.49
   8   2  -8    8.63   53.28
  -8  -2   8   61.90   53.12
   8   2  -7  245.85  113.40
  -8  -2   7  267.95  107.80
   8   2  -6  484.25   68.38
  -8  -2   6  481.42   65.38
   8   2  -5    5.07   36.89
  -8  -2   5  -23.11   62.23
   8   2  -4   -1.70   73.16
  -8  -2   4   53.82   39.93
   8   2  -3  123.26   44.80
  -8  -2   3  135.51   74.88
   8   2  -2  182.40   45.89
  -8  -2   2  265.66   43.93
   8   2  -1  187.34   41.84
  -8  -2   1  237.41   69.73
   8   2   0 1261.74   64.02
  -8  -2   0 1313.35   60.78
   8   2   1 3636.72   98.75
  -8  -2  -1 3514.99   96.74
   8   2   2 1712.00   63.06
  -8  -2  -2 1822.89   98.04
   8   2   3   93.67   47.19
  -8  -2  -3  102.88   26.76
   8   2   4  115.37   44.36
  -8  -2  -4   97.66   24.92
   8   2   5  511.46   32.10
  -8  -2  -5  435.11   32.38
  -8  -2  -6  112.40   23.23
  -8  -2  -6  165.49   52.47
  -8  -2  -7   92.33   21.75
  -8  -2  -7   93.60   50.75
  -8  -2  -8 2378.74   86.24
  -8  -2  -8 2071.25  180.03
  -8  -2  -9  201.73   40.42
  -8  -2  -9  178.36   56.97
  -8  -2  -9  234.50   22.50
  -8  -2 -10  952.60   59.28
  -8  -2 -10  965.09   57.73
  -8  -2 -10 1035.12   82.43
  -8  -2 -11 1513.69   99.30
  -8  -2 -11 1455.21   44.90
  -8  -2 -11 1587.15   76.07
  -8  -2 -12 1003.25   68.18
  -8  -2 -12 1018.64  144.83
  -8  -2 -12  968.35   38.82
  -8  -2 -13  181.89   24.82
  -8  -2 -13  133.46   46.66
  -8  -2 -13  220.69   57.63
  -8  -2 -14   72.83   23.20
  -8  -2 -14  105.30   25.08
  -8  -2 -14   56.90   51.33
  -8  -2 -15  223.49   59.90
  -8  -2 -15  312.49   31.36
  -8  -2 -15  218.49   28.76
  -8  -2 -16  195.78   96.62
  -8  -2 -16  208.30   51.84
  -8  -2 -16  166.38   47.46
  -8  -2 -17  124.81   50.98
  -8  -2 -17  132.89   29.60
  -8  -2 -17   87.66   45.27
  -8  -2 -18   13.09   40.00
  -8  -2 -18  -57.93   23.37
  -8  -2 -18   34.55   22.16
  -8  -2 -19  172.94   91.90
  -8  -2 -19  119.31   56.59
  -8  -2 -19  153.32   51.29
  -8  -2 -20 1059.43   99.83
  -8  -2 -20 1249.04   92.45
  -8  -2 -20 1035.45   57.13
  -8  -2 -21  261.89   63.65
  -8  -2 -21  154.84   42.45
  -8  -2 -21  205.67   38.48
  -8  -2 -22 1430.29  105.20
   8   3 -19  475.98  144.89
  -8  -3  19  393.37  139.92
   8   3 -18 1746.69  336.34
  -8  -3  18 1678.08  191.37
   8   3 -17 4538.44  445.28
  -8  -3  17 3687.27  256.11
   8   3 -16  624.57  239.05
  -8  -3  16  871.18  228.31
   8   3 -15   35.17  134.38
  -8  -3  15   22.15   70.85
   8   3 -14  384.65  186.61
  -8  -3  14  505.76  101.70
   8   3 -13 2927.16  302.14
  -8  -3  13 2942.30  280.04
   8   3 -12 2455.68  266.96
  -8  -3  12 2248.06  150.10
   8   3 -11 2214.00  244.59
  -8  -3  11 2040.56  141.34
   8   3 -10    2.29   54.87
  -8  -3  10   55.47   92.48
   8   3  -9  334.12   75.80
  -8  -3   9  336.09   70.91
   8   3  -8  248.28   67.34
  -8  -3   8  223.14   63.66
   8   3  -7   22.82   48.32
  -8  -3   7   44.47   78.49
   8   3  -6  139.39   92.72
  -8  -3   6  149.06   52.17
   8   3  -5   44.01   44.63
  -8  -3   5   96.47   43.27
   8   3  -4  170.72   87.81
  -8  -3   4  373.23   86.12
   8   3  -3   16.97   35.18
  -8  -3   3   54.75   33.55
   8   3  -2  300.09   79.08
  -8  -3   2  387.20   43.86
   8   3  -1 1315.95  103.16
  -8  -3   1 1394.49   60.65
   8   3   0 1284.66   93.30
  -8  -3   0 1207.62   54.01
   8   3   1 2213.57  104.42
  -8  -3  -1 2084.85  100.12
   8   3   2   60.67   22.92
  -8  -3  -2   32.41   38.28
   8   3   3  526.48   30.51
  -8  -3  -3  507.42   29.55
   8   3   4  714.81   31.31
  -8  -3  -4  713.52   49.83
   8   3   5  174.65   19.59
  -8  -3  -5  156.26   33.64
  -8  -3  -5  188.03   56.00
  -8  -3  -6 1002.47   47.13
  -8  -3  -6  909.55  142.60
  -8  -3  -7   71.87   14.43
  -8  -3  -7   23.93   49.44
  -8  -3  -8  623.37   36.44
  -8  -3  -8  584.41   72.45
  -8  -3  -8  595.85   33.84
  -8  -3  -9  792.04   36.69
  -8  -3  -9  833.02   39.57
  -8  -3  -9  772.44   80.66
  -8  -3 -10  489.28  121.88
  -8  -3 -10  492.48   34.77
  -8  -3 -10  466.34   19.60
  -8  -3 -11 1331.96   93.59
  -8  -3 -11 1143.33   50.44
  -8  -3 -11 1157.46   46.44
  -8  -3 -12  253.76   21.11
  -8  -3 -12  277.34   32.07
  -8  -3 -12  194.65   63.23
  -8  -3 -13  378.15   24.81
  -8  -3 -13  383.78   37.09
  -8  -3 -13  341.28  120.70
  -8  -3 -14 1538.41   47.31
  -8  -3 -14 1541.20   64.79
  -8  -3 -14 1627.34  105.12
  -8  -3 -15  114.45   51.30
  -8  -3 -15   53.41   20.23
  -8  -3 -15   48.49   19.36
  -8  -3 -16  241.50   62.62
  -8  -3 -16  237.97   44.30
  -8  -3 -16  233.43   25.18
  -8  -3 -17   -0.21   49.49
  -8  -3 -17   47.61   21.94
  -8  -3 -17   65.15   34.23
  -8  -3 -18    6.48   42.91
  -8  -3 -18  -13.57   34.98
  -8  -3 -18   11.47   18.26
  -8  -3 -19  393.00   37.56
  -8  -3 -19  477.89  120.92
  -8  -3 -19  422.19   54.65
  -8  -3 -20   18.68   24.54
  -8  -3 -20   10.98   46.24
  -8  -3 -20   14.45   21.83
  -8  -3 -21   95.26   57.63
  -8  -3 -22  171.99   64.96
   8   4 -19   34.98   95.03
  -8  -4  19   11.99   89.56
   8   4 -18  406.24  135.43
  -8  -4  18  397.21  122.91
   8   4 -17 2918.51  235.93
  -8  -4  17 3307.22  366.78
   8   4 -16  125.69   95.24
  -8  -4  16   71.90   88.05
   8   4 -15  561.74  114.89
  -8  -4  15  433.83  105.35
   8   4 -14  -36.31  119.48
  -8  -4  14   -8.16   62.88
   8   4 -13  316.59  177.12
  -8  -4  13  497.24  166.10
   8   4 -12   56.38  135.93
  -8  -4  12  130.63   74.43
   8   4 -11  159.05  133.19
  -8  -4  11  117.82   71.56
   8   4 -10 1317.96  118.65
  -8  -4  10 1426.49  110.85
   8   4  -9 3936.89  175.69
  -8  -4   9 3980.07  257.84
   8   4  -8  -28.52   44.84
  -8  -4   8   19.75   42.03
   8   4  -7   98.36   51.55
  -8  -4   7   54.77   48.05
   8   4  -6   46.89   43.59
  -8  -4   6   46.33   41.47
   8   4  -5  266.80   91.22
  -8  -4   5  287.93   86.09
   8   4  -4  221.76   46.86
  -8  -4   4  221.77   44.89
   8   4  -3 5646.16  222.08
  -8  -4   3 5516.16  149.95
   8   4  -2 7162.61  182.06
  -8  -4   2 7338.39  238.95
   8   4  -1  141.76   33.84
  -8  -4   1  168.63   58.03
   8   4   0  944.88   47.39
  -8  -4   0  927.36   46.40
   8   4   111832.70  243.01
  -8  -4  -111902.96  240.49
   8   4   2 5170.38  140.80
  -8  -4  -2 5069.29  135.39
   8   4   3  211.35   20.45
  -8  -4  -3  184.60   32.88
   8   4   4  186.96   28.15
  -8  -4  -4  277.55   57.88
  -8  -4  -4  190.82   15.51
   8   4   5   90.93   19.99
  -8  -4  -5  166.46   92.41
  -8  -4  -5   80.45   18.74
  -8  -4  -6  110.48   52.58
  -8  -4  -6   88.59   14.80
  -8  -4  -7  728.81   18.46
  -8  -4  -7  666.40   80.43
  -8  -4  -7  704.63   18.64
  -8  -4  -8 1190.53   94.80
  -8  -4  -9  162.25  106.63
  -8  -4 -10 1617.93  103.04
  -8  -4 -10 1301.19   23.94
  -8  -4 -10 1376.39   24.73
  -8  -4 -11 3471.89   59.94
  -8  -4 -11 3726.71   61.42
  -8  -4 -11 4093.90  160.44
  -8  -4 -12   -2.78   12.49
  -8  -4 -12    1.62   11.67
  -8  -4 -12  -39.55   75.18
  -8  -4 -13   49.75   19.35
  -8  -4 -13   39.37   53.72
  -8  -4 -13   53.26   17.62
  -8  -4 -14 1018.64   89.45
  -8  -4 -14  818.79   40.44
  -8  -4 -14  757.46   37.87
  -8  -4 -15 1142.41   89.12
  -8  -4 -15  830.96   46.70
  -8  -4 -15  852.87   43.20
  -8  -4 -16  489.19   74.89
  -8  -4 -16  368.34   39.96
  -8  -4 -16  385.27   36.16
  -8  -4 -17  271.80  112.22
  -8  -4 -17  163.75   38.01
  -8  -4 -17  195.60   20.56
  -8  -4 -18   40.90   19.52
  -8  -4 -18   60.61   51.98
  -8  -4 -18   23.05   17.52
  -8  -4 -19  445.05   53.05
  -8  -4 -19  548.03   77.58
  -8  -4 -19  344.73   47.60
  -8  -4 -20  -10.24   48.35
  -8  -4 -21  350.92   76.19
  -8  -4 -22    6.76   50.85
   8   5 -19   52.87   97.26
  -8  -5  19   71.75   90.04
   8   5 -18 1104.10  155.85
  -8  -5  18  750.46  255.44
   8   5 -17  949.29  149.54
  -8  -5  17 1044.01  149.21
   8   5 -16  205.07   99.69
  -8  -5  16  234.86   92.23
   8   5 -15  114.49   84.88
  -8  -5  15  109.11   79.79
   8   5 -14  803.98  115.66
  -8  -5  14  690.26  107.74
   8   5 -13   25.94   66.42
  -8  -5  13   51.47  110.46
   8   5 -12    6.58   63.80
  -8  -5  12   61.19   59.47
   8   5 -11  783.90  103.09
  -8  -5  11  830.72   95.13
   8   5 -10  450.52   80.56
  -8  -5  10  335.47   75.34
   8   5  -9   25.82   52.70
  -8  -5   9   20.96   48.11
   8   5  -8   37.09   51.09
  -8  -5   8   53.46   86.04
   8   5  -7 1553.61   98.10
  -8  -5   7 1539.16   94.30
   8   5  -6  -33.09   38.66
  -8  -5   6    1.05   36.75
   8   5  -5  129.10   46.43
  -8  -5   5  174.42   44.08
   8   5  -4  393.16   88.65
  -8  -5   4  366.12   48.49
   8   5  -3   17.72   30.33
  -8  -5   3    7.49   29.18
   8   5  -2 1726.95  115.02
  -8  -5   2 1758.72   68.90
   8   5  -1  694.00   46.19
  -8  -5   1  728.79   75.97
   8   5   0 2044.53   66.96
  -8  -5   0 2076.86   99.40
   8   5   127493.87  680.48
  -8  -5  -126996.85  594.01
   8   5   2 1258.65   40.12
  -8  -5  -2 1356.75   39.52
   8   5   3   24.96   21.04
  -8  -5  -3   24.35   20.32
  -8  -5  -3   32.82   45.45
   8   5   4   20.94    8.01
  -8  -5  -4   19.12   14.11
  -8  -5  -4   19.44   45.91
  -8  -5  -5 4129.01  251.48
  -8  -5  -6  153.65   66.74
  -8  -5  -723219.56  638.74
  -8  -5  -8 7948.05  266.12
  -8  -5  -9   67.48   61.82
  -8  -5 -10  -40.58   60.14
  -8  -5 -1123457.35  654.94
  -8  -5 -12 7418.92  271.28
  -8  -5 -13   65.43  103.76
  -8  -5 -14   74.71   54.81
  -8  -5 -14   42.04   10.89
  -8  -5 -15  106.32   61.22
  -8  -5 -15   86.50   15.91
  -8  -5 -15  100.31   17.87
  -8  -5 -16  377.51   72.30
  -8  -5 -16  295.77   26.95
  -8  -5 -16  240.27   15.35
  -8  -5 -17  200.22   16.77
  -8  -5 -17  305.96   68.30
  -8  -5 -17   81.56   29.40
  -8  -5 -18  113.77   29.05
  -8  -5 -18  114.19   18.91
  -8  -5 -18  370.45  112.84
  -8  -5 -19  321.46   75.80
  -8  -5 -20   46.75  104.46
  -8  -5 -21   66.58   64.02
  -8  -5 -22  -18.30   58.28
   8   6 -18  114.39  167.18
  -8  -6  18   55.24   87.81
   8   6 -17  277.61  191.72
  -8  -6  17  274.64  103.99
   8   6 -16   -3.54   75.19
  -8  -6  16  -36.24   69.08
   8   6 -15  122.14   85.13
  -8  -6  15  127.11   78.12
   8   6 -14  -51.79   68.39
  -8  -6  14   43.14  111.25
   8   6 -13   -9.15   62.15
  -8  -6  13  -24.87  101.22
   8   6 -12  487.02   97.48
  -8  -6  12  602.40   89.15
   8   6 -11   50.29   58.82
  -8  -6  11   26.66   55.02
   8   6 -10   34.91   49.47
  -8  -6  10  -41.27   45.85
   8   6  -9 1407.74  109.68
  -8  -6   9 1554.37  103.69
   8   6  -8 2878.79  139.32
  -8  -6   8 2838.84  127.37
   8   6  -7  936.82   86.20
  -8  -6   7 1116.32   79.90
   8   6  -6   35.27   40.74
  -8  -6   6   13.34   38.30
   8   6  -5  305.43   52.35
  -8  -6   5  408.08   85.58
   8   6  -4  305.89   48.36
  -8  -6   4  337.46   77.16
   8   6  -3   37.65   53.75
  -8  -6   3   21.11   29.24
   8   6  -2 1041.91   55.26
  -8  -6   2 1034.17   53.06
   8   6  -1 2370.93  114.17
  -8  -6   1 2488.09   72.52
   8   6   0   61.50   23.49
  -8  -6   0   32.66   38.64
   8   6   1 2124.10   54.82
  -8  -6  -1 2232.41   54.09
  -8  -6  -1 2420.55  111.14
   8   6   2   53.13   26.76
  -8  -6  -2   96.27   26.45
  -8  -6  -2  138.98   51.72
   8   6   3   27.32    9.82
  -8  -6  -3   15.39    8.95
  -8  -6  -3   58.09   43.93
   8   6   4 1551.60   24.96
  -8  -6  -4 2011.89  164.36
  -8  -6  -5  335.65   67.11
  -8  -6  -6  465.63   79.93
  -8  -6  -7 5561.78  317.95
  -8  -6  -8  889.12  105.29
  -8  -6  -9 3820.66  175.67
  -8  -6 -10 3388.44  189.52
  -8  -6 -11100022.4 3587.16
  -8  -6 -12 9903.35  534.23
  -8  -6 -13 3404.78  168.20
  -8  -6 -14 1739.71  205.15
  -8  -6 -15 1609.04  121.64
  -8  -6 -16  316.43   62.78
  -8  -6 -16   47.98   11.91
   8   6  17  925.63  104.03
  -8  -6 -17  927.25  104.23
   8   6  18  348.08   80.22
  -8  -6 -18  280.51   82.58
   8   6  19  -37.69   54.90
  -8  -6 -19   61.68   55.71
   8   6  20  441.52   91.34
  -8  -6 -20  514.89   95.56
   8   6  21 1832.73  143.48
  -8  -6 -21 1811.20  146.26
   8   6  22  755.41  107.81
   8   7 -18  321.20  122.80
  -8  -7  18  379.31  115.55
   8   7 -17  285.11  117.25
  -8  -7  17  429.67  112.19
   8   7 -16   63.66  141.11
  -8  -7  16   31.62   75.56
   8   7 -15 -137.85  125.76
  -8  -7  15    8.06   66.42
   8   7 -14   43.17   73.97
  -8  -7  14   81.34  119.26
   8   7 -13  141.18   77.36
  -8  -7  13  125.35  123.37
   8   7 -12   57.78   61.26
  -8  -7  12   -0.59   56.53
   8   7 -11   33.92   66.40
  -8  -7  11  129.62   59.83
   8   7 -10  225.68   70.91
  -8  -7  10  212.14   65.11
   8   7  -9   70.35   52.61
  -8  -7   9    3.90   48.06
   8   7  -8   -4.41   50.00
  -8  -7   8   67.02   44.80
   8   7  -7  165.70  105.40
  -8  -7   7  239.44   53.99
   8   7  -6  136.02   87.77
  -8  -7   6   82.00   44.73
   8   7  -5  107.58   45.39
  -8  -7   5  115.19   41.59
   8   7  -4 1042.10   67.24
  -8  -7   4  955.04  104.26
   8   7  -3 2175.09   85.19
  -8  -7   3 2187.43  123.77
   8   7  -2  246.46   39.68
  -8  -7   2  343.07   37.09
   8   7  -1 1228.51   86.86
  -8  -7   1 1222.22   81.58
  -8  -7   1 1152.60   78.29
   8   7   0 2377.99   66.49
  -8  -7   0 2423.47   62.87
  -8  -7   0 2484.57  107.02
   8   7   1  113.57   35.55
  -8  -7  -1  134.54   49.18
  -8  -7  -1  110.41   33.14
   8   7   2  364.57   21.33
  -8  -7  -2  456.76   62.69
  -8  -7  -2  398.74   19.98
   8   7   3  200.42   21.29
  -8  -7  -3  303.66   56.75
  -8  -7  -4  417.60  114.77
  -8  -7  -5   -0.77   39.92
  -8  -7  -6  114.09   59.90
  -8  -7  -7  237.27   71.70
  -8  -7  -810560.00  325.06
  -8  -7  -9 9030.27  447.49
  -8  -7 -10  177.82   86.29
  -8  -7 -1111359.08  569.11
  -8  -7 -12 1443.31  131.90
   8   7  13  107.84   64.15
  -8  -7 -13   71.95  119.63
   8   7  14 1564.61  123.69
  -8  -7 -14 1677.82  125.39
   8   7  15  407.75   86.95
  -8  -7 -15  559.70  153.46
   8   7  16  850.92  101.61
  -8  -7 -16  695.13  104.36
   8   7  17  750.00  102.80
  -8  -7 -17  818.88  182.17
   8   7  18   91.62   71.19
  -8  -7 -18  113.26   74.97
   8   7  19  570.73   98.48
  -8  -7 -19  494.65  178.02
   8   7  20   13.58   61.26
  -8  -7 -20    2.90   64.43
   8   7  21 5480.53  244.74
  -8  -7 -21 3648.59  231.83
   8   7  22  180.02   85.33
   8   8 -17  -64.05   84.85
  -8  -8  17   32.12   76.86
   8   8 -16  928.13  143.22
  -8  -8  16  828.56  132.82
   8   8 -15    1.47   69.77
  -8  -8  15   48.37  113.11
   8   8 -14  -26.32  120.02
  -8  -8  14  -19.85  110.46
   8   8 -13   53.65  113.22
  -8  -8  13    3.55  105.49
   8   8 -12   93.64   71.73
  -8  -8  12   89.77  114.90
   8   8 -11  463.41   92.06
  -8  -8  11  608.07   84.99
   8   8 -10   33.51   56.97
  -8  -8  10   36.24   52.32
   8   8  -9  768.61   93.18
  -8  -8   9  775.28   85.24
   8   8  -8 7618.96  264.96
  -8  -8   8 7816.64  371.30
   8   8  -7 1992.47  206.67
  -8  -8   7 2180.11  190.44
   8   8  -6  701.41  136.19
  -8  -8   6  868.23  124.32
   8   8  -5 4015.49  221.31
  -8  -8   5 4205.50  139.58
   8   8  -4  -20.58   60.02
  -8  -8   4   -8.12   32.09
   8   8  -3   11.67   47.21
  -8  -8   3   -1.85   42.99
  -8  -8   3   -4.00   29.24
   8   8  -2  608.24   80.92
  -8  -8   2  568.61   58.90
  -8  -8   2  659.94   44.82
   8   8  -1   10.91   23.89
  -8  -8   1   18.93   34.80
  -8  -8   1   21.62   38.91
   8   8   0   17.13   20.60
  -8  -8   0  -21.77   35.16
  -8  -8   0   19.12   19.34
   8   8   1   33.06   32.52
  -8  -8  -1   39.20   39.68
   8   8   2   70.47   16.38
  -8  -8  -2  134.88   80.44
   8   8   3   70.67   19.62
   8   8   3   92.36   21.55
  -8  -8  -3   68.28   48.50
   8   8   4   26.17   10.32
  -8  -8  -4  160.54   80.63
  -8  -8  -5   44.67   49.69
  -8  -8  -6  579.55  133.85
  -8  -8  -7 2181.97  126.66
  -8  -8  -8 3861.12  275.66
  -8  -8  -9  920.06  104.73
  -8  -8 -10 1158.59  196.15
  -8  -8 -11 1914.15  138.41
   8   8  12  755.92   98.29
  -8  -8 -12  602.14  179.25
   8   8  13  359.38   85.91
  -8  -8 -13  466.76   87.11
   8   8  14  -65.07   63.23
  -8  -8 -14  -14.61  112.29
   8   8  15   50.80   58.08
  -8  -8 -15  -15.18   60.22
   8   8  16  244.19  138.77
  -8  -8 -16  185.90  144.68
   8   8  17  110.49  131.11
  -8  -8 -17  134.55   77.45
   8   8  18 1669.15  233.36
  -8  -8 -18 1649.16  241.75
   8   8  19  532.95  101.63
  -8  -8 -19  586.32  110.05
   8   8  20  433.19   99.04
  -8  -8 -20  341.87  112.21
   8   8  21 2130.65  167.10
   8   9 -17  989.51  271.26
  -8  -9  17 1112.74  145.34
   8   9 -16  -41.23  146.12
  -8  -9  16  -27.05  134.63
   8   9 -15  413.35  107.41
  -8  -9  15  293.91  171.40
   8   9 -14 -113.68   77.37
  -8  -9  14   38.04  122.71
   8   9 -13   45.81   68.68
  -8  -9  13   33.64  111.57
   8   9 -12  210.40  150.51
  -8  -9  12  362.90  138.52
   8   9 -11  118.69  125.52
  -8  -9  11  164.36  116.88
   8   9 -10 1100.04  110.84
  -8  -9  10 1068.72  170.93
   8   9  -9  156.60   70.01
  -8  -9   9  161.25  113.35
   8   9  -8  623.02   91.97
  -8  -9   8  584.70  149.66
   8   9  -7  346.27   77.82
  -8  -9   7  292.40   77.60
   8   9  -6  769.58  144.95
  -8  -9   6  723.20   63.04
  -8  -9   6  770.77   79.55
   8   9  -5 2233.16  177.11
  -8  -9   5 2193.05   91.45
  -8  -9   5 2247.63   99.14
   8   9  -4  334.79   91.44
  -8  -9   4  259.76   80.16
  -8  -9   4  283.87   85.83
   8   9  -3 1105.81   69.15
  -8  -9   3 1129.78   68.42
  -8  -9   3 1228.49   66.83
   8   9  -2  373.95   45.78
  -8  -9   2  552.29   86.92
   8   9  -1 2143.83   77.23
  -8  -9   1 2253.42   92.34
   8   9   0  566.05   66.54
  -8  -9   0  583.04  102.25
   8   9   1  730.05   62.03
  -8  -9  -1  765.28   67.80
   8   9   2 2575.06   60.54
   8   9   2 2619.31   88.93
  -8  -9  -2 2736.05  177.84
   8   9   3   34.37   12.62
   8   9   3   29.91   23.94
  -8  -9  -3   26.31   44.40
   8   9   4   44.24   16.27
   8   9   4   71.42   10.88
  -8  -9  -4   37.11   87.07
   8   9   5  784.28   17.06
  -8  -9  -5  984.61   83.44
  -8  -9  -6  975.28  154.58
  -8  -9  -7   58.71   57.35
  -8  -9  -8 1393.60  109.93
  -8  -9  -9   54.94   59.99
   8   9  10   96.45   63.62
  -8  -9 -10  113.88   66.44
   8   9  11  211.98   72.97
  -8  -9 -11  189.19   74.63
   8   9  12  244.25   77.93
  -8  -9 -12  268.39   81.61
   8   9  13  628.28  169.12
  -8  -9 -13  670.99  101.68
   8   9  14  703.05  186.41
  -8  -9 -14  942.79  111.16
   8   9  15  -30.15   59.57
  -8  -9 -15   38.81  107.99
   8   9  16  218.52   79.51
  -8  -9 -16  110.11   82.31
   8   9  17    5.20   56.12
  -8  -9 -17  -20.50  101.79
   8   9  18  720.57  111.83
  -8  -9 -18  824.06  119.28
   8   9  19  119.33   76.07
  -8  -9 -19   38.76   83.68
   8   9  20   83.48   78.52
   8   9  21  375.11  104.75
   8  10 -16   23.60   83.48
  -8 -10  16   96.15  136.64
   8  10 -15  101.57  142.13
  -8 -10  15   26.17  131.07
   8  10 -14  133.14  134.35
  -8 -10  14   10.37  124.80
   8  10 -13  121.58   80.79
  -8 -10  13  146.52  128.61
   8  10 -12 1227.64  127.78
  -8 -10  12 1275.77  196.91
   8  10 -11  -34.41   54.29
  -8 -10  11    4.49   21.42
  -8 -10  11  -34.05   86.49
   8  10 -10   20.78  116.40
  -8 -10  10   80.53   29.40
  -8 -10  10   12.44  111.31
   8  10  -9 3096.58  179.79
  -8 -10   9 2722.08  146.80
  -8 -10   9 3261.49  167.15
   8  10  -8 8112.90  309.95
  -8 -10   8 7310.11  273.52
  -8 -10   8 8831.52  294.63
   8  10  -7 3088.59  176.86
  -8 -10   7 2812.99  111.42
  -8 -10   7 3411.26  168.80
   8  10  -610226.56  338.06
  -8 -10   6 9202.69  264.21
  -8 -10   610623.09  326.66
   8  10  -5  391.97   99.88
  -8 -10   5  380.67   71.89
  -8 -10   5  -15.09   54.91
   8  10  -4   58.45   57.14
  -8 -10   4   -9.77   27.13
   8  10  -3  474.62   52.33
  -8 -10   3  566.32   82.57
   8  10  -2   46.67   30.08
  -8 -10   2    0.86   32.13
   8  10  -1   54.05   30.20
  -8 -10   1   94.66   36.93
   8  10   0   53.80   26.43
  -8 -10   0   78.48   39.16
   8  10   1   48.61   23.25
   8  10   1   79.49   24.12
  -8 -10  -1   80.43   42.03
   8  10   2 3304.30  109.42
   8  10   2 3167.95   80.11
  -8 -10  -2 3566.30  201.14
   8  10   3   87.73   19.05
   8  10   3  102.22   20.34
  -8 -10  -3  117.21   51.47
   8  10   4 1042.69   45.44
   8  10   4 1014.77   31.66
  -8 -10  -4 1167.85  146.25
   8  10   5 3505.69   76.99
   8  10   5 3585.17   79.96
  -8 -10  -5 4315.69  156.41
   8  10   6   14.90    5.38
   8  10   6    8.11   10.18
  -8 -10  -6   52.61   48.86
  -8 -10  -7   48.03   54.12
  -8 -10  -8    1.22   46.13
   8  10   9  434.91   79.84
  -8 -10  -9  394.02  142.35
   8  10  10   69.45   58.08
  -8 -10 -10    1.89   60.07
   8  10  11   88.05   67.11
  -8 -10 -11  124.78  122.39
   8  10  12  581.97  173.48
  -8 -10 -12  796.54  103.99
   8  10  13   74.88  105.27
  -8 -10 -13   -1.87   61.39
   8  10  14  492.57   91.49
  -8 -10 -14  344.10   95.27
   8  10  15  359.00   93.72
  -8 -10 -15  467.97   97.23
   8  10  16  130.31   74.14
  -8 -10 -16  -83.24  137.63
   8  10  17  177.76   84.87
  -8 -10 -17  176.32   90.83
   8  10  18  204.44   88.79
  -8 -10 -18  224.72   96.67
   8  10  19  109.90   83.30
   8  10  20   47.89   78.58
   8  11 -15   87.37   92.82
  -8 -11  15  244.16   89.71
   8  11 -14   50.57   73.00
  -8 -11  14   13.57   69.60
   8  11 -13  133.98  147.41
  -8 -11  13  180.48   81.06
   8  11 -12   76.09  111.69
  -8 -11  12    2.50   18.27
  -8 -11  12  117.79   59.94
   8  11 -11  202.74   69.09
  -8 -11  11   26.90   28.02
  -8 -11  11   56.70   63.94
   8  11 -10  138.90   75.61
  -8 -11  10  139.56   28.12
  -8 -11  10    3.42   68.53
   8  11  -9 6824.88  274.73
  -8 -11   9 5520.98  157.05
   8  11  -8   17.82   99.23
  -8 -11   8   24.15   27.01
   8  11  -7  196.43   63.66
  -8 -11   7  157.06   58.64
   8  11  -6   56.57   47.35
  -8 -11   6   29.04   28.49
   8  11  -5   83.04   47.76
  -8 -11   5   84.57   32.00
   8  11  -4   64.88   77.29
  -8 -11   4  131.44   57.91
   8  11  -3  205.85   79.28
  -8 -11   3  265.40   40.95
   8  11  -2  472.66   49.19
  -8 -11   2  497.07   49.58
   8  11  -1 1404.67   66.86
  -8 -11   1 1436.70  118.68
   8  11   0    5.05   24.05
   8  11   0   13.43   23.19
  -8 -11   0  -18.80   32.50
   8  11   1 5287.75  185.58
   8  11   1 5379.89  135.60
  -8 -11  -1 5842.49  170.38
   8  11   2 3728.21  142.41
   8  11   2 3857.12  135.08
  -8 -11  -2 4105.69  146.24
   8  11   3 4353.03  144.76
   8  11   3 4334.75  103.74
  -8 -11  -3 5071.73  175.42
   8  11   4 6231.76  164.20
   8  11   4 5985.43  130.18
  -8 -11  -4 7472.08  316.24
   8  11   5  242.16   18.61
   8  11   5  211.91   19.88
  -8 -11  -5  221.48   62.63
   8  11   6   90.48   20.44
   8  11   6   82.55   12.67
  -8 -11  -6  129.46   54.34
   8  11   7    9.23   12.97
   8  11   7   32.63   13.91
  -8 -11  -7  -18.47   87.56
   8  11   8  182.31   11.81
   8  11   8  177.45   11.04
  -8 -11  -8  245.35   67.13
   8  11   9   63.91   63.00
  -8 -11  -9   91.70   63.97
   8  11  10  847.77  100.88
  -8 -11 -10  870.56  105.61
   8  11  11   89.13  126.41
  -8 -11 -11  111.53   71.79
   8  11  12  909.03  196.64
  -8 -11 -12  988.04  199.18
   8  11  13   96.61   71.13
  -8 -11 -13   13.82   72.84
   8  11  14   88.80   74.38
  -8 -11 -14   47.91   76.18
   8  11  15 1343.26  136.31
  -8 -11 -15 1499.97  245.91
   8  11  16  -41.85   64.63
  -8 -11 -16   26.10   69.06
   8  11  17    7.77   71.99
  -8 -11 -17   63.22   78.32
   8  11  18   -3.44   64.66
   8  11  19  602.13  118.84
   8  12 -14  319.78  183.17
   8  12 -13  276.28  100.01
   8  12 -12  -39.21   70.48
   8  12 -11  533.99   71.26
  -8 -12  11    6.52   18.55
   8  12 -10  -56.20  108.40
  -8 -12  10  -30.26   12.80
   8  12  -9  218.48   76.97
  -8 -12   9  229.09   27.40
   8  12  -8  224.06   75.21
  -8 -12   8  261.27   32.33
   8  12  -7 2349.22  204.62
  -8 -12   7 1968.69  106.52
   8  12  -6  136.17  100.25
  -8 -12   6  146.74   52.82
   8  12  -5   -6.04   41.93
  -8 -12   5   26.60   24.67
   8  12  -4  108.38   43.15
  -8 -12   4   38.48   29.84
   8  12  -3   60.72   68.16
  -8 -12   3   55.50   30.81
   8  12  -2  250.56   78.24
  -8 -12   2  264.53   71.60
   8  12  -1   -8.02   27.51
   8  12  -1   -6.28   45.72
  -8 -12   1   20.97   28.96
   8  12   0   14.77   24.58
   8  12   0    4.17   23.34
  -8 -12   0  -30.33   29.76
   8  12   1 2497.07  131.16
   8  12   1 2650.91   86.05
  -8 -12  -1 3089.00  173.15
   8  12   2 1792.07  102.44
   8  12   2 1802.92   96.98
  -8 -12  -2 2042.48   97.02
   8  12   3  529.29   37.72
   8  12   3  599.84   58.55
  -8 -12  -3  672.05   68.18
   8  12   4 1404.37   46.89
   8  12   4 1297.87   47.82
  -8 -12  -4 1670.74  152.54
   8  12   5   19.29   15.82
   8  12   5    9.43   28.38
  -8 -12  -5   12.34   44.21
   8  12   6   52.94   25.84
   8  12   6   39.43   26.96
  -8 -12  -6  115.16   50.55
   8  12   7  140.85   26.36
   8  12   7  186.77   26.78
  -8 -12  -7  256.08  107.17
   8  12   8    0.28    8.76
   8  12   8    1.03    8.74
   8  12   8   23.90   47.78
  -8 -12  -8    0.88   44.31
   8  12   9   46.57   15.17
   8  12   9   56.94    9.06
   8  12   9   81.95   62.33
  -8 -12  -9  106.86   59.35
   8  12  10  181.24   15.47
   8  12  10  198.16   77.64
   8  12  10  225.22    9.46
  -8 -12 -10  366.63  134.12
   8  12  11 1106.65  212.60
  -8 -12 -11 1228.45  125.29
   8  12  12 7474.15  308.10
  -8 -12 -12 8045.22  313.79
   8  12  13  913.34  124.44
  -8 -12 -13  986.85  217.42
   8  12  14 1460.06  144.88
  -8 -12 -14 1588.62  152.33
   8  12  15  100.19   83.40
  -8 -12 -15  161.82   90.44
   8  12  16  -15.99   74.67
  -8 -12 -16  -70.58   80.26
   8  12  17   71.69   81.93
   8  12  18  -72.16  149.31
   8  13 -12   36.12  125.50
   8  13 -11   59.78   70.66
   8  13 -10  308.15   86.91
   8  13  -9    8.03   55.04
  -8 -13   9   -5.63    9.84
   8  13  -8 1992.76  220.11
   8  13  -7  554.54   76.29
  -8 -13   7  379.81   28.75
   8  13  -6  571.36   78.80
  -8 -13   6  577.32   39.17
   8  13  -5  -43.92   80.13
  -8 -13   5   59.07   43.10
   8  13  -4  375.59   59.28
  -8 -13   4  236.43   61.42
   8  13  -3   20.68   38.50
   8  13  -3   11.30   36.56
  -8 -13   3   34.42   26.72
   8  13  -2   43.20   36.64
   8  13  -2   21.06   34.40
  -8 -13   2   29.96   29.59
   8  13  -1   26.19   60.34
   8  13  -1   89.66   57.43
  -8 -13   1   45.26   32.79
   8  13   0   48.54   30.97
   8  13   0    9.88   29.30
  -8 -13   0   69.37   58.25
   8  13   1 1098.92   61.68
   8  13   1 1172.33   59.61
  -8 -13  -1 1345.53  119.62
   8  13   2   23.46   40.41
   8  13   2   -6.97   22.61
  -8 -13  -2   12.55   33.83
   8  13   3  887.95   73.77
   8  13   3  817.32   70.29
  -8 -13  -3  901.70   73.03
   8  13   4  133.34   42.20
   8  13   4   98.73   26.11
  -8 -13  -4  140.60   85.72
   8  13   5  668.27   35.48
   8  13   5  622.69   58.33
  -8 -13  -5  869.56   74.77
   8  13   6   42.45   31.88
   8  13   6   94.87   32.87
  -8 -13  -6   75.15   50.73
   8  13   7   22.31   15.40
   8  13   7   21.04   15.57
  -8 -13  -7   -2.59   46.93
   8  13   8  223.53   18.99
   8  13   8  184.31   18.68
   8  13   8  271.34   72.32
  -8 -13  -8  301.17  113.52
   8  13   9  161.02   28.31
   8  13   9  222.75   27.93
   8  13   9  211.67   75.23
  -8 -13  -9  286.05   68.35
   8  13  10   50.87   20.10
   8  13  10  120.22  115.90
   8  13  10   49.46   20.36
  -8 -13 -10   47.83   61.77
   8  13  11 4351.10  336.93
  -8 -13 -11 4599.97  328.16
   8  13  12 1988.81  157.04
  -8 -13 -12 2157.44  161.44
   8  13  13  522.03  107.93
  -8 -13 -13  662.84  114.41
   8  13  14  809.24  123.08
  -8 -13 -14 1029.06  130.13
   8  13  15  195.61   91.78
   8  13  16   65.87   80.69
   8  13  17   27.79  138.46
   8  14 -10    1.80   95.52
   8  14  -9  -11.22   55.82
   8  14  -8  183.08   71.74
   8  14  -7  182.91   46.39
  -8 -14   7   -6.71    9.52
   8  14  -6   19.61   74.51
   8  14  -6  -10.53   40.12
  -8 -14   6   -1.26   10.57
   8  14  -5  112.22   43.48
   8  14  -5   52.15   41.01
  -8 -14   5   -5.85   12.00
   8  14  -4  184.85   47.38
   8  14  -4  113.44   76.51
  -8 -14   4   23.86   18.91
   8  14  -3  244.52   54.00
   8  14  -3  242.88   98.22
  -8 -14   3  323.75   34.41
   8  14  -2   -5.29   37.48
   8  14  -2   35.23   35.53
  -8 -14   2   48.44   47.08
   8  14  -1   86.69   39.19
   8  14  -1   61.51   61.44
  -8 -14   1   24.47   55.35
   8  14   0  211.59   43.13
   8  14   0  204.41   40.28
  -8 -14   0  190.64   70.64
   8  14   1  -42.98   50.01
   8  14   1  -19.64   28.02
  -8 -14  -1    1.09   32.85
   8  14   2  156.42   35.56
   8  14   2  159.36   33.47
  -8 -14  -2  199.11   45.34
   8  14   3   34.76   29.80
   8  14   3   87.07   28.46
  -8 -14  -3  135.55   42.94
   8  14   4 1946.52   69.10
  -8 -14  -4 2573.38  167.15
   8  14   5    8.11   22.11
   8  14   5   18.47   21.43
  -8 -14  -5   56.26   74.19
   8  14   6  743.13   60.59
   8  14   6  709.59   39.30
  -8 -14  -6  870.73   81.68
   8  14   7   35.12   18.86
   8  14   7   26.63   33.34
  -8 -14  -7   95.44   50.19
   8  14   8   33.68   30.44
   8  14   8   44.19   31.52
   8  14   8   98.21   59.79
  -8 -14  -8   23.78   91.63
   8  14   9  534.44   27.16
   8  14   9  484.50   27.86
   8  14   9  729.69   91.45
  -8 -14  -9  727.82  146.00
   8  14  10   43.37  123.63
  -8 -14 -10  112.66   66.86
   8  14  11 1209.26  217.00
  -8 -14 -11 1413.58  126.47
   8  14  12   63.05   75.24
  -8 -14 -12  107.96   77.56
   8  14  13   62.79   74.03
   8  14  14  -33.59   71.61
   8  14  15   92.62   83.93
   8  15  -8   44.88   59.60
   8  15  -8  -61.96   31.17
   8  15  -7   -6.66   24.79
   8  15  -7   46.50   83.27
   8  15  -6  127.13   53.53
   8  15  -6  -30.71   45.31
   8  15  -5   89.76   45.58
   8  15  -5   -0.96   23.10
  -8 -15   5    6.07   11.13
   8  15  -4  135.29   75.80
   8  15  -4  -19.47   36.45
  -8 -15   4  -11.22   12.09
   8  15  -3    9.77   20.08
  -8 -15   3    6.03   12.77
   8  15  -2   14.71   28.82
  -8 -15   2   -2.92   12.27
   8  15  -1  405.45   71.12
   8  15  -1   12.11   20.45
   8  15   0  -84.76   62.70
   8  15   0   -6.28   18.88
   8  15   1   25.90   30.13
   8  15   1    7.11   26.39
  -8 -15  -1   -0.83   22.55
   8  15   2    6.31   31.54
   8  15   2   18.89   27.43
  -8 -15  -2   87.76   33.12
   8  15   3   74.53   49.12
   8  15   3   -8.96   25.24
  -8 -15  -3   73.11   36.32
   8  15   4    1.53   26.25
   8  15   4   18.56   23.32
  -8 -15  -4   65.50   66.00
   8  15   5 1093.45   56.86
  -8 -15  -5 1451.17  147.13
   8  15   6 1373.88   94.17
  -8 -15  -6 1708.25  109.55
   8  15   7  873.90   48.45
  -8 -15  -7 1228.73  100.12
   8  15   8   -1.14   10.85
   8  15   8   25.71   19.49
   8  15   8  -29.26   55.50
  -8 -15  -8  -15.20   50.87
   8  15   9 1363.23  125.69
  -8 -15  -9 1504.83  117.35
   8  15  10   14.66   60.08
   8  15  11   -7.40  103.65
   8  15  12   55.36   72.55
   8  15  13  159.92   84.83
   8  16  -5  109.92   78.54
   8  16  -5   -6.88   22.28
   8  16  -4   38.55   81.26
   8  16  -4   14.02   38.37
   8  16  -3  159.81   42.28
   8  16  -3   -0.22   20.50
  -8 -16   3   -6.58   12.24
   8  16  -2   26.72   37.53
   8  16  -2  -24.93   30.70
  -8 -16   2   -0.14   12.40
   8  16  -1   23.19   60.57
   8  16  -1   -4.86   17.79
  -8 -16   1   -1.01   13.11
   8  16   0   49.42   34.79
   8  16   0   -5.41   28.66
  -8 -16   0    0.25   14.65
   8  16   1   42.33   33.85
   8  16   1   18.48   27.33
  -8 -16  -1  -27.05   15.80
   8  16   2   16.18   51.32
   8  16   2   -9.72   15.12
  -8 -16  -2    3.98   15.94
   8  16   3   -5.27   49.15
   8  16   3   -2.77   15.39
  -8 -16  -3  -10.06   17.83
   8  16   4  107.87   29.91
   8  16   4   -1.17   15.71
  -8 -16  -4    7.98   20.04
   8  16   5   51.88   49.80
   8  16   5   24.04   14.91
  -8 -16  -5   -4.78   22.66
   8  16   6 1674.79  115.99
   8  16   7 2772.49  102.70
   8  16   8 8253.47  328.20
   8  16   9 1047.17  124.97
   8  16  10  -31.90   66.75
   8  17   1   40.30   40.35
   8  17   1   19.36   18.99
   8  17   2 1428.14   93.81
   8  17   2  -13.54   39.37
   8  17   3  414.92   48.48
   8  17   3    3.78   36.26
   8  17   4   44.74   32.54
   8  17   4    5.88   16.93
   9  -8  -1  920.63  142.61
  -9   8   1  679.98  250.86
   9  -8   0   85.50   92.52
  -9   8   0   97.82   96.53
   9  -8   1  702.87  127.35
  -9   8  -1  601.69  132.37
   9  -8   2   47.87   80.46
  -9   8  -2   28.47   83.38
  -9   8  -3  113.18   92.72
   9  -7  -7   73.42   95.09
   9  -7  -6  -33.56   71.99
  -9   7   6   31.74   73.88
   9  -7  -5   31.93   86.91
  -9   7   5   96.48  152.29
   9  -7  -4 1306.78  153.20
  -9   7   4 1274.35  159.19
   9  -7  -3  -10.60  128.58
  -9   7   3   31.05  134.92
   9  -7  -2 -141.18   90.91
  -9   7   2  -17.00   93.97
   9  -7  -1 2547.18  193.75
  -9   7   1 3061.35  357.55
   9  -7   0 6154.90  307.41
  -9   7   0 6734.99  318.26
   9  -7   1 2302.23  187.91
  -9   7  -1 2001.81  188.90
   9  -7   2  619.20  118.50
  -9   7  -2  787.10  123.25
   9  -7   3  728.19  122.04
  -9   7  -3  884.60  122.96
  -9   7  -4   77.65  136.41
  -9   7  -5   12.71   64.96
  -9   7  -6   64.83   74.07
  -9   7  -7  -74.87   75.47
  -9   7  -8   69.05   74.50
  -9   7  -9  550.62  183.21
   9  -6  -9  548.29  134.62
  -9   6   9  645.34  237.10
   9  -6  -8  364.75  118.53
  -9   6   8  339.11  116.67
   9  -6  -7  -45.81   82.29
  -9   6   7    7.52  149.93
   9  -6  -6  304.98  197.22
  -9   6   6  402.60  114.93
   9  -6  -5  752.11  127.86
  -9   6   5  623.30  223.19
   9  -6  -4   32.52  142.06
  -9   6   4   88.48   83.14
   9  -6  -3  370.85  102.67
  -9   6   3  323.53  180.74
   9  -6  -2  168.32   84.13
  -9   6   2   58.46   89.27
   9  -6  -1 2426.54  174.10
  -9   6   1 2359.65  176.94
   9  -6   0  547.59  113.62
  -9   6   0  757.99  112.61
   9  -6   1   22.47   60.09
  -9   6  -1  -34.94   61.20
   9  -6   2  106.11  125.57
  -9   6  -2   74.06   74.66
   9  -6   3   -0.97   55.15
  -9   6  -3   -3.74   57.14
  -9   6  -4  103.83  127.88
  -9   6  -5  171.54   79.05
  -9   6  -6   55.59  118.09
  -9   6  -7  208.46   80.46
  -9   6  -8   76.13   69.49
  -9   6  -9  172.20  143.09
  -9   6 -10 2844.32  175.30
  -9   6 -11  104.10   68.94
  -9   6 -11    7.23   66.00
  -9   6 -12  296.65  124.75
  -9   6 -12   15.49  127.75
   9  -5 -11    3.44  169.82
  -9   5  11  101.73  163.92
   9  -5 -10  175.36  113.07
  -9   5  10  176.62  108.90
   9  -5  -9 1933.56  188.46
  -9   5   9 1692.67  181.63
   9  -5  -8  120.44   97.85
  -9   5   8  133.64   94.55
   9  -5  -7   73.15  126.16
  -9   5   7   -4.80   73.93
   9  -5  -6  270.58   95.50
  -9   5   6  198.96   98.11
   9  -5  -5  -41.18   75.61
  -9   5   5  -59.09   77.97
   9  -5  -4  313.97   97.16
  -9   5   4  278.82   97.29
   9  -5  -3  757.00  117.99
  -9   5   3  870.39  120.22
   9  -5  -2  -54.91   67.12
  -9   5   2    4.38   68.58
   9  -5  -1 1098.03  123.93
  -9   5   1 1239.21  126.10
   9  -5   0  774.18  106.40
  -9   5   0  699.60  187.30
   9  -5   1  398.16   82.14
  -9   5  -1   22.68   85.14
   9  -5   2 3003.54  162.26
  -9   5  -2 3117.45  270.78
   9  -5   3   -4.81  120.70
  -9   5  -3 -118.71   69.28
   9  -5   4   86.86   65.64
  -9   5  -4  130.52  117.99
  -9   5  -5   -8.42   52.44
  -9   5  -6  569.80  157.06
  -9   5  -7 1531.30  121.67
  -9   5  -8  -14.07   56.07
  -9   5  -9   68.40   64.64
  -9   5  -9   49.39   37.67
  -9   5 -10 2668.02  154.01
  -9   5 -11  -79.30   98.77
  -9   5 -11   -6.94   54.57
  -9   5 -12   31.10   53.24
  -9   5 -12    0.98   92.41
  -9   5 -13   17.85   49.53
  -9   5 -13    1.38   47.51
  -9   5 -14   -4.85   48.12
  -9   5 -14  -25.58   84.11
   9  -4 -13    1.47   88.92
  -9   4  13   50.82   83.93
  -9   4  12    7.23  132.59
   9  -4 -11    1.66  145.41
  -9   4  11   39.80   80.75
   9  -4 -10   -1.95   80.06
  -9   4  10  123.37  139.49
   9  -4  -9    5.37   83.44
  -9   4   9  122.70   82.30
   9  -4  -8    3.87  130.04
  -9   4   8   45.92  126.45
   9  -4  -7  130.50   89.43
  -9   4   7  173.86   87.10
   9  -4  -6  958.70  124.66
  -9   4   6  847.11  210.42
   9  -4  -5   84.78  115.52
  -9   4   5   -0.25   67.28
   9  -4  -4  -29.95   65.85
  -9   4   4  -59.91  117.91
   9  -4  -3   28.93  113.48
  -9   4   3  -52.63   65.55
   9  -4  -2 1465.93  128.72
  -9   4   2 1485.56  214.30
   9  -4  -1   94.06  119.11
  -9   4   1   51.25   69.42
   9  -4   0 2723.79  158.50
  -9   4   0 3034.24  259.33
   9  -4   1 1060.26  106.41
  -9   4  -1 1039.14  109.94
   9  -4   2   97.04  119.05
  -9   4  -2  166.64  120.19
   9  -4   3 1283.32  108.76
  -9   4  -3 1363.30  108.90
   9  -4   4  181.16   65.65
  -9   4  -4  136.57  115.17
  -9   4  -5  -10.98   49.13
  -9   4  -6  624.63  144.89
  -9   4  -7    8.58   49.30
  -9   4  -8 1931.30  215.79
  -9   4  -9 6557.84  234.91
  -9   4  -9 5011.44  176.60
  -9   4 -10  -25.48   67.24
  -9   4 -10  118.34   40.76
  -9   4 -11  367.76  130.69
  -9   4 -11  400.36   50.66
  -9   4 -11  431.81   72.46
  -9   4 -12   23.86   55.05
  -9   4 -12    9.78   48.17
  -9   4 -12   25.81   79.46
  -9   4 -13   81.00   51.68
  -9   4 -13    6.23   47.68
  -9   4 -14   -3.48   40.90
  -9   4 -14   -7.34   43.97
  -9   4 -15   -0.93   75.49
  -9   4 -15   20.03   46.58
   9  -3 -14    3.54   77.01
  -9   3  13    8.31   71.70
  -9   3  12   17.27   72.11
   9  -3 -11    0.35   87.59
  -9   3  11  309.93  145.62
   9  -3 -10    2.30   82.12
  -9   3  10   98.13   77.31
   9  -3  -9   -1.32   71.43
  -9   3   9   74.31  125.63
   9  -3  -8    0.50   85.87
  -9   3   8  287.40   85.14
   9  -3  -7  740.76  114.76
  -9   3   7  802.41  195.68
   9  -3  -6  871.99  201.58
  -9   3   6 1048.14  118.10
   9  -3  -5  394.75   92.23
  -9   3   5  425.79  158.56
   9  -3  -4  -11.08   54.02
  -9   3   4    5.68   53.28
   9  -3  -3  465.10   87.73
  -9   3   3  343.29  152.37
   9  -3  -2   48.33   59.84
  -9   3   2   44.54   60.45
   9  -3  -1  137.56   66.10
  -9   3   1  135.39  118.80
   9  -3   0  281.77  134.40
  -9   3   0  359.74   77.17
   9  -3   1 2260.02  132.52
  -9   3  -1 2692.70  217.96
   9  -3   2  645.43   83.09
  -9   3  -2  600.86   83.51
   9  -3   3  244.95  116.56
  -9   3  -3  289.04   67.99
   9  -3   4  673.59  130.91
  -9   3  -4  536.97   77.61
   9  -3   5  371.23   67.25
  -9   3  -5  357.00   67.33
  -9   3  -6  199.73   58.72
  -9   3  -7  334.79   66.44
  -9   3  -8  -25.50   47.45
  -9   3  -9   99.64   57.21
  -9   3  -9   67.12   44.36
  -9   3 -10 1491.38  104.42
  -9   3 -10 1193.89   85.96
  -9   3 -11  703.47   84.82
  -9   3 -11  706.74   70.19
  -9   3 -11  972.07   84.42
  -9   3 -12  708.05   63.36
  -9   3 -12  811.76   85.49
  -9   3 -12  913.36  133.72
  -9   3 -13  803.97  106.48
  -9   3 -13  950.86  140.29
  -9   3 -13 1079.01  127.36
  -9   3 -14  154.60   48.36
  -9   3 -14   90.44   53.91
  -9   3 -15   24.61   33.39
  -9   3 -15  -31.16   37.08
  -9   3 -16  309.73   93.50
  -9   3 -16  327.61  105.47
  -9   3 -17  145.98   82.02
  -9   3 -17   53.51   61.34
  -9   3 -17  168.56   53.05
   9  -2 -15    0.90   77.50
  -9   2  14   71.32   90.79
  -9   2  13  194.12   99.55
   9  -2 -12    1.98   70.63
  -9   2  12  -14.45   68.16
   9  -2 -11    1.55   76.29
  -9   2  11  -63.54   74.68
   9  -2 -10 2926.54  201.76
  -9   2  10 3208.95  317.76
  -9   2   9 1035.24  130.27
   9  -2  -8 1876.93  151.39
  -9   2   8 2159.42  257.36
   9  -2  -7  770.03  113.60
  -9   2   7  786.02  108.84
   9  -2  -6   66.45  116.15
  -9   2   6   23.47  113.39
   9  -2  -5  213.34   77.16
  -9   2   5  207.29   76.32
   9  -2  -4 1358.38  199.53
  -9   2   4 1426.31  197.87
   9  -2  -3  457.30   85.83
  -9   2   3  452.65   85.42
   9  -2  -2  245.68  129.48
  -9   2   2  406.48  131.37
   9  -2  -1 2452.03  133.39
  -9   2   1 2577.35  133.56
   9  -2   0  788.99   87.64
  -9   2   0  832.54  152.04
   9  -2   1 1076.80  154.99
  -9   2  -1 1029.80   91.82
   9  -2   2  949.98  150.40
  -9   2  -2 1138.67   89.46
   9  -2   3 2215.96  108.64
  -9   2  -3 2159.26  109.08
   9  -2   4  887.38   76.61
  -9   2  -4  864.49   76.38
   9  -2   5  239.64   54.42
  -9   2  -5  241.43   95.86
  -9   2  -6  214.62   52.47
  -9   2  -7  186.83   86.38
  -9   2  -8  155.05   47.79
  -9   2  -9  201.81   53.31
  -9   2  -9  278.17   84.96
  -9   2 -10  999.99   74.24
  -9   2 -10  800.28   69.80
  -9   2 -11 3344.46  130.35
  -9   2 -11 2900.62  121.04
  -9   2 -11 3815.68  133.64
  -9   2 -12   34.92   34.51
  -9   2 -12  -17.65   40.20
  -9   2 -12   15.34   34.82
  -9   2 -13   -9.47   35.02
  -9   2 -13  -36.12   34.12
  -9   2 -13    0.56   68.98
  -9   2 -14   32.87   58.20
  -9   2 -14  -30.19   36.90
  -9   2 -14   -8.17   54.75
  -9   2 -15    2.11   58.47
  -9   2 -15    4.00   64.36
  -9   2 -15  -48.39   54.07
  -9   2 -16   52.36   36.12
  -9   2 -16   22.57   39.43
  -9   2 -17   22.11   31.69
  -9   2 -17   -8.69   28.75
  -9   2 -17    2.93   35.13
  -9   2 -18   22.42   65.23
  -9   2 -18  126.44   41.67
  -9   2 -18   16.51   33.96
  -9   1  16   62.90  166.65
  -9   1  15 1467.11  177.83
  -9   1  14  151.93  100.54
   9  -1 -13    4.84   79.14
  -9   1  13  -75.60   76.72
   9  -1 -12    0.13   69.46
  -9   1  12  -17.67   67.40
   9  -1 -11   -3.93   66.17
  -9   1  10 3214.97  196.40
   9  -1  -9 7364.43  446.76
  -9   1   9 6688.22  275.93
   9  -1  -8  340.91   98.52
  -9   1   8  542.63   96.95
   9  -1  -7  569.81  103.22
  -9   1   7  507.80   99.26
   9  -1  -6 9530.87  343.76
  -9   1   6 9967.46  342.02
   9  -1  -5  148.99   79.24
  -9   1   5  145.35   78.24
   9  -1  -4  568.98  161.55
  -9   1   4  560.99   86.17
   9  -1  -3 3039.62  148.56
  -9   1   3 3120.07  146.96
   9  -1  -2  496.78   81.91
  -9   1   2  649.15   81.90
   9  -1  -1  -20.26   97.95
  -9   1   1  117.49   96.15
   9  -1   0 9730.87  299.01
  -9   1   010061.73  303.11
   9  -1   112604.39  358.04
  -9   1  -112733.73  488.67
   9  -1   2 2582.39  113.89
  -9   1  -2 2412.95  118.76
   9  -1   3  395.19   56.41
  -9   1  -3  435.45   57.84
   9  -1   4  228.44   85.05
  -9   1  -4  237.04   84.95
   9  -1   5  -11.05   51.47
  -9   1  -5    3.58   30.61
  -9   1  -6   64.70   39.02
  -9   1  -7   86.34   69.83
  -9   1  -8  883.70   64.90
  -9   1  -8  794.31   77.30
  -9   1  -9 1204.10  117.26
  -9   1  -9 1086.78  133.80
  -9   1 -10   77.25   34.46
  -9   1 -10  -17.28   66.80
  -9   1 -10  -22.19   32.17
  -9   1 -11  402.37   88.40
  -9   1 -11  484.77   56.94
  -9   1 -11  601.16   85.16
  -9   1 -12  815.87   66.01
  -9   1 -12  871.00   61.96
  -9   1 -12  975.89   96.62
  -9   1 -13   20.87   28.28
  -9   1 -13  -29.86   31.82
  -9   1 -13   50.16   51.48
  -9   1 -14   80.93   35.82
  -9   1 -14   96.11   67.11
  -9   1 -14   95.64   37.20
  -9   1 -15  -59.35   31.75
  -9   1 -15   -9.14   57.80
  -9   1 -15   -2.72   59.88
  -9   1 -16   77.08   55.75
  -9   1 -16   73.87   34.18
  -9   1 -16    3.86   35.63
  -9   1 -17   54.06   54.71
  -9   1 -17   37.03   34.73
  -9   1 -17   26.56   34.19
  -9   1 -18   53.45   34.19
  -9   1 -18  102.59   61.49
  -9   1 -18   38.49   35.99
  -9   1 -19  260.41   48.24
  -9   1 -19  310.01   48.45
  -9   1 -19  387.01   50.55
  -9   0  16  242.60  109.15
   9   0 -15    1.44  106.42
  -9   0  15  330.87  100.42
   9   0 -14    3.91  100.45
  -9   0  14  639.90  169.97
   9   0 -13    1.89   74.23
  -9   0  13   54.69   73.39
   9   0 -12   -2.60   62.51
   9   0 -11    1.36   75.77
  -9   0  11  160.97   74.31
  -9   0  10 1870.09  140.14
   9   0  -9  112.17   76.80
  -9   0   9  176.46  128.39
   9   0  -8   98.23   72.64
  -9   0   8  139.57   68.75
   9   0  -7  142.51  143.17
  -9   0   7  200.54  138.22
   9   0  -6  957.95  130.61
  -9   0   6 1149.47  126.00
   9   0  -514576.73  489.93
  -9   0   515590.43  656.09
   9   0  -4 2542.18  150.95
  -9   0   4 2558.71  152.64
   9   0  -3  399.20   81.93
  -9   0   3  493.71  133.22
   9   0  -2 1846.01  115.11
  -9   0   2 1804.59  113.24
   9   0  -1 1390.02  186.11
  -9   0   1 1350.07  183.28
   9   0   028136.68 1016.79
  -9   0   029397.74  805.87
   9   0   133265.40  948.80
  -9   0  -136082.25  988.71
   9   0   2 1398.18   93.96
  -9   0  -2 1851.62  148.84
   9   0   3  325.17   52.52
  -9   0  -3  428.84   53.87
   9   0   4 6613.53  175.78
  -9   0  -4 6922.45  178.98
   9   0   5  368.19   47.19
  -9   0  -5  332.03   82.18
  -9   0  -6    1.29   27.01
  -9   0  -7  166.67   38.13
  -9   0  -8  460.16   80.93
  -9   0  -8  472.16   66.64
  -9   0  -9  952.75   57.64
  -9   0  -9  932.33   81.01
  -9   0 -10  115.25   35.74
  -9   0 -10  128.22   51.67
  -9   0 -10  140.74   34.67
  -9   0 -11  757.16   82.29
  -9   0 -11  618.78  114.44
  -9   0 -11  588.26   45.96
  -9   0 -12  132.28   32.11
  -9   0 -12   85.37   46.36
  -9   0 -12   97.58   32.81
  -9   0 -13  769.49   70.55
  -9   0 -13  844.43   51.86
  -9   0 -13  952.20   84.92
  -9   0 -14  -17.47   24.79
  -9   0 -14   48.82   25.25
  -9   0 -14  -23.17   33.76
  -9   0 -15  184.64   58.11
  -9   0 -15  156.15   59.18
  -9   0 -15  163.54   78.38
  -9   0 -16   24.02   48.92
  -9   0 -16   65.15   29.07
  -9   0 -16  -21.58   65.59
  -9   0 -17  311.00   49.19
  -9   0 -17  221.58   63.78
  -9   0 -17  278.67   66.97
  -9   0 -18   97.55   34.49
  -9   0 -18  108.75   36.27
  -9   0 -18  196.10   43.69
  -9   0 -19   14.18   74.14
  -9   0 -19  129.04   37.69
  -9   0 -19  148.27   35.53
  -9   0 -20  -85.15   32.57
  -9   0 -20  -15.61   65.38
  -9   0 -20   25.13   52.49
   9   1 -17   -2.06   78.85
  -9  -1  17  -14.38   77.42
   9   1 -16  189.09  103.71
  -9  -1  16  180.81  100.82
   9   1 -15    4.56   79.19
  -9  -1  15 -113.03  132.84
   9   1 -14   91.70   87.35
  -9  -1  14  132.20   83.19
   9   1 -13  163.99   88.41
  -9  -1  13  174.79   85.24
   9   1 -12   94.03   77.65
  -9  -1  12   79.49   75.31
   9   1 -11 -224.95  118.71
  -9  -1  11   26.67   64.88
   9   1 -10  263.76  154.33
  -9  -1  10  484.32  151.75
   9   1  -9   16.18   52.59
  -9  -1   9   -6.94   50.98
   9   1  -8   88.48   61.90
  -9  -1   8   47.95   59.74
   9   1  -7  535.63  156.38
  -9  -1   7  590.88   88.94
   9   1  -6 1904.53  131.19
  -9  -1   6 1833.86  122.12
   9   1  -5 1702.71  122.03
  -9  -1   5 1917.75  199.01
   9   1  -4 5764.81  215.58
  -9  -1   4 5879.40  208.52
   9   1  -3 1254.03   95.59
  -9  -1   3 1342.32  157.42
   9   1  -2  232.97   59.08
  -9  -1   2  269.22   58.18
   9   1  -1   83.99   50.45
  -9  -1   1  112.54   85.66
   9   1   017852.80  585.28
  -9  -1   017856.09  451.67
   9   1   1 4404.10  209.36
  -9  -1  -1 4298.14  142.39
   9   1   2  483.97   89.48
  -9  -1  -2  484.10   89.15
   9   1   3   46.34   55.76
  -9  -1  -3   24.06   32.01
   9   1   4   82.46   35.68
  -9  -1  -4  100.47   37.16
   9   1   5 6478.48  162.51
  -9  -1  -5 7126.22  232.28
  -9  -1  -6   59.44   32.31
  -9  -1  -7 1514.28   60.58
  -9  -1  -7 1424.89   99.47
  -9  -1  -8  420.60   38.62
  -9  -1  -8  276.10  118.75
  -9  -1  -9   -2.12   42.94
  -9  -1  -9   54.47   45.55
  -9  -1 -10  742.16   74.62
  -9  -1 -10  708.31   77.05
  -9  -1 -10  777.61   71.57
  -9  -1 -11 2571.65  110.23
  -9  -1 -11 2416.29  120.63
  -9  -1 -11 2526.77   76.31
  -9  -1 -12  230.92  106.05
  -9  -1 -12  285.39   31.32
  -9  -1 -12  248.46   31.21
  -9  -1 -13  664.47   75.11
  -9  -1 -13  716.01   41.76
  -9  -1 -13  700.88   67.41
  -9  -1 -14    4.77   20.61
  -9  -1 -14  -16.54   21.24
  -9  -1 -14   -8.88   38.22
  -9  -1 -15   18.34   23.60
  -9  -1 -15   35.55   41.19
  -9  -1 -15   86.35   43.36
  -9  -1 -16  228.23   98.67
  -9  -1 -16  290.94   34.92
  -9  -1 -16  276.77   57.23
  -9  -1 -17   85.82   45.28
  -9  -1 -17   88.30   46.71
  -9  -1 -17   46.53   48.81
  -9  -1 -18  777.96   53.54
  -9  -1 -18  819.03   49.30
  -9  -1 -18 1016.17   76.10
  -9  -1 -19    0.08  103.08
  -9  -1 -19  360.22   42.91
  -9  -1 -19  387.24   38.87
  -9  -1 -20   -2.09   63.85
   9   2 -17  654.12  139.01
  -9  -2  17  558.77  133.03
   9   2 -16  -39.36   82.85
  -9  -2  16    5.51  138.93
   9   2 -15  140.03   86.38
  -9  -2  15   26.27   81.49
   9   2 -14   88.62   92.04
  -9  -2  14  210.30   86.91
   9   2 -13   53.04   68.17
  -9  -2  13  -83.47  113.08
   9   2 -12  681.01  110.50
  -9  -2  12  722.87  106.26
   9   2 -11  598.90  176.62
  -9  -2  11  675.82   98.26
   9   2 -10   -2.95   54.67
  -9  -2  10   38.76   93.89
   9   2  -9   53.62   55.67
  -9  -2   9  -12.01   54.80
   9   2  -8    6.59   47.07
  -9  -2   8  -10.30   46.36
   9   2  -7 1351.45  172.81
  -9  -2   7 1231.71   99.06
   9   2  -6 1183.64   97.80
  -9  -2   6 1265.91   94.24
   9   2  -5   36.88   45.79
  -9  -2   5    1.07   78.68
   9   2  -4   60.71   47.78
  -9  -2   4   52.34   45.88
   9   2  -3  273.63   55.67
  -9  -2   3  287.97   93.86
   9   2  -2  867.58   68.76
  -9  -2   2  881.75   66.53
   9   2  -1  166.59   45.43
  -9  -2   1  171.87   74.71
   9   2   0  804.96   98.26
  -9  -2   0  753.26   57.46
   9   2   1  290.55   76.72
  -9  -2  -1  351.28   74.18
   9   2   2 5133.93  133.26
  -9  -2  -2 5399.97  135.25
   9   2   3  493.59   43.12
  -9  -2  -3  564.54   73.49
   9   2   4 2537.94  118.83
  -9  -2  -4 2860.21  121.63
   9   2   5 1255.26   52.51
  -9  -2  -5 1275.93   52.49
  -9  -2  -6 1846.75   59.50
  -9  -2  -6 1612.48  112.42
  -9  -2  -7   46.18   22.33
  -9  -2  -7   -5.79   52.03
  -9  -2  -8 1410.05   77.00
  -9  -2  -8 1285.56  100.47
  -9  -2  -9  118.88   42.01
  -9  -2  -9   40.41   56.82
  -9  -2  -9  117.89   22.72
  -9  -2 -10 3725.39  115.00
  -9  -2 -10 3788.05  123.01
  -9  -2 -10 3712.65  239.31
  -9  -2 -11  364.71   26.93
  -9  -2 -11  344.27   69.81
  -9  -2 -11  350.13   47.37
  -9  -2 -12  179.97   62.63
  -9  -2 -12  194.72   40.43
  -9  -2 -12  252.80   42.76
  -9  -2 -13  403.78   45.23
  -9  -2 -13  306.52   28.42
  -9  -2 -13  435.95  116.36
  -9  -2 -14   51.65   31.55
  -9  -2 -14   -0.41   19.38
  -9  -2 -14   43.52   45.60
  -9  -2 -15   -9.20   32.06
  -9  -2 -15    0.39   29.92
  -9  -2 -15   29.80   41.96
  -9  -2 -16  160.39   62.08
  -9  -2 -16  249.08   29.62
  -9  -2 -16  225.21   28.03
  -9  -2 -17  558.19  118.46
  -9  -2 -17  425.17   59.85
  -9  -2 -17  437.84   34.27
  -9  -2 -18  791.42   48.92
  -9  -2 -18  821.22   72.90
  -9  -2 -18 1025.59   85.51
  -9  -2 -19  968.10   91.83
  -9  -2 -20  -14.99   80.46
  -9  -2 -21   11.05   45.33
   9   3 -17  119.39  187.60
  -9  -3  17  131.95  178.98
   9   3 -16  -33.85  145.11
  -9  -3  16  -26.35   78.63
   9   3 -15  123.28  147.77
  -9  -3  15   56.69   81.28
   9   3 -14  138.84  119.12
  -9  -3  14  -27.52   66.35
   9   3 -13  168.09  123.65
  -9  -3  13    1.30   66.88
   9   3 -12  251.93  157.94
  -9  -3  12  358.87   87.71
   9   3 -11  123.12  112.12
  -9  -3  11    6.81   61.27
   9   3 -10   -8.73   50.58
  -9  -3  10   20.50   84.87
   9   3  -9  -12.59   46.08
  -9  -3   9   11.28   43.45
   9   3  -8   29.99   47.51
  -9  -3   8  -18.75   44.93
   9   3  -7 1907.16  193.80
  -9  -3   7 2180.48  189.71
   9   3  -6    7.53   41.13
  -9  -3   6    2.95   40.24
   9   3  -5  295.27   58.77
  -9  -3   5  293.68   58.21
   9   3  -4  275.77   93.91
  -9  -3   4  277.64   91.11
   9   3  -3   21.05   32.63
  -9  -3   3  -13.90   31.86
   9   3  -2  710.25   60.64
  -9  -3   2  812.94   95.80
   9   3  -1 1409.77  113.56
  -9  -3   1 1456.78   67.56
   9   3   0  543.71   80.91
  -9  -3   0  591.08   46.37
   9   3   1  435.12   70.17
  -9  -3  -1  469.00   40.75
   9   3   2  -21.47   22.96
  -9  -3  -2   -0.03   22.41
   9   3   3   22.19   36.90
  -9  -3  -3   12.98   20.94
   9   3   4 2210.12   61.16
  -9  -3  -4 2452.47   92.81
   9   3   5   22.98   17.64
  -9  -3  -5    4.96   17.74
  -9  -3  -6   25.03   18.03
  -9  -3  -6   86.73   51.84
  -9  -3  -7 3950.65  105.01
  -9  -3  -7 3581.30  159.84
  -9  -3  -8   98.31   31.79
  -9  -3  -8  -31.78  104.54
  -9  -3  -8  120.34   16.63
  -9  -3  -9  103.49   25.56
  -9  -3  -9   97.44   28.38
  -9  -3  -9   90.18   57.24
  -9  -3 -10   15.20   13.02
  -9  -3 -10   14.24   20.69
  -9  -3 -10   15.81   48.47
  -9  -3 -11  100.63  102.34
  -9  -3 -11   84.94   15.26
  -9  -3 -11  108.14   14.45
  -9  -3 -12  119.80   61.66
  -9  -3 -12  164.06   17.26
  -9  -3 -12  150.62   27.48
  -9  -3 -13 1026.73   53.55
  -9  -3 -13 1075.58   49.78
  -9  -3 -13 1255.66   96.00
  -9  -3 -14  153.00   19.68
  -9  -3 -14  149.23   30.97
  -9  -3 -14  142.15   63.12
  -9  -3 -15 2484.13   69.21
  -9  -3 -15 3300.87  143.54
  -9  -3 -15 2771.12   93.45
  -9  -3 -16 1286.00   95.31
  -9  -3 -16  895.81   39.44
  -9  -3 -16 1062.25   60.37
  -9  -3 -17  497.66   55.33
  -9  -3 -17  637.34   33.35
  -9  -3 -17  869.60  139.52
  -9  -3 -18  256.56   67.13
  -9  -3 -19  116.94   59.94
  -9  -3 -20  422.52  132.44
  -9  -3 -21  143.97   59.37
   9   4 -17  886.51  159.84
  -9  -4  17 1117.18  155.81
   9   4 -16  994.96  253.95
  -9  -4  16  942.30  141.62
   9   4 -15  796.90  221.17
  -9  -4  15  778.18  123.48
   9   4 -14  -19.91  122.82
  -9  -4  14   57.46  118.10
   9   4 -13  259.85  154.81
  -9  -4  13  226.41   85.39
   9   4 -12   84.09  129.81
  -9  -4  12   91.04   70.98
   9   4 -11  115.55   67.91
  -9  -4  11   10.43   66.11
   9   4 -10  906.19  108.60
  -9  -4  10  753.82  181.53
   9   4  -9 2700.86  154.14
  -9  -4   9 2801.13  144.44
   9   4  -8 2301.24  135.58
  -9  -4   8 2603.68  130.27
   9   4  -7   -5.66   43.13
  -9  -4   7   38.06   72.54
   9   4  -6   96.99   93.34
  -9  -4   6  172.77   88.41
   9   4  -5  425.70   61.49
  -9  -4   5  465.09   59.19
   9   4  -4  344.23   92.09
  -9  -4   4  368.46   51.48
   9   4  -3 1145.28   70.23
  -9  -4   3 1282.84  110.60
   9   4  -2  125.66   68.04
  -9  -4   2  206.02   39.44
   9   4  -1   13.03   27.23
  -9  -4   1  -41.20   26.93
   9   4   0  119.34   31.30
  -9  -4   0  127.95   52.91
   9   4   1   69.00   45.91
  -9  -4  -1   78.71   43.55
   9   4   2  809.85   39.36
  -9  -4  -2  798.87   37.84
   9   4   3  961.38   59.83
  -9  -4  -3  913.81   58.20
   9   4   4  -11.73   25.80
  -9  -4  -4  -12.99   24.92
   9   4   5   38.79   14.23
  -9  -4  -5   76.67   54.14
  -9  -4  -5   46.80   13.77
  -9  -4  -6  438.76   79.47
  -9  -4  -6  491.32   30.73
  -9  -4  -7 1228.94  171.44
  -9  -4  -7 1150.68   24.29
  -9  -4  -8  877.79   25.59
  -9  -4  -8  842.54   93.80
  -9  -4  -8  866.50   26.91
  -9  -4  -9    7.54   51.06
  -9  -4  -9   23.23    9.37
  -9  -4  -9   17.92   10.35
  -9  -4 -10  525.02   17.66
  -9  -4 -10  795.63  140.44
  -9  -4 -11  225.05   64.86
  -9  -4 -11  151.24   12.82
  -9  -4 -11  155.36   12.82
  -9  -4 -12  932.23   25.42
  -9  -4 -12 1126.95   94.60
  -9  -4 -13  423.43   22.51
  -9  -4 -13  453.15   22.22
  -9  -4 -13  584.36  134.19
  -9  -4 -14    4.16   14.51
  -9  -4 -14  -30.33   46.70
  -9  -4 -14    5.65   13.46
  -9  -4 -15   47.15   51.45
  -9  -4 -15   19.23   11.01
  -9  -4 -15   27.92   17.52
  -9  -4 -16  951.27   85.64
  -9  -4 -16  546.36   38.55
  -9  -4 -16  556.38   35.36
  -9  -4 -17  488.11   80.43
  -9  -4 -18  124.42  109.73
  -9  -4 -19   59.14   56.81
  -9  -4 -20   41.24   99.60
  -9  -4 -21  145.58   66.81
   9   5 -17  480.84  132.31
  -9  -5  17  407.46  122.00
   9   5 -16  721.65  136.73
  -9  -5  16  669.33  123.56
   9   5 -15  105.15   91.04
  -9  -5  15  231.85  147.34
   9   5 -14  127.00   81.57
  -9  -5  14   43.87  133.71
   9   5 -13  158.20   81.95
  -9  -5  13  131.58   76.60
   9   5 -12  348.44   94.77
  -9  -5  12  376.17   85.99
   9   5 -11   80.05   70.81
  -9  -5  11   48.26   63.39
   9   5 -10 6548.96  272.35
  -9  -5  10 7099.27  368.35
   9   5  -9 2431.20  145.13
  -9  -5   9 2417.01  135.32
   9   5  -8 5189.00  210.78
  -9  -5   8 5285.76  199.07
   9   5  -7  999.95   92.33
  -9  -5   7 1216.51   87.29
   9   5  -6 1728.29  165.75
  -9  -5   6 1868.90   96.89
   9   5  -5  457.96   60.34
  -9  -5   5  624.91  101.22
   9   5  -4  104.01   42.92
  -9  -5   4  186.47   71.50
   9   5  -3   74.44   62.66
  -9  -5   3   65.22   34.34
   9   5  -2  330.35   42.04
  -9  -5   2  303.36   40.76
   9   5  -1   58.00   30.01
  -9  -5   1   81.62   29.55
   9   5   0  466.98   39.15
  -9  -5   0  499.70   38.23
   9   5   1 1639.51   55.85
  -9  -5  -1 1737.53   54.27
   9   5   2 1194.05   65.19
  -9  -5  -2 1157.89   39.10
   9   5   3 1693.08   64.01
  -9  -5  -3 1708.53   41.61
  -9  -5  -3 1747.43  110.82
   9   5   4  420.98   32.20
  -9  -5  -4  444.44   30.70
  -9  -5  -4  496.28   75.90
   9   5   5 2648.82   54.45
  -9  -5  -5 2795.68   42.90
  -9  -5  -5 2926.93  139.89
  -9  -5  -6   73.00  103.50
  -9  -5  -7 1509.54  112.29
  -9  -5  -8  413.15   82.70
  -9  -5  -9 1029.38  175.78
  -9  -5 -10   68.86   61.65
  -9  -5 -11  -22.41   93.66
  -9  -5 -12  237.62   70.22
  -9  -5 -13   49.93   58.71
  -9  -5 -14   28.48   96.99
  -9  -5 -15  -48.34   57.27
  -9  -5 -16  181.50  121.06
  -9  -5 -17  257.58   74.71
  -9  -5 -18   19.72   54.82
  -9  -5 -19   40.83   57.95
  -9  -5 -20   66.04   61.76
  -9  -5 -21  122.75  117.92
   9   6 -17   41.56   80.70
  -9  -6  17   -3.56   75.28
   9   6 -16   77.44   87.34
  -9  -6  16   66.32  144.13
   9   6 -15  172.19   91.83
  -9  -6  15  146.56  149.16
   9   6 -14   23.06   79.43
  -9  -6  14  138.64   72.77
   9   6 -13  530.02  104.66
  -9  -6  13  452.70   97.28
   9   6 -12  486.33  105.86
  -9  -6  12  679.16   96.54
   9   6 -11  333.81   87.35
  -9  -6  11  392.74   80.03
   9   6 -10  749.75  101.84
  -9  -6  10 1153.61  169.31
   9   6  -9 2062.61  129.56
  -9  -6   9 2079.86  199.69
   9   6  -8 2810.61  143.48
  -9  -6   8 3001.87  211.78
   9   6  -7  153.86   55.08
  -9  -6   7  109.95   51.59
   9   6  -6  125.72   49.32
  -9  -6   6  136.23   47.27
   9   6  -5   29.20   62.47
  -9  -6   5  -20.86   33.97
   9   6  -4   94.47   38.41
  -9  -6   4   40.43   36.73
   9   6  -3  183.67   41.23
  -9  -6   3  186.90   38.82
   9   6  -2 1934.23  121.10
  -9  -6   2 2023.57   75.51
   9   6  -1 7407.46  242.44
  -9  -6   1 7790.12  183.64
   9   6   013162.58  300.96
  -9  -6   014276.73  368.82
   9   6   1 1049.86   68.33
  -9  -6  -1 1182.53   69.05
   9   6   2 5765.43  113.75
  -9  -6  -2 6131.17  116.11
  -9  -6  -2 6377.50  215.17
   9   6   3  266.82   17.92
  -9  -6  -3  296.66   16.85
  -9  -6  -3  342.53  122.49
   9   6   4 1833.73   41.12
  -9  -6  -4 1797.98   38.79
  -9  -6  -4 2099.18  115.85
  -9  -6  -5 1259.68  100.26
  -9  -6  -6 1253.56  103.69
  -9  -6  -7  234.83   78.61
  -9  -6  -8 9282.98  481.97
  -9  -6  -9   89.41   78.97
  -9  -6 -10  108.91  140.07
  -9  -6 -11   32.64   63.37
  -9  -6 -12 1172.57  112.19
  -9  -6 -13  -19.50   56.66
  -9  -6 -14  149.01   70.59
  -9  -6 -15   59.78  110.28
  -9  -6 -16  429.18   86.23
  -9  -6 -17   10.40   97.02
  -9  -6 -18   48.84   63.40
  -9  -6 -19  149.53  125.79
  -9  -6 -20  124.71   72.83
  -9  -6 -21  -50.57  118.62
   9   7 -17  172.33  104.29
  -9  -7  17  194.30  100.18
   9   7 -16  284.68  171.10
  -9  -7  16   65.80  158.38
   9   7 -15  348.59  177.41
  -9  -7  15  292.26   93.78
   9   7 -14  101.02   80.11
  -9  -7  14   95.14   73.53
   9   7 -13   90.68   71.58
  -9  -7  13   33.25   65.09
   9   7 -12  331.52   90.99
  -9  -7  12  437.40   83.04
   9   7 -11   33.39   62.12
  -9  -7  11   51.66   57.15
   9   7 -10  458.80   86.91
  -9  -7  10  537.29   77.37
   9   7  -9  142.10   62.90
  -9  -7   9  127.51  102.68
   9   7  -8  294.76   67.24
  -9  -7   8  347.06  107.55
   9   7  -7  -36.17   46.18
  -9  -7   7  -50.75   74.20
   9   7  -6  -24.56   39.27
  -9  -7   6    5.13   62.96
   9   7  -5  146.19   81.81
  -9  -7   5  184.88   77.67
   9   7  -4  360.90   96.05
  -9  -7   4  710.86   90.14
   9   7  -3  953.10   62.37
  -9  -7   3 1028.35   58.26
   9   7  -2  583.96   50.34
  -9  -7   2  729.18   47.34
   9   7  -1  570.80   43.89
  -9  -7   1  517.90   68.25
   9   7   0 2749.02  115.64
  -9  -7   0 2975.95  112.55
  -9  -7   0 2937.12  141.01
   9   7   1 7055.29  187.29
  -9  -7  -1 7462.41  183.16
  -9  -7  -1 7867.01  242.49
   9   7   2  851.10   30.23
  -9  -7  -2  884.32   45.42
  -9  -7  -2 1164.24   89.01
   9   7   3   19.86    9.97
  -9  -7  -3  -62.47   84.12
  -9  -7  -4  201.53   62.93
  -9  -7  -5   86.62  100.21
  -9  -7  -6   10.41   49.57
  -9  -7  -7  395.41  151.34
  -9  -7  -8 7579.54  307.33
  -9  -7  -957002.88 1865.38
  -9  -7 -1014681.28  570.31
  -9  -7 -11   53.25   78.26
  -9  -7 -12 2264.05  155.05
  -9  -7 -13   38.91   63.49
  -9  -7 -14   -3.88   54.92
  -9  -7 -15  230.13   81.21
  -9  -7 -16  448.64  161.88
  -9  -7 -17  126.95   76.75
  -9  -7 -18  320.08  158.62
  -9  -7 -19  432.12  100.84
  -9  -7 -20  135.19   81.21
  -9  -7 -21  122.33   83.86
   9   8 -16   95.46   95.26
  -9  -8  16  123.24  155.88
   9   8 -15  152.68   90.29
  -9  -8  15  132.37   82.68
   9   8 -14   72.04  140.58
  -9  -8  14   97.22   74.55
   9   8 -13   72.78  137.47
  -9  -8  13  143.50   72.71
   9   8 -12  110.80  132.24
  -9  -8  12  133.28   68.60
   9   8 -11  114.94   70.07
  -9  -8  11  113.27   64.49
   9   8 -10  690.22   95.71
  -9  -8  10  740.24   86.41
   9   8  -9  600.67   85.61
  -9  -8   9  566.32   79.43
   9   8  -8  691.57   86.88
  -9  -8   8  809.62   78.91
   9   8  -7  153.10   58.24
  -9  -8   7  191.16   53.47
   9   8  -6  145.74   49.60
  -9  -8   6  108.90   45.18
   9   8  -5  404.31   58.47
  -9  -8   5  501.65   54.77
   9   8  -4   47.57   70.09
  -9  -8   4  105.17   38.28
   9   8  -3  841.53   99.05
  -9  -8   3  844.42   91.60
   9   8  -2  365.47   42.25
  -9  -8   2  416.61   40.46
  -9  -8   2  314.23   60.31
   9   8  -1  112.93   29.63
  -9  -8   1  132.76   47.97
  -9  -8   1   76.66   49.86
   9   8   0  941.91   72.26
  -9  -8   0 1008.06   83.47
  -9  -8   0 1032.29   42.37
   9   8   1 1579.97   76.42
  -9  -8  -1 1858.00  103.99
  -9  -8  -1 1729.37   47.99
   9   8   2  662.33   43.69
  -9  -8  -2  808.73   76.89
   9   8   3   26.51   17.24
  -9  -8  -3   63.31   47.97
  -9  -8  -4  128.17   59.34
  -9  -8  -5 1645.40  110.29
  -9  -8  -6 2497.81  137.78
  -9  -8  -7 1508.02  120.41
  -9  -8  -8 3684.54  182.51
  -9  -8  -9 3427.30  191.70
  -9  -8 -10 3336.54  193.79
  -9  -8 -11 3187.53  197.39
  -9  -8 -12  713.91  107.63
  -9  -8 -13  -35.43   65.67
  -9  -8 -14   74.45   70.55
  -9  -8 -15  -30.20   65.64
  -9  -8 -16  183.41   82.18
  -9  -8 -17  110.35   77.69
  -9  -8 -18  894.80  124.08
  -9  -8 -19 6165.95  287.51
  -9  -8 -20   63.09   83.62
  -9  -8 -21   95.33   87.60
   9   9 -16 1612.46  183.30
  -9  -9  16 1744.62  170.30
   9   9 -15  139.00  101.67
  -9  -9  15  238.80   90.27
   9   9 -14  351.62  100.75
  -9  -9  14  331.00   90.91
   9   9 -13   21.37   65.33
  -9  -9  13   12.55   58.50
   9   9 -12  -95.33   63.30
  -9  -9  12   25.47   57.80
   9   9 -11  -64.27  117.74
  -9  -9  11  110.00   61.03
   9   9 -10  140.27   90.33
  -9  -9  10  -31.55   47.01
   9   9  -9  364.04  125.21
  -9  -9   9  209.55   65.55
   9   9  -8  264.59   68.99
  -9  -9   8  209.22   62.42
   9   9  -7   36.26   57.65
  -9  -9   7   84.23   49.30
   9   9  -6  254.08   63.01
  -9  -9   6  161.28  100.65
   9   9  -5  151.69   49.02
  -9  -9   5  112.61   45.11
  -9  -9   5  143.41   77.44
   9   9  -4  570.88   57.77
  -9  -9   4  609.96   60.74
  -9  -9   4  511.58   55.26
   9   9  -3   41.26   32.90
  -9  -9   3   55.43   68.09
  -9  -9   3   31.72   30.89
   9   9  -2  100.35   55.04
  -9  -9   2   64.19   41.71
  -9  -9   2   14.82   51.70
   9   9  -1    2.00   46.29
  -9  -9   1   39.70   71.23
  -9  -9   1   53.59   24.92
   9   9   0  826.44   43.44
  -9  -9   0  931.45   72.94
   9   9   1  170.84   41.88
  -9  -9  -1  195.17   52.74
   9   9   2   85.74   17.68
  -9  -9  -2   76.59   50.82
   9   9   3  136.66   25.13
   9   9   3  196.80   13.67
  -9  -9  -3  244.52   59.82
   9   9   4  487.41   16.61
  -9  -9  -4  817.33   77.76
  -9  -9  -5   68.30   58.11
  -9  -9  -6  191.06  117.72
  -9  -9  -7  -16.70   52.81
  -9  -9  -8  216.55  131.83
  -9  -9  -9   22.78   61.09
  -9  -9 -10 7830.50  448.03
  -9  -9 -11 4490.47  216.99
  -9  -9 -12  148.98  138.96
  -9  -9 -13   89.54   72.55
  -9  -9 -14   69.42   73.07
  -9  -9 -15 1090.78  123.80
   9   9  16 -106.72   62.02
  -9  -9 -16   93.48   64.39
   9   9  17  166.35   81.25
  -9  -9 -17  130.84   84.21
   9   9  18  583.14  110.61
  -9  -9 -18  613.92  116.97
   9   9  19  458.70  110.05
  -9  -9 -19  459.10  201.59
   9   9  20  101.99   83.22
  -9  -9 -20   50.95   87.98
   9  10 -15  739.31  244.47
  -9 -10  15 1061.56  129.37
   9  10 -14   21.28  131.21
  -9 -10  14   45.51   68.13
   9  10 -13   22.46   65.47
  -9 -10  13   14.71   58.95
   9  10 -12  456.60   98.42
  -9 -10  12  477.71   88.92
   9  10 -11  840.21  109.65
  -9 -10  11  879.37   99.43
   9  10 -10  244.72   82.28
  -9 -10  10  430.30   74.65
   9  10  -9  201.67  125.34
  -9 -10   9  140.42   39.65
  -9 -10   9  220.09   61.87
   9  10  -8   49.59  108.56
  -9 -10   8   92.52   39.43
  -9 -10   8  138.57   55.94
   9  10  -7 7884.03  400.81
  -9 -10   7 6992.75  217.43
  -9 -10   7 7335.37  359.42
   9  10  -617444.38  556.59
  -9 -10   616055.86  610.86
  -9 -10   617227.88  655.16
   9  10  -5 5595.47  208.99
  -9 -10   5 5221.60  188.26
  -9 -10   5 5912.07  198.00
   9  10  -4 2279.24  108.80
  -9 -10   4 2324.61  110.35
  -9 -10   4 2740.69  106.79
   9  10  -3  172.52   42.02
  -9 -10   3  164.90   43.96
   9  10  -2  -17.90   27.63
  -9 -10   2   -1.25   34.07
   9  10  -1  280.91   36.49
  -9 -10   1  273.37   87.34
   9  10   0  926.58   77.34
  -9 -10   0 1163.45   76.75
   9  10   1  509.59   56.16
  -9 -10  -1  578.76   64.11
   9  10   2   91.20   31.67
   9  10   2  103.27   20.29
  -9 -10  -2  175.67   51.07
   9  10   3  342.58   31.63
   9  10   3  310.14   35.12
  -9 -10  -3  475.00   65.44
   9  10   4   88.97   17.01
   9  10   4  108.52   11.18
  -9 -10  -4  129.24   97.71
  -9 -10  -5  114.35   58.07
  -9 -10  -6   48.73   95.38
  -9 -10  -7  579.29   87.04
  -9 -10  -8   93.08   67.03
  -9 -10  -9  -17.35   56.99
  -9 -10 -10  249.93   84.22
  -9 -10 -11  937.18  200.24
  -9 -10 -12   62.93   69.28
  -9 -10 -13 1281.34  222.42
   9  10  14  383.72   92.02
  -9 -10 -14  253.46   94.48
   9  10  15  420.52   98.47
  -9 -10 -15  448.19  102.75
   9  10  16  209.85   84.26
  -9 -10 -16  116.17   86.29
   9  10  17  -15.98   73.19
  -9 -10 -17  112.02   76.74
   9  10  18   73.19   78.85
   9  10  19  107.94   88.53
  -9 -10 -19  136.83   94.98
   9  10  20    7.15   78.07
  -9 -10 -20  -74.29   86.93
   9  11 -14   51.37   66.52
  -9 -11  14  -55.16   61.98
   9  11 -13   46.46   65.50
  -9 -11  13    0.49   21.30
  -9 -11  13   92.08   61.68
   9  11 -12   61.80  111.63
  -9 -11  12   -0.21   22.11
  -9 -11  12  139.27   59.79
   9  11 -11  107.92   61.47
  -9 -11  11    3.98   13.40
  -9 -11  11  101.58   56.68
   9  11 -10    5.78   65.79
  -9 -11  10  103.27   62.50
   9  11  -9  467.87   97.00
  -9 -11   9  626.49   46.56
  -9 -11   9  606.84   90.61
   9  11  -8 7722.72  286.81
  -9 -11   8 6771.09  264.88
  -9 -11   8 6794.14  248.60
   9  11  -7  584.16  126.67
  -9 -11   7  501.93   77.57
  -9 -11   7   19.65   67.70
   9  11  -6   72.91   89.32
  -9 -11   6   16.84   33.24
   9  11  -5 1709.10  179.22
  -9 -11   5 1637.31   85.20
   9  11  -4   18.18   37.21
  -9 -11   4   15.47   59.96
   9  11  -3  133.09   41.19
  -9 -11   3  116.41   40.54
   9  11  -2   77.35   34.02
  -9 -11   2   57.58   38.99
   9  11  -1   37.59   28.49
  -9 -11   1   21.50   66.00
   9  11   0   -2.96   23.66
  -9 -11   0   33.26   35.98
   9  11   1  666.11   60.51
   9  11   1  659.89   40.54
  -9 -11  -1  838.94  118.22
   9  11   2  610.81   32.51
   9  11   2  622.21   57.57
  -9 -11  -2  870.73   73.30
   9  11   3 2020.73   75.00
   9  11   3 1978.09   80.53
  -9 -11  -3 2539.69  118.33
   9  11   4 4372.21  109.06
   9  11   4 4041.62   87.10
  -9 -11  -4 5534.40  276.37
   9  11   5 1489.57   42.20
  -9 -11  -5 2276.71  118.54
  -9 -11  -6  202.22   68.89
  -9 -11  -7  150.22   65.88
  -9 -11  -8   44.43   60.52
  -9 -11  -9   35.38  108.77
  -9 -11 -10  244.19   81.89
  -9 -11 -11  553.65   99.98
  -9 -11 -12 1668.07  141.87
   9  11  13   60.35   73.29
  -9 -11 -13   35.95   73.27
   9  11  14    3.93   61.05
  -9 -11 -14   -1.08  110.61
   9  11  15   49.04   73.56
  -9 -11 -15   54.46   77.08
   9  11  16   41.74   69.25
  -9 -11 -16   -1.36   73.23
   9  11  17   95.27   82.85
   9  11  18   26.41   74.93
  -9 -11 -18   35.59   81.91
  -9 -11 -19  -64.79   91.89
   9  12 -13   34.65   72.32
   9  12 -12   67.13   73.65
   9  12 -11   -7.39   59.42
  -9 -12  11   -5.04   19.11
   9  12 -10  402.68  111.91
  -9 -12  10    4.45   21.88
   9  12  -9 3366.01  300.34
   9  12  -8 6387.03  279.90
   9  12  -7 4732.88  208.09
  -9 -12   7 4093.84  131.79
   9  12  -6 1220.99  104.00
  -9 -12   6 1255.99  106.74
   9  12  -5 2238.76  179.97
  -9 -12   5 2068.04  134.06
   9  12  -4   13.07   64.58
  -9 -12   4  -23.21   30.82
   9  12  -3   23.45   66.71
  -9 -12   3   82.46   36.11
   9  12  -2  257.01   44.72
  -9 -12   2  304.77   79.79
   9  12  -1  315.86   39.04
   9  12  -1  213.01   40.54
  -9 -12   1  279.73   49.73
   9  12   0  639.10   74.13
   9  12   0  652.21   47.86
  -9 -12   0  819.82   65.56
   9  12   1   49.08   41.55
   9  12   1   52.78   26.31
  -9 -12  -1   85.41   75.00
   9  12   2  687.68   37.58
   9  12   2  670.69   40.21
  -9 -12  -2  945.64   74.57
   9  12   3  166.11   36.82
   9  12   3  148.48   23.85
  -9 -12  -3  214.63   55.92
   9  12   4   22.39   13.97
   9  12   4   -0.07   14.53
  -9 -12  -4  -11.37   76.38
   9  12   5    5.52   19.04
   9  12   5   20.08   20.62
  -9 -12  -5   24.06   46.11
   9  12   6   40.27    8.88
   9  12   6   48.23    9.62
  -9 -12  -6   71.67   53.32
  -9 -12  -7   13.93   87.89
  -9 -12  -8   58.15   59.89
  -9 -12  -9   20.37   56.96
  -9 -12 -10  -36.74  112.09
  -9 -12 -11   16.60   63.51
   9  12  12  133.21   85.06
  -9 -12 -12  177.17   84.00
   9  12  13 2283.54  172.32
  -9 -12 -13 2426.33  172.76
   9  12  14 2263.97  177.19
  -9 -12 -14 2638.12  180.83
   9  12  15  305.27   99.43
  -9 -12 -15  289.52  102.92
   9  12  16   -5.76   75.76
  -9 -12 -16   89.11   81.76
  -9 -12 -17    0.26   67.54
  -9 -12 -18   52.27   90.34
   9  13 -11  157.43   82.18
   9  13 -10   62.19   71.76
   9  13  -9 2578.61  176.15
   9  13  -8 4890.42  345.04
   9  13  -7  590.20  152.70
   9  13  -6  524.39   50.11
   9  13  -5    9.59   48.05
  -9 -13   5  105.18   29.16
   9  13  -4    4.57   37.58
  -9 -13   4   21.55   47.34
   9  13  -3  210.03   81.35
  -9 -13   3  177.92   69.87
   9  13  -2  698.11  101.10
   9  13  -2  803.27   59.55
  -9 -13   2  726.51   60.26
   9  13  -1  606.48   53.81
   9  13  -1  647.25   52.35
  -9 -13   1  747.63   61.87
   9  13   0  113.34   55.75
   9  13   0  180.00   35.41
  -9 -13   0   79.69   45.68
   9  13   1 2377.96  116.81
   9  13   1 2350.50   85.28
  -9 -13  -1 2875.49  173.41
   9  13   2  541.86   38.43
   9  13   2  562.81   41.49
  -9 -13  -2  675.89   68.22
   9  13   3  170.91   25.11
   9  13   3  167.26   26.55
  -9 -13  -3  186.27   54.90
   9  13   4  159.94   38.75
   9  13   4  211.65   24.41
  -9 -13  -4  346.79  100.86
   9  13   5  365.99   36.85
   9  13   5  317.37   24.17
  -9 -13  -5  543.06   68.46
   9  13   6   -3.47   19.32
   9  13   6   15.60   11.99
  -9 -13  -6   19.96   46.66
   9  13   7   -5.94   13.87
   9  13   7   17.59   14.76
  -9 -13  -7  -51.10   45.26
  -9 -13  -8  215.00   70.73
  -9 -13  -9    9.40   53.10
  -9 -13 -10  120.64   71.64
  -9 -13 -11   48.71  123.74
   9  13  12 1261.82  134.44
  -9 -13 -12 1309.24  135.65
   9  13  13   34.63   73.59
  -9 -13 -13   57.49   75.43
   9  13  14  109.46   84.22
   9  13  15   35.93   69.70
  -9 -13 -15  -13.56   74.89
  -9 -13 -16  243.21  108.32
   9  14  -9  432.07  152.55
   9  14  -8  -11.14   51.79
   9  14  -7  -14.57   48.13
  -9 -14   7   14.50   20.40
   9  14  -6   10.26   45.78
   9  14  -5  137.70   68.48
  -9 -14   5  -13.64   20.50
   9  14  -4  -33.99   20.86
   9  14  -4   10.48   38.05
  -9 -14   4   -1.41   14.47
   9  14  -2  -50.45   35.93
  -9 -14   2   80.12   27.86
   9  14  -1   83.48   59.92
  -9 -14   1   38.27   35.01
   9  14   0   43.21   48.37
   9  14   0   -4.52   32.61
  -9 -14   0   -5.46   56.12
   9  14   1  424.16   59.52
   9  14   1  673.67   81.71
  -9 -14  -1  853.89   65.00
   9  14   2  639.02   60.72
   9  14   2  632.76   45.85
  -9 -14  -2  839.71   69.06
   9  14   3  128.36   39.72
   9  14   3   82.46   27.34
  -9 -14  -3  126.77   48.90
   9  14   4  525.75   31.43
   9  14   4  455.52   34.86
  -9 -14  -4  544.52  118.62
   9  14   5  100.54   34.81
   9  14   5  107.79   37.91
  -9 -14  -5  183.10   55.23
   9  14   6  171.49   19.71
   9  14   6  108.26   34.71
  -9 -14  -6  275.56   60.72
  -9 -14  -7  106.25   57.93
  -9 -14  -8  -24.02   91.73
  -9 -14  -9  405.37   82.89
  -9 -14 -10  343.83   85.79
   9  14  11  178.07   83.86
  -9 -14 -11  169.55   81.41
   9  14  12  267.46   93.12
   9  14  13   56.45   75.22
  -9 -14 -13   47.25   78.82
   9  14  14   79.16   78.51
  -9 -14 -14   35.04   82.87
   9  14  15   17.40   83.73
  -9 -14 -15  144.20   90.36
   9  15  -7    8.60   24.94
   9  15  -7   48.58   85.03
   9  15  -6  113.95   81.94
   9  15  -6  -25.84   24.05
   9  15  -5   57.25   44.36
   9  15  -5  -22.88   36.89
  -9 -15   5   14.47   13.12
   9  15  -4   26.41   40.51
   9  15  -4  -13.34   20.53
  -9 -15   4   17.41   13.53
   9  15  -3   27.62   32.58
   9  15  -3   96.22   68.37
  -9 -15   3    0.92   24.68
   9  15  -2  -15.12   18.12
  -9 -15   2   -4.60   25.63
   9  15  -1    4.16   15.03
  -9 -15   1  -10.03   23.49
   9  15   0   13.01   25.09
  -9 -15   0  -24.36   27.44
   9  15   1   -1.42   24.61
  -9 -15  -1  -12.59   21.43
   9  15   2   -2.24   43.56
   9  15   2   -4.12   13.43
  -9 -15  -2   68.69   29.89
   9  15   3  -18.94   20.31
   9  15   3   20.62   37.85
  -9 -15  -3   58.14   35.27
   9  15   4    1.49   19.29
   9  15   4   16.88   20.95
  -9 -15  -4  -51.81   66.13
   9  15   5  143.10   26.17
  -9 -15  -5  202.41   94.67
  -9 -15  -6  699.02   81.98
  -9 -15  -7  273.33   70.47
  -9 -15  -8   84.29   60.45
  -9 -15 -10   16.59   59.96
   9  15  11   69.45   77.34
  -9 -15 -11  120.93   75.61
   9  15  12  353.71  105.43
  -9 -15 -12  590.57  106.38
   9  15  13   38.78   73.25
   9  16  -4   -1.35   21.58
   9  16  -4 -180.48   73.62
   9  16  -3  142.59   68.09
   9  16  -3   31.39   32.34
  -9 -16   3   -1.10   14.05
   9  16  -2   25.21   38.94
   9  16  -2   23.19   19.37
  -9 -16   2    5.79   15.14
   9  16  -1    4.41   30.45
  -9 -16   1  -20.79   15.96
   9  16   0    4.40   28.11
   9  16   0   19.95   57.24
  -9 -16   0   15.82   16.25
   9  16   1  380.45   60.57
   9  16   1   23.09   17.90
   9  16   2  -14.41   14.86
   9  16   2   93.54   28.53
  -9 -16  -2   14.30   18.06
   9  16   3   -7.19   14.20
   9  16   3   48.11   25.98
  -9 -16  -3   31.98   19.18
   9  16   4    1.08   12.99
   9  16   4   10.49   22.78
  -9 -16  -4   20.14   32.40
  -9 -16  -5  -55.40   42.63
  -9 -16  -6  -79.26   40.22
  -9 -16  -7 3482.51  162.66
  -9 -16  -8 5181.91  232.86
  -9 -16  -9 2069.04  152.08
  -9 -16 -10   43.35   73.87
  10  -6  -5    6.99  137.36
 -10   6   5   26.23   77.71
  10  -6  -4  103.85   90.56
 -10   6   4  104.52  160.05
  10  -6  -3  396.80  112.63
 -10   6   3  285.96  117.01
  10  -6  -2 4248.33  394.63
 -10   6   2 4723.38  254.86
  10  -6  -1 1063.75  152.12
 -10   6   1 1427.19  150.55
  10  -6   0  108.59  121.21
 -10   6   0  -25.53   72.11
  10  -6   1  273.05   90.43
 -10   6  -1   32.18  161.95
  10  -6   2    1.17  103.21
 -10   6  -2   -3.50   60.69
  10  -6   3  -18.55   60.16
 -10   6  -3    8.92   60.71
 -10   6  -4  -24.58   66.15
 -10   6  -5  -63.08   70.00
 -10   6  -6  -13.11  106.62
 -10   6  -7  357.36   93.27
  10  -5  -8  268.14  114.34
 -10   5   8  258.19  190.48
  10  -5  -7  113.01  102.18
 -10   5   7  220.50   97.41
  10  -5  -6  203.97  183.73
 -10   5   6  337.33  104.15
  10  -5  -5  187.59   98.60
 -10   5   5  231.96   97.17
  10  -5  -4  362.65  108.17
 -10   5   4  450.56  108.87
  10  -5  -3 1226.02  247.88
 -10   5   3 1477.50  249.96
  10  -5  -2 2423.87  177.59
 -10   5   2 2509.75  179.22
  10  -5  -1   49.40  104.85
 -10   5   1  -55.12  106.87
  10  -5   0  223.56   76.64
 -10   5   0  -18.34   77.32
  10  -5   1    4.63  107.95
 -10   5  -1   27.60  110.02
  10  -5   2   -1.32   57.34
 -10   5  -2  -14.05   57.52
  10  -5   3    2.39   54.55
 -10   5  -3    3.88   55.38
  10  -5   4    2.11   61.08
 -10   5  -4   69.46   62.34
 -10   5  -5  417.71   89.14
 -10   5  -6 1044.94  192.69
 -10   5  -7  838.73  110.19
 -10   5  -8 4259.24  202.45
 -10   5  -9 1733.33  134.14
 -10   5 -10  205.47   74.55
 -10   5 -11  -12.59   81.28
 -10   5 -11    1.81   45.77
  10  -4 -10   -5.00  148.48
 -10   4  10  -26.73   78.21
  10  -4  -9  462.67  127.49
 -10   4   9  507.80  204.79
  10  -4  -8   47.74   95.02
 -10   4   8  187.70   90.77
  10  -4  -7  416.49  110.55
 -10   4   7  375.66  183.96
  10  -4  -6  286.49  105.61
 -10   4   6  440.97  102.23
  10  -4  -5 1117.93  130.37
 -10   4   5  863.31  217.13
  10  -4  -4   47.11  148.64
 -10   4   4  222.68   86.26
  10  -4  -3  -43.69   67.83
 -10   4   3  -20.87   68.11
  10  -4  -2    3.27  106.80
 -10   4   2  -17.59   61.14
  10  -4  -1   54.19   63.71
 -10   4   1    6.98   63.81
  10  -4   0   21.76  102.72
 -10   4   0   12.21   61.11
  10  -4   1   20.23   59.27
 -10   4  -1   14.88   61.54
  10  -4   2   26.05   99.79
 -10   4  -2    1.75  101.10
  10  -4   3   -5.07   51.27
 -10   4  -3   -6.56   52.30
  10  -4   4   19.27   56.74
 -10   4  -4  139.36  102.18
 -10   4  -5   59.67   59.07
 -10   4  -6 1602.24  192.03
 -10   4  -7  -67.63   62.13
 -10   4  -8 4010.23  183.53
 -10   4  -9 7881.00  287.53
 -10   4 -10 -150.48   71.83
 -10   4 -11  -25.56   87.58
 -10   4 -11  -13.64   46.84
 -10   4 -12 1077.73   97.84
 -10   4 -12 1354.24  155.72
 -10   4 -13  117.07   64.67
 -10   4 -13  271.36   58.72
  10  -3 -12    0.08   71.40
  10  -3 -10    2.97   72.23
 -10   3  10   11.36   69.15
  10  -3  -9    1.69   83.59
 -10   3   9  145.88   80.28
  10  -3  -8   -1.79   65.74
 -10   3   8  -12.56   64.38
  10  -3  -7   31.08  121.17
 -10   3   7   13.79   65.71
  10  -3  -6  138.09   85.86
 -10   3   6  239.84  141.93
  10  -3  -5   43.04  120.57
 -10   3   5  -62.06   66.74
  10  -3  -4  146.01   74.31
 -10   3   4   -9.52  125.57
  10  -3  -3  357.97   78.31
 -10   3   3    5.58   78.79
  10  -3  -2  122.45   69.35
 -10   3   2   15.19  120.06
  10  -3  -1    4.73   52.92
 -10   3   1    3.39   51.95
  10  -3   0  418.83   80.77
 -10   3   0  -23.02  139.71
  10  -3   1  500.70  155.82
 -10   3  -1  757.22   94.12
  10  -3   2  185.67   68.10
 -10   3  -2  208.88  121.36
  10  -3   3  215.86   68.96
 -10   3  -3  318.37   70.48
  10  -3   4  122.94  105.12
 -10   3  -4  148.98   61.29
  10  -3   5  283.58   67.25
 -10   3  -5  345.56   68.83
 -10   3  -6  222.07   62.44
 -10   3  -7  313.86   67.97
 -10   3  -8  128.92   57.43
 -10   3  -9  209.82  110.78
 -10   3  -9  219.89   54.58
 -10   3 -10   61.91   56.73
 -10   3 -10   99.28   48.55
 -10   3 -11  189.95  104.34
 -10   3 -11  120.28   56.14
 -10   3 -12   19.13   41.78
 -10   3 -12  -45.46   66.27
 -10   3 -13  797.36   86.75
 -10   3 -13 1054.43   80.29
 -10   3 -14   73.94   44.12
 -10   3 -14  -18.86   82.00
 -10   3 -15  279.13   54.57
 -10   3 -15  203.58   59.22
  10  -2 -13    1.34   91.29
 -10   2  13   91.76   79.49
  10  -2 -11    0.72   87.31
 -10   2  11  128.44   79.00
  10  -2 -10   -1.88   73.72
 -10   2  10  -43.85   70.34
  10  -2  -9   -0.76   73.28
 -10   2   9  -44.07   67.37
 -10   2   8   96.71   76.16
  10  -2  -7   -0.50   63.08
 -10   2   7   43.44  106.13
  10  -2  -6    0.39   62.74
 -10   2   6  -35.86   59.79
  10  -2  -5  145.92  122.01
 -10   2   5   21.52  117.70
  10  -2  -4  -19.08   52.69
 -10   2   4   21.46   50.59
  10  -2  -3  103.91  121.30
 -10   2   3  172.80  116.32
  10  -2  -2  242.93   72.54
 -10   2   2  218.89   70.88
  10  -2  -1   15.90   55.06
 -10   2   1   84.81   95.66
  10  -2   0   -0.85   46.68
 -10   2   0   11.27   47.22
  10  -2   1  276.53   68.50
 -10   2  -1  262.52  118.51
  10  -2   2 1418.00  166.68
 -10   2  -2 1473.04  102.35
  10  -2   3  682.02  130.59
 -10   2  -3  702.64  133.37
  10  -2   4   25.41   44.23
 -10   2  -4   14.67   43.10
  10  -2   5  113.01   49.98
 -10   2  -5   85.55   86.05
 -10   2  -6   42.48   43.57
 -10   2  -7   82.05   79.59
 -10   2  -8   32.33   40.95
 -10   2  -9  158.26   98.56
 -10   2  -9  226.40   55.82
 -10   2 -10 3396.26  146.10
 -10   2 -10 2928.27  143.23
 -10   2 -11 4931.12  279.12
 -10   2 -11 4227.25  173.72
 -10   2 -11 5547.42  188.91
 -10   2 -12 1930.94  181.56
 -10   2 -12 2443.59  119.15
 -10   2 -12 2299.78  106.85
 -10   2 -13  764.20  113.40
 -10   2 -13  682.36   76.06
 -10   2 -14   44.45   65.15
 -10   2 -14   17.14   72.90
 -10   2 -15  351.26   56.17
 -10   2 -15  441.56   60.34
 -10   2 -16   34.11   34.40
 -10   2 -16    6.44   38.66
 -10   1  14  576.18  128.27
  10  -1 -12    2.40   90.52
 -10   1  12  159.44   81.38
  10  -1 -11 1116.71  146.75
 -10   1  11 1266.87  133.56
  10  -1 -10   -2.42   69.54
 -10   1  10   21.22   62.83
 -10   1   9   42.37   66.95
  10  -1  -8    3.29   81.30
 -10   1   8  418.00  129.31
  10  -1  -7   -0.40   76.65
 -10   1   7  231.98   72.13
  10  -1  -6  332.26  133.33
 -10   1   6   -1.00  125.81
  10  -1  -5  266.62   81.74
 -10   1   5  303.37   77.55
  10  -1  -4 2780.14  157.59
 -10   1   4 2912.12  238.75
  10  -1  -3   58.76   60.31
 -10   1   3   85.20   56.88
  10  -1  -2  172.21  121.44
 -10   1   2  310.09  114.66
  10  -1  -1 1743.82  114.01
 -10   1   1 1824.78  115.68
  10  -1   0   73.98   53.07
 -10   1   0   62.74   93.22
  10  -1   1  325.89  110.70
 -10   1  -1  300.47   62.86
  10  -1   2 1033.85   83.31
 -10   1  -2 1084.98  135.97
  10  -1   3   69.26   46.87
 -10   1  -3  115.88   47.34
  10  -1   4  225.84   52.28
 -10   1  -4  234.86   89.04
  10  -1   5  239.42   88.97
 -10   1  -5  296.02   51.88
 -10   1  -6   82.67   72.54
 -10   1  -7  521.71   58.10
 -10   1  -8  156.38   44.42
 -10   1  -8  126.19   56.46
 -10   1  -9  398.40   51.87
 -10   1  -9  301.85  111.89
 -10   1 -10  185.56   43.34
 -10   1 -10  111.24   53.67
 -10   1 -11  271.86   47.07
 -10   1 -11  211.04   56.75
 -10   1 -11  253.91   45.36
 -10   1 -12 1063.58   81.87
 -10   1 -12 1050.05   70.79
 -10   1 -12 1190.05   69.12
 -10   1 -13   63.25   36.53
 -10   1 -13  119.97   75.45
 -10   1 -13   59.68   39.75
 -10   1 -14   -9.16   28.26
 -10   1 -14   20.69   52.80
 -10   1 -15  220.18   71.06
 -10   1 -15  191.96   44.02
 -10   1 -16    4.83   49.00
 -10   1 -16   10.15   52.69
 -10   1 -17   43.07   32.14
 -10   1 -17    3.77   62.89
 -10   1 -17   24.24   58.81
  10   0 -13   -0.05   89.80
 -10   0  13  164.97   92.12
  10   0 -12   -2.60   86.57
 -10   0  12  139.70   77.93
  10   0 -11 2833.61  193.96
 -10   0  11 2595.49  174.73
  10   0 -10    0.29   73.24
 -10   0  10   71.65   65.92
  10   0  -9    0.82  101.61
  10   0  -8  163.16   79.62
 -10   0   8  176.54   71.83
  10   0  -7   33.31   57.04
 -10   0   7  -10.87   51.65
  10   0  -6   12.03  110.73
 -10   0   6   50.99   58.48
  10   0  -5 1160.87  122.19
 -10   0   5 1359.67  115.38
  10   0  -4 1917.99  228.73
 -10   0   4 1788.50  121.74
  10   0  -3  -70.32   63.17
 -10   0   3  -82.11   60.10
  10   0  -2 3212.40  262.41
 -10   0   2 3233.68  254.90
  10   0  -113858.53  422.00
 -10   0   114220.67  416.82
  10   0   0 6013.96  210.50
 -10   0   0 6119.55  316.14
  10   0   1  610.78   66.69
 -10   0  -1  464.00   69.16
  10   0   2   56.69   74.44
 -10   0  -2   71.96   42.46
  10   0   3  332.74   86.13
 -10   0  -3  298.47   52.23
  10   0   4  101.06   67.90
 -10   0  -4   90.59   41.66
  10   0   5   18.39   50.77
 -10   0  -5  -25.27   53.11
 -10   0  -6  655.72   55.40
 -10   0  -7   45.94   58.75
 -10   0  -8   25.63   30.03
 -10   0  -8    1.71   45.91
 -10   0  -9  810.70   55.07
 -10   0  -9  700.48   81.84
 -10   0 -10  168.65   53.17
 -10   0 -10  108.13   83.16
 -10   0 -10  -14.86   29.67
 -10   0 -11  102.34   33.58
 -10   0 -11   92.76   50.87
 -10   0 -11   40.30   54.27
 -10   0 -12  182.90   60.74
 -10   0 -12  242.91   56.27
 -10   0 -12  157.40   65.26
 -10   0 -13   -2.12   69.40
 -10   0 -13   20.70   43.88
 -10   0 -13    5.79   27.11
 -10   0 -14  246.73   94.22
 -10   0 -14  215.90   62.47
 -10   0 -14  222.33   64.51
 -10   0 -15  -24.32   38.73
 -10   0 -15    8.42   23.94
 -10   0 -16  117.25   31.77
 -10   0 -16   66.72   55.34
 -10   0 -17    2.14   56.69
 -10   0 -17    8.18   23.39
 -10   0 -17  -31.64   42.29
 -10   0 -18    0.22   61.55
 -10   0 -18   13.81   27.67
  10   1 -15    1.01   83.07
 -10  -1  15   91.26  142.06
  10   1 -14    1.25   70.14
 -10  -1  14   -5.13   69.99
  10   1 -13   -2.26   90.01
 -10  -1  13  237.58   88.45
  10   1 -12    3.79   73.08
 -10  -1  12  104.59  128.56
  10   1 -11    2.66   70.62
 -10  -1  11   74.44   72.56
  10   1  -9  -26.19   59.93
 -10  -1   9   53.69   58.86
  10   1  -8  -23.77   53.63
 -10  -1   8   14.69   51.35
  10   1  -7   13.43   54.58
 -10  -1   7   12.55   87.12
  10   1  -6  388.31   93.58
 -10  -1   6  417.94   82.12
  10   1  -512529.48  437.16
 -10  -1   512987.28  586.50
  10   1  -4 4696.73  339.81
 -10  -1   4 5126.32  223.56
  10   1  -3 5379.20  229.08
 -10  -1   3 5622.69  218.51
  10   1  -2 9007.99  325.26
 -10  -1   2 9454.35  317.40
  10   1  -138551.17 1392.26
 -10  -1   139131.08 1150.01
  10   1   0  950.78  100.31
 -10  -1   0 1198.03   93.10
  10   1   1 2059.63   98.16
 -10  -1  -1 2270.94  100.22
  10   1   2 2102.88   91.43
 -10  -1  -2 2205.01   91.77
  10   1   3   49.00   34.64
 -10  -1  -3   57.42   61.72
  10   1   4  617.87   50.55
 -10  -1  -4  633.91   52.05
  10   1   5   89.96   33.43
 -10  -1  -5   79.95   59.71
 -10  -1  -6  102.37   33.98
 -10  -1  -7   66.10   29.65
 -10  -1  -7  -10.64   55.43
 -10  -1  -8  845.11   82.45
 -10  -1  -8  789.32  153.45
 -10  -1  -9 1432.06   61.60
 -10  -1  -9 1381.03  106.91
 -10  -1 -10 1995.53   71.91
 -10  -1 -10 1963.08  118.04
 -10  -1 -10 2164.00   70.94
 -10  -1 -11  305.62   61.72
 -10  -1 -11  392.97  116.56
 -10  -1 -11  347.84   33.73
 -10  -1 -12  173.05   47.79
 -10  -1 -12  195.99   58.68
 -10  -1 -12  143.23   30.58
 -10  -1 -13   40.47   45.97
 -10  -1 -13   24.80   37.15
 -10  -1 -13   -8.43   39.93
 -10  -1 -14  791.41   68.54
 -10  -1 -14  765.97   44.22
 -10  -1 -14  639.43  134.61
 -10  -1 -15   19.23   35.55
 -10  -1 -15    7.69   37.04
 -10  -1 -15   -7.84   40.87
 -10  -1 -16   -9.72   22.29
 -10  -1 -16   32.79   21.80
 -10  -1 -17   66.41   44.59
 -10  -1 -17   -3.62   41.50
 -10  -1 -18   65.12   80.50
 -10  -1 -19    9.31   38.12
  10   2 -15  103.07   86.43
 -10  -2  15   33.30   86.02
  10   2 -14   96.15   83.71
 -10  -2  14   60.77   83.54
  10   2 -13  -22.44   69.51
 -10  -2  13  127.17  119.16
  10   2 -12   77.40   73.98
 -10  -2  12   49.44   72.85
  10   2 -11  -42.01  123.24
 -10  -2  11  -55.98   68.08
  10   2 -10    0.29  102.87
 -10  -2  10   21.60  102.34
  10   2  -9  -33.32   57.39
 -10  -2   9   -8.02   57.29
  10   2  -8   79.42   63.08
 -10  -2   8   85.27   61.89
  10   2  -7  -12.12   96.20
 -10  -2   7  -42.09   92.58
  10   2  -6  187.85   66.32
 -10  -2   6  149.15   63.49
  10   2  -5   -6.75   49.03
 -10  -2   5  -43.77   88.08
  10   2  -4 1980.10  199.74
 -10  -2   4 2208.22  123.23
  10   2  -3 1381.77   96.49
 -10  -2   3 1311.33   93.70
  10   2  -2 4071.09  162.39
 -10  -2   2 4289.49  233.17
  10   2  -1 4673.90  244.41
 -10  -2   1 5222.18  169.53
  10   2   0   30.91   67.26
 -10  -2   0   40.19   67.34
  10   2   1  103.53   64.47
 -10  -2  -1   44.70   36.32
  10   2   2 2422.84  139.50
 -10  -2  -2 2662.47  140.39
  10   2   3  416.50   74.86
 -10  -2  -3  423.04   43.83
  10   2   4  237.29   64.20
 -10  -2  -4  220.54   65.38
  10   2   5 8925.42  208.71
 -10  -2  -5 9684.80  282.65
 -10  -2  -6 3949.76  105.25
 -10  -2  -7 3697.68  138.17
 -10  -2  -7 3309.34  170.09
 -10  -2  -8 2574.49  112.44
 -10  -2  -8 2409.72  141.35
 -10  -2  -9 6818.12  152.18
 -10  -2  -9 6933.72  361.83
 -10  -2 -10 1358.07   49.35
 -10  -2 -10 1144.41  108.83
 -10  -2 -10 1384.60   46.54
 -10  -2 -11  381.11   46.03
 -10  -2 -11  345.18   49.43
 -10  -2 -11  361.44   72.65
 -10  -2 -12 1068.86   61.64
 -10  -2 -12  991.45   63.80
 -10  -2 -12 1099.30  157.79
 -10  -2 -13  296.46   66.55
 -10  -2 -13  216.59   26.51
 -10  -2 -13  341.89   41.94
 -10  -2 -14   43.81   34.82
 -10  -2 -14   28.56   33.00
 -10  -2 -14  124.09   52.89
 -10  -2 -15   65.72   35.78
 -10  -2 -15   43.27   20.42
 -10  -2 -15    8.68   92.52
 -10  -2 -16   -2.62   43.02
 -10  -2 -17  129.80   58.17
 -10  -2 -18   61.26   93.05
 -10  -2 -19  266.38   63.82
  10   3 -16    7.10   79.31
 -10  -3  16  -29.87   76.20
  10   3 -15   97.21   83.07
 -10  -3  15   10.63   81.18
  10   3 -14  -47.60   77.24
 -10  -3  14   -8.84  129.87
  10   3 -13   39.01   77.66
 -10  -3  13  101.43   75.53
  10   3 -12  111.50  133.55
 -10  -3  12   89.58   73.23
  10   3 -11   14.37  118.82
 -10  -3  11   76.39  114.01
  10   3 -10   84.20   69.63
 -10  -3  10  129.23   67.21
  10   3  -9   48.04   61.93
 -10  -3   9   82.10   59.58
  10   3  -8   15.38   52.82
 -10  -3   8   25.81   51.35
  10   3  -7  216.53  113.96
 -10  -3   7  177.26  114.48
  10   3  -6   27.87   51.28
 -10  -3   6   84.68   51.36
  10   3  -5  531.59   71.68
 -10  -3   5  538.25   70.30
  10   3  -4 2088.00  174.66
 -10  -3   4 2155.12  166.36
  10   3  -3  539.76   61.79
 -10  -3   3  492.75   60.54
  10   3  -2  492.11   59.93
 -10  -3   2  669.78   98.15
  10   3  -1   22.09   53.43
 -10  -3   1  -11.30   30.54
  10   3   0 2210.56  137.34
 -10  -3   0 2204.25   85.03
  10   3   1  -16.76   47.28
 -10  -3  -1    1.12   46.67
  10   3   2  209.29   63.56
 -10  -3  -2  300.97   37.53
  10   3   3 1292.33   56.80
 -10  -3  -3 1466.72   89.49
  10   3   4   14.75   39.50
 -10  -3  -4   21.37   22.24
  10   3   5 1834.95   57.35
 -10  -3  -5 2050.54   90.46
 -10  -3  -6 1249.59  112.54
 -10  -3  -6 1348.66   45.54
 -10  -3  -7   -5.33   15.68
 -10  -3  -7   36.78   46.61
 -10  -3  -8 1102.05   58.30
 -10  -3  -8  879.82  103.19
 -10  -3  -9 2752.04   86.30
 -10  -3  -9 2838.33  142.56
 -10  -3  -9 2754.57   79.89
 -10  -3 -10   23.73   21.99
 -10  -3 -10    8.37   14.32
 -10  -3 -10   17.47   91.13
 -10  -3 -11   31.09   14.13
 -10  -3 -11   23.09   12.90
 -10  -3 -11   39.84   52.34
 -10  -3 -12  177.04   66.92
 -10  -3 -12  195.26   18.00
 -10  -3 -12  187.82   27.81
 -10  -3 -13   10.23   82.15
 -10  -3 -13   17.84   20.70
 -10  -3 -13  -22.42   19.38
 -10  -3 -14 1186.31   55.23
 -10  -3 -14 1178.80   36.07
 -10  -3 -14 1598.17  107.99
 -10  -3 -15 3174.71  159.68
 -10  -3 -16    2.79   84.06
 -10  -3 -17  558.54   85.02
 -10  -3 -18 3011.68  163.60
 -10  -3 -19 3137.12  163.99
 -10  -3 -20  296.55   70.94
  10   4 -16   49.00  170.97
 -10  -4  16  143.66   92.58
  10   4 -15   99.29  145.29
 -10  -4  15   28.69  140.07
  10   4 -14   48.52  116.97
 -10  -4  14  -29.10   66.19
  10   4 -13  150.80  137.43
 -10  -4  13   74.43   76.03
  10   4 -12  -31.41  113.25
 -10  -4  12  -15.78   61.56
  10   4 -11  318.55   87.93
 -10  -4  11  292.81  145.56
  10   4 -10   90.16   71.02
 -10  -4  10  136.40   66.35
  10   4  -9   25.17   56.16
 -10  -4   9   32.98   53.90
  10   4  -8  -11.14   50.15
 -10  -4   8  -16.47   48.41
  10   4  -7   17.99   80.25
 -10  -4   7    3.97   77.51
  10   4  -6  814.84   78.74
 -10  -4   6  803.88   77.71
  10   4  -5  208.64   53.76
 -10  -4   5  192.15   51.72
  10   4  -4  303.51   87.92
 -10  -4   4  148.57   86.55
  10   4  -3  134.30   42.68
 -10  -4   3  145.64   75.42
  10   4  -2  -24.68   29.54
 -10  -4   2   29.03   29.11
  10   4  -1  315.46   77.51
 -10  -4   1  391.04   44.44
  10   4   0  781.77   88.39
 -10  -4   0  921.11   86.43
  10   4   1  393.02   67.61
 -10  -4  -1  436.44   38.92
  10   4   2 1274.73   53.54
 -10  -4  -2 1399.08   52.62
  10   4   3  225.54   47.46
 -10  -4  -3  215.66   46.83
  10   4   4  334.09   27.00
 -10  -4  -4  413.90   45.78
  10   4   5  650.79   29.96
 -10  -4  -5  730.32   93.04
 -10  -4  -5  725.79   29.80
 -10  -4  -6 2204.00  226.17
 -10  -4  -6 2368.78   70.36
 -10  -4  -7  -34.45   54.37
 -10  -4  -7   31.33   19.70
 -10  -4  -8   -0.62   52.23
 -10  -4  -8   14.77   16.06
 -10  -4  -8   23.48   14.71
 -10  -4  -9  277.51   18.53
 -10  -4  -9  238.56  126.86
 -10  -4  -9  261.02   19.70
 -10  -4 -10 1825.00  120.52
 -10  -4 -10 1576.81   36.08
 -10  -4 -11  -73.01   89.30
 -10  -4 -11   10.74    8.67
 -10  -4 -11    4.56    9.63
 -10  -4 -12   24.99   56.59
 -10  -4 -12   37.48    5.95
 -10  -4 -13    7.11    9.17
 -10  -4 -13   14.78   49.86
 -10  -4 -14    4.34   86.12
 -10  -4 -15  -20.20   54.91
 -10  -4 -16   79.09   61.69
 -10  -4 -17   55.80   60.68
 -10  -4 -18 2031.18  139.77
 -10  -4 -19 1888.75  220.35
 -10  -4 -20  346.03   78.81
  10   5 -16  327.20  113.89
 -10  -5  16  369.68  189.71
  10   5 -15   15.39   76.43
 -10  -5  15 -119.16  125.08
  10   5 -14  -55.79   76.54
 -10  -5  14  -42.19   72.18
  10   5 -13  -14.05   75.85
 -10  -5  13  142.84   70.27
  10   5 -12   28.00   64.22
 -10  -5  12  -67.56   60.95
  10   5 -11  640.18  102.30
 -10  -5  11  598.48  171.92
  10   5 -10 3166.40  179.98
 -10  -5  10 3142.51  169.73
  10   5  -9 1134.04  115.88
 -10  -5   9 1219.64  109.87
  10   5  -8   64.78   55.31
 -10  -5   8   24.44   52.97
  10   5  -7  253.52  109.07
 -10  -5   7  267.30  107.76
  10   5  -6  411.43   64.77
 -10  -5   6  334.05  106.58
  10   5  -5  920.90   75.59
 -10  -5   5  991.19   72.99
  10   5  -4   27.58   68.50
 -10  -5   4   58.23   38.70
  10   5  -3  220.17   46.05
 -10  -5   3  362.85   45.95
  10   5  -2  406.90   75.00
 -10  -5   2  317.83   42.58
  10   5  -1   60.69   53.42
 -10  -5   1   68.79   52.02
  10   5   0  -18.51   22.88
 -10  -5   0   59.80   37.88
  10   5   1  145.24   50.52
 -10  -5  -1  182.32   48.00
  10   5   2   55.96   36.45
 -10  -5  -2   39.24   35.13
  10   5   3  324.51   41.69
 -10  -5  -3  317.91   40.64
  10   5   4   10.65   24.18
 -10  -5  -4   32.14   23.16
 -10  -5  -4   45.97   53.94
  10   5   5   53.05   20.47
 -10  -5  -5   58.50   20.06
 -10  -5  -5   12.20  105.08
 -10  -5  -6 2285.85   47.79
 -10  -5  -6 2558.04  139.28
 -10  -5  -7  193.87   70.46
 -10  -5  -8  108.15   64.49
 -10  -5  -9 2429.61  141.36
 -10  -5 -10  -41.13  104.42
 -10  -5 -11  140.12   68.24
 -10  -5 -12  107.49   64.92
 -10  -5 -13   21.24   55.05
 -10  -5 -14   13.77   55.20
 -10  -5 -15  159.71  123.99
 -10  -5 -16  -51.18   61.21
 -10  -5 -17   91.62  116.61
 -10  -5 -18  194.36   75.68
 -10  -5 -19   85.31   66.23
 -10  -5 -20  198.94   76.69
  10   6 -16   55.15   92.19
 -10  -6  16  174.23  150.49
  10   6 -15  295.31   98.13
 -10  -6  15  120.40   91.65
  10   6 -14  269.58   97.06
 -10  -6  14  245.37   89.88
  10   6 -13   35.95   67.87
 -10  -6  13   13.33   62.35
  10   6 -12   18.94   61.45
 -10  -6  12  -32.01   56.19
  10   6 -11 2045.98  153.85
 -10  -6  11 2236.29  237.63
  10   6 -10 2689.51  169.05
 -10  -6  10 2743.86  156.76
  10   6  -9   75.36   66.26
 -10  -6   9  136.53   63.02
  10   6  -8  687.20   85.81
 -10  -6   8  721.20   81.36
  10   6  -7  516.39  125.67
 -10  -6   7  539.89   68.78
  10   6  -6   45.79   45.20
 -10  -6   6   54.38   42.02
  10   6  -5  179.86   49.30
 -10  -6   5  202.96   80.70
  10   6  -4  -24.97   56.17
 -10  -6   4   44.50   55.48
  10   6  -3  363.04   47.17
 -10  -6   3  284.19   77.55
  10   6  -2  142.48   63.89
 -10  -6   2  178.56   63.08
  10   6  -1 2080.51   77.65
 -10  -6   1 2207.60  115.36
  10   6   0 4299.94  116.75
 -10  -6   0 4752.86  157.21
  10   6   1 2080.50   64.81
 -10  -6  -1 2265.47   63.81
  10   6   2   19.00   31.84
 -10  -6  -2   45.43   17.85
 -10  -6  -2   85.27   57.49
  10   6   3  357.81   35.81
 -10  -6  -3  336.36   33.78
 -10  -6  -3  470.45   77.71
  10   6   4  384.14   27.47
 -10  -6  -4  441.29   25.93
 -10  -6  -4  576.11   81.76
 -10  -6  -5  253.51   11.92
 -10  -6  -5  372.47   72.38
 -10  -6  -6   83.68   60.92
 -10  -6  -7 1154.60  186.92
 -10  -6  -8  653.79   96.18
 -10  -6  -9  106.06  126.58
 -10  -6 -10    0.63   51.87
 -10  -6 -11  445.57  157.69
 -10  -6 -12  655.14   96.21
 -10  -6 -13   60.53   66.02
 -10  -6 -14 1399.62  123.13
 -10  -6 -15  220.26   80.05
 -10  -6 -16   -2.03   94.22
 -10  -6 -17  139.40   73.94
 -10  -6 -18   46.37  113.84
 -10  -6 -19   63.78   68.18
 -10  -6 -20  -71.55  121.33
  10   7 -15   17.77  131.46
 -10  -7  15  -35.33   68.75
  10   7 -14 -118.84   79.70
 -10  -7  14  -36.61   71.63
  10   7 -13   -8.99   69.69
 -10  -7  13  -49.85   61.58
  10   7 -12  273.70   86.49
 -10  -7  12  255.76  136.64
  10   7 -11  973.92  113.12
  10   7 -10  161.94   72.98
 -10  -7  10  279.41  119.83
  10   7  -9   65.17   58.71
 -10  -7   9   55.83   54.20
  10   7  -8  234.59  113.18
 -10  -7   8  227.31   60.83
  10   7  -7   92.92   90.93
 -10  -7   7   88.79   48.29
  10   7  -6  276.46   92.49
 -10  -7   6  148.81   49.12
  10   7  -5  285.43   55.00
 -10  -7   5  382.83   51.70
  10   7  -4  -18.90   32.81
 -10  -7   4   -7.52   32.05
  10   7  -3  191.99   72.79
 -10  -7   3  249.84   41.50
  10   7  -2  866.11   57.38
 -10  -7   2  963.34   90.41
  10   7  -1 6678.11  233.39
 -10  -7   1 7432.33  227.50
  10   7   0 7311.31  226.01
 -10  -7   0 7506.68  170.37
  10   7   1  109.04   41.29
 -10  -7  -1  120.86   39.39
 -10  -7  -1  138.85   68.69
  10   7   2  979.78   35.19
 -10  -7  -2 1056.45   34.00
 -10  -7  -2 1278.49  175.01
  10   7   3  784.92   38.68
 -10  -7  -3  779.58   34.97
 -10  -7  -3  972.77   93.88
  10   7   4   49.74   10.83
 -10  -7  -4  201.58  100.77
 -10  -7  -5   97.28   60.87
 -10  -7  -6   72.26  108.21
 -10  -7  -7  280.14   79.71
 -10  -7  -8   66.41  128.59
 -10  -7  -9 3971.21  223.19
 -10  -7 -1024727.55 1027.05
 -10  -7 -11 4401.92  238.08
 -10  -7 -12  147.38   80.24
 -10  -7 -13  188.13   82.06
 -10  -7 -14  713.32  106.07
 -10  -7 -15   58.23   70.21
 -10  -7 -16  -11.84   60.70
 -10  -7 -17   21.55   64.53
 -10  -7 -18  128.43   79.67
 -10  -7 -19   41.14   69.64
 -10  -7 -20   37.65   70.44
  10   8 -15   81.76   83.19
 -10  -8  15   60.67   75.96
  10   8 -14 -130.06  116.92
 -10  -8  14   24.68   61.64
  10   8 -13   78.19  139.86
 -10  -8  13  129.98   72.31
  10   8 -12  -36.09  110.41
 -10  -8  12  -13.65  101.92
  10   8 -11  126.66  126.97
 -10  -8  11  139.68  118.27
  10   8 -10  230.16  131.79
 -10  -8  10  271.12  119.46
  10   8  -9   63.44  103.03
 -10  -8   9   80.29   93.20
  10   8  -8  116.18  103.69
 -10  -8   8  170.13   94.81
  10   8  -7   83.59   83.01
 -10  -8   7   13.07   74.48
  10   8  -6  -23.68   70.35
 -10  -8   6   53.43   63.13
  10   8  -5   28.66   37.88
 -10  -8   5   28.21   62.34
  10   8  -4  212.51   45.59
 -10  -8   4  265.36   75.27
  10   8  -3  357.47   80.52
 -10  -8   3  447.92   45.58
  10   8  -2  422.54   78.97
 -10  -8   2  541.84   45.57
  10   8  -1 6274.38  163.25
 -10  -8   1 6666.49  205.81
 -10  -8   1 7111.22  236.96
  10   8   0 4022.39  108.70
 -10  -8   0 4446.58  105.14
 -10  -8   0 4901.90  284.89
  10   8   1  531.10   32.13
 -10  -8  -1  687.89   83.91
 -10  -8  -1  597.52   30.11
  10   8   2 1578.98   62.49
 -10  -8  -2 1920.43  119.07
 -10  -8  -2 1819.49   42.77
  10   8   3  728.88   34.10
 -10  -8  -3 1014.63   90.51
 -10  -8  -4   55.34   56.50
 -10  -8  -5  122.48   65.31
 -10  -8  -6 1177.84  107.22
 -10  -8  -7   68.84   67.03
 -10  -8  -8 1612.56  140.41
 -10  -8  -917595.06  622.50
 -10  -8 -1025554.43  853.44
 -10  -8 -11   29.97   73.59
 -10  -8 -12  757.96  118.87
 -10  -8 -13 4005.58  206.61
 -10  -8 -14  734.40  116.11
 -10  -8 -15  172.23   85.43
 -10  -8 -16  -11.66   64.84
 -10  -8 -17  315.93  168.37
 -10  -8 -18   74.36   77.75
 -10  -8 -19   74.54  144.41
 -10  -8 -20 2054.75  169.89
  10   9 -14  -57.98   67.06
 -10  -9  14   57.30   60.32
  10   9 -13  -28.31   64.45
 -10  -9  13   37.05   56.38
  10   9 -12  -25.58   59.58
 -10  -9  12   31.23   94.43
  10   9 -11   84.55   65.23
 -10  -9  11    8.82  103.78
  10   9 -10  362.35   81.98
 -10  -9  10  391.75  127.92
  10   9  -9   58.33   85.04
 -10  -9   9  -38.35   76.92
  10   9  -8  668.11  144.47
 -10  -9   8  647.80  129.36
  10   9  -7   81.38   93.78
 -10  -9   7   78.40   47.75
  10   9  -6  529.17   67.33
 -10  -9   6  603.30   62.23
  10   9  -5  128.81   43.78
 -10  -9   5   60.82   40.91
  10   9  -4  154.88   42.69
 -10  -9   4  133.14   40.03
 -10  -9   4  169.80   51.13
  10   9  -3  432.38   48.11
 -10  -9   3  421.81   75.33
 -10  -9   3  413.68   64.34
  10   9  -2  266.06   64.75
 -10  -9   2  236.72   99.25
 -10  -9   2  205.98   34.97
  10   9  -1 1395.88   62.12
 -10  -9   1 1676.32   97.73
 -10  -9   1 1438.23   87.84
  10   9   0   23.05   38.01
 -10  -9   0   66.94   47.32
 -10  -9   0   21.54   20.74
  10   9   1 1164.45   43.83
 -10  -9  -1 1466.35   94.14
  10   9   2   52.13   25.77
 -10  -9  -2   24.88   50.79
  10   9   3   15.69   15.53
 -10  -9  -3   60.23   84.77
 -10  -9  -4  187.03   65.43
 -10  -9  -5   22.55   95.66
 -10  -9  -6   74.86   62.44
 -10  -9  -7  -26.79  107.14
 -10  -9  -8 2923.32  185.26
 -10  -9  -921218.28  923.52
 -10  -9 -1016270.53  593.08
 -10  -9 -11 3603.20  221.28
 -10  -9 -12 1147.69  132.01
 -10  -9 -13 1187.03  134.86
 -10  -9 -14  -99.40   79.75
 -10  -9 -15  252.04   94.55
 -10  -9 -16  110.96  146.82
 -10  -9 -17   71.41   79.96
 -10  -9 -18  175.24  165.56
 -10  -9 -19 1272.48  154.53
  10  10 -13  -20.45   63.56
 -10 -10  13   18.36   98.73
  10  10 -12   98.66   70.51
 -10 -10  12  -22.56  107.66
  10  10 -11  126.21   75.95
 -10 -10  11  223.24  117.02
  10  10 -10  152.04   70.56
 -10 -10  10  158.59  110.15
  10  10  -9  131.86   67.50
 -10 -10   9  181.58   61.12
  10  10  -8   80.07   58.28
 -10 -10   8   89.89   53.53
  10  10  -7 1590.27  111.75
 -10 -10   7 1521.21   95.61
 -10 -10   7 1724.82  101.96
  10  10  -6 6006.02  228.68
 -10 -10   6 5986.42  211.16
 -10 -10   6 5869.21  205.21
  10  10  -5 4919.47  192.13
 -10 -10   5 4968.01  274.13
 -10 -10   5 5154.66  254.43
  10  10  -4  381.87   59.07
 -10 -10   4  479.72   64.60
 -10 -10   4  377.11   91.91
  10  10  -3  118.49   42.24
 -10 -10   3  244.15   52.08
 -10 -10   3  193.51   39.24
  10  10  -2  246.50   38.18
 -10 -10   2  260.81   89.04
 -10 -10   2  100.38   33.96
  10  10  -1   32.93   39.19
 -10 -10   1  -36.36   37.05
  10  10   0  -26.84   21.59
 -10 -10   0   -3.52   41.79
  10  10   1  154.51   40.08
 -10 -10  -1  124.99   54.59
  10  10   2  420.89   40.11
 -10 -10  -2  516.83   70.47
  10  10   3  142.13   23.30
  10  10   3  158.99   21.24
 -10 -10  -3  180.16  105.65
  10  10   4   42.35    8.01
 -10 -10  -4  142.27   54.68
 -10 -10  -5   96.03   61.72
 -10 -10  -6  127.38   67.09
 -10 -10  -7  445.59   90.59
 -10 -10  -8  151.77  144.79
 -10 -10  -9 9304.05  354.72
 -10 -10 -10 1130.45  237.15
 -10 -10 -11   56.24   74.05
 -10 -10 -12  126.39   84.77
 -10 -10 -13  135.37   84.61
 -10 -10 -14   14.12   68.70
 -10 -10 -15  -28.59  128.12
 -10 -10 -16  -65.84   80.62
 -10 -10 -17  -66.36  143.36
 -10 -10 -18  446.53  118.85
 -10 -10 -19 2214.13  196.98
 -10 -11  13    5.58   14.34
 -10 -11  13  -42.37   99.18
  10  11 -12   74.04  102.15
 -10 -11  12    1.99   14.23
 -10 -11  12   16.50   94.28
  10  11 -11   73.30  128.71
 -10 -11  11  161.03  120.06
  10  11 -10   34.36   57.53
 -10 -11  10   16.77   26.35
 -10 -11  10  -15.44   53.13
  10  11  -9    7.94   54.20
 -10 -11   9  -19.04   27.93
 -10 -11   9  -43.30   51.27
  10  11  -8  145.37   63.52
 -10 -11   8  128.49   34.91
 -10 -11   8  111.15   59.37
  10  11  -7  -15.85   44.09
 -10 -11   7   32.49   31.83
 -10 -11   7  -24.26   41.04
  10  11  -6  698.32   79.97
 -10 -11   6  458.42  107.57
 -10 -11   6  641.87   74.57
  10  11  -5 1154.25   94.57
 -10 -11   5  985.69  140.53
  10  11  -4 2169.20  114.59
 -10 -11   4 2322.99  113.03
  10  11  -3  104.28   41.61
 -10 -11   3  140.02   49.92
  10  11  -2 1344.16   70.30
 -10 -11   2 1545.28  142.40
  10  11  -1  262.32   37.25
 -10 -11   1  279.84   56.60
  10  11   0   44.29   41.25
 -10 -11   0   18.05   42.96
  10  11   1    3.50   16.55
  10  11   1  -26.40   18.34
 -10 -11  -1   34.29   40.26
  10  11   2   41.13   26.75
  10  11   2   22.03   29.99
 -10 -11  -2   62.95   47.65
  10  11   3   40.19   21.69
  10  11   3   60.24   23.87
 -10 -11  -3   72.37   92.34
  10  11   4 1565.16   46.16
  10  11   4 1689.32   43.45
 -10 -11  -5 2241.67  137.16
 -10 -11  -6  132.24  120.82
 -10 -11  -7 1075.90  113.87
 -10 -11  -8  181.14   81.16
 -10 -11  -9  377.29   92.64
 -10 -11 -10  -87.80   74.84
 -10 -11 -11  224.19  156.49
 -10 -11 -12  123.13   84.05
 -10 -11 -13   96.03   81.55
 -10 -11 -14   39.67   77.07
 -10 -11 -15   66.22   82.27
 -10 -11 -17    3.92   70.82
 -10 -11 -18  374.92  120.26
  10  12 -11  166.20   61.87
 -10 -12  11  -16.62   23.42
 -10 -12  11   56.33   55.72
  10  12 -10 1562.55  135.96
  10  12  -9  395.63   99.24
 -10 -12   9  -18.38   14.53
  10  12  -8   28.58   83.47
 -10 -12   8    2.10   14.30
  10  12  -7    5.18   95.01
 -10 -12   7  -79.68   32.16
  10  12  -6   11.75   47.86
 -10 -12   6   79.89   55.51
  10  12  -5  654.37   73.85
 -10 -12   5  742.56   62.71
  10  12  -4   77.74   44.32
 -10 -12   4  117.31   42.70
  10  12  -3  109.78   41.11
 -10 -12   3  107.22   76.17
  10  12  -2  -17.05   26.88
 -10 -12   2   29.58   33.37
  10  12  -1   37.50   28.18
 -10 -12   1   24.98   40.72
  10  12   0   67.12   24.27
  10  12   0   17.82   45.91
 -10 -12   0   56.01   77.52
  10  12   1   90.78   23.70
  10  12   1  135.80   43.75
 -10 -12  -1  139.63   49.80
  10  12   2    0.99   28.94
  10  12   2   47.83   19.13
 -10 -12  -2   50.81   46.01
  10  12   3  379.32   36.71
  10  12   3  371.20   39.98
 -10 -12  -3  509.17   69.37
  10  12   4   11.17   11.11
 -10 -12  -4   65.72   48.37
  10  12   5  210.23    9.31
 -10 -12  -5  515.37   71.62
 -10 -12  -6  126.29  114.08
 -10 -12  -7  380.16   82.90
 -10 -12  -8 1128.65  115.47
 -10 -12  -9  485.52  170.21
 -10 -12 -10   36.95   68.88
 -10 -12 -11  128.40   82.02
 -10 -12 -12  102.68  145.27
 -10 -12 -13 1212.87  139.86
 -10 -12 -14 1045.46  137.01
 -10 -12 -15  245.85  103.18
 -10 -12 -16  130.74   93.66
 -10 -12 -17  445.41  213.55
  10  13 -10 2080.05  163.83
  10  13  -9  816.43   76.17
 -10 -13   9    2.16   28.47
  10  13  -8   99.49   51.67
 -10 -13   8  -12.21   23.62
  10  13  -7  618.44   56.05
 -10 -13   7  -25.12   15.82
  10  13  -6  224.04   68.75
 -10 -13   6   -8.94   14.01
  10  13  -5   43.84   78.35
 -10 -13   5  -54.38   18.80
  10  13  -4   11.13   71.21
 -10 -13   4   62.21   50.90
  10  13  -3    5.60   64.66
 -10 -13   3   71.29   62.16
  10  13  -2   -7.88   28.78
 -10 -13   2    5.28   31.97
  10  13  -1  629.23   63.30
  10  13  -1  432.54   48.20
 -10 -13   1  554.09   61.97
  10  13   0  286.54   32.59
  10  13   0  233.76   62.70
 -10 -13   0  259.82   94.52
  10  13   1  166.22   46.67
  10  13   1  180.56   52.83
 -10 -13  -1  220.71   55.98
  10  13   2   80.78   37.63
  10  13   2  110.15   42.06
 -10 -13  -2  155.69   53.07
  10  13   3   -6.36   14.46
  10  13   3   -3.76   27.13
 -10 -13  -3  -21.88   43.35
  10  13   4   49.90   14.17
  10  13   4   27.88   14.54
 -10 -13  -4   83.59   86.65
  10  13   5  211.84   22.31
 -10 -13  -5  433.62   68.28
 -10 -13  -6  -11.19   50.29
 -10 -13  -7  341.91  137.11
 -10 -13  -8  188.05   74.54
 -10 -13  -9   18.58   60.54
 -10 -13 -10  303.45  158.35
 -10 -13 -11   -0.86   58.58
 -10 -13 -12   26.48   70.18
 -10 -13 -14  -18.20   74.70
 -10 -13 -15  162.70   97.34
  10  14  -8  227.26   89.79
 -10 -14   8    0.90   13.40
  10  14  -7  121.54   47.66
 -10 -14   7   -3.37   13.74
  10  14  -6   10.28   43.43
 -10 -14   6   -7.72   22.90
  10  14  -5  145.86   44.78
 -10 -14   5  -19.97   27.05
  10  14  -4  650.91   50.47
 -10 -14   4    7.99   19.32
  10  14  -3   14.12   17.16
  10  14  -3  -28.08   34.50
 -10 -14   3    7.60   16.56
  10  14  -2    7.90   16.47
  10  14  -2   -3.03   55.68
 -10 -14   2  -46.04   19.54
  10  14  -1  933.06  106.73
 -10 -14   1 1258.55   69.15
  10  14   0 1322.89  104.09
 -10 -14   0 1534.79  142.00
  10  14   1  930.79   85.84
 -10 -14  -1 1228.73   84.31
  10  14   2   78.12   47.49
 -10 -14  -2  265.59   54.10
  10  14   3  642.92   61.53
 -10 -14  -3 1048.79   82.85
  10  14   4    9.70   25.60
 -10 -14  -4  -27.10   75.18
 -10 -14  -5   21.11   47.92
 -10 -14  -6    7.70   47.43
 -10 -14  -7  -18.56   91.23
 -10 -14  -8  228.62   74.91
 -10 -14  -9   35.71   61.41
 -10 -14 -10  620.23  102.68
 -10 -14 -12  317.50   98.53
 -10 -14 -13    1.62   64.07
  10  15  -6    4.39   21.64
  10  15  -6   -4.37   75.84
 -10 -15   6  -11.54   13.88
  10  15  -5   25.69   21.49
  10  15  -5   89.71   72.08
 -10 -15   5   10.47   15.05
  10  15  -4   12.92   32.88
  10  15  -4  124.37   66.04
 -10 -15   4    6.38   15.41
  10  15  -3  -39.28   17.60
  10  15  -3  194.96   35.90
 -10 -15   3  -16.10   15.67
  10  15  -2  207.94   36.85
  10  15  -2  -12.52   18.07
 -10 -15   2   21.12   29.50
  10  15  -1   19.82   25.79
  10  15  -1    2.77   30.10
 -10 -15   1    8.20   29.37
  10  15   0  -15.32   14.95
 -10 -15   0    3.47   31.19
  10  15   1    5.03   13.86
  10  15   1  239.79   44.49
 -10 -15  -1  -29.60   19.90
  10  15   2    1.40   12.19
  10  15   2   65.04   37.00
 -10 -15  -2  -69.85   26.46
  10  15   3   62.60   42.85
 -10 -15  -3  244.21   50.02
 -10 -15  -4   10.77   73.44
 -10 -15  -5   -4.77   43.21
 -10 -15  -6   76.00   55.62
 -10 -15  -7  240.14   70.59
 -10 -15  -8   55.91  106.56
 -10 -15  -9  378.63   90.50
 -10 -15 -10 3292.43  188.53
 -10 -15 -11 1338.68  137.94
  10  16  -2   14.18   28.42
  10  16  -2  -19.38   57.02
 -10 -16   2    1.38   25.38
  10  16  -1   16.54   29.30
  10  16  -1   74.13   56.72
 -10 -16   1    8.95   29.56
  10  16   0   30.23   16.36
  10  16   0  -16.54   52.72
 -10 -16   0    9.31   18.66
  10  16   1    4.35   15.05
  10  16   1   46.29   27.21
 -10 -16  -1   27.66   19.66
  10  16   2   52.77   25.16
 -10 -16  -2   -6.61   20.23
 -10 -16  -3    5.51   20.09
 -10 -16  -4    9.11   35.59
 -10 -16  -5   -3.90   36.57
 -10 -16  -6  -49.90   36.35
 -10 -16  -7   85.01   55.74
 -10 -16  -8  665.33   95.37
  11  -5  -1   19.37  108.45
 -11   5   1  824.91  106.29
  11  -5   0    5.74  100.56
 -11   5   0   -0.75   58.77
  11  -5   1  -27.78   66.41
 -11   5  -1  -33.77  116.82
  11  -5   2  -22.79  107.19
 -11   5  -2  -10.83   61.49
  11  -5   3   -8.07   58.49
 -11   5  -3   -9.16  101.52
 -11   5  -4    4.86   55.49
  11  -4  -6  101.77   86.42
 -11   4   6  -21.35  140.80
  11  -4  -5   54.21  129.72
 -11   4   5   11.25   69.28
  11  -4  -4  408.39   96.14
 -11   4   4   14.46   89.23
  11  -4  -3   39.60  117.57
 -11   4   3   -1.75   67.43
  11  -4  -2 1308.65  138.32
 -11   4   2 1216.69  133.79
  11  -4  -1   55.47  124.14
 -11   4   1   30.50  122.32
  11  -4   0   -5.38   55.37
 -11   4   0    8.88   54.96
  11  -4   1   -1.94   95.77
 -11   4  -1   -6.48   96.39
  11  -4   2  -52.60   59.09
 -11   4  -2    1.52   60.54
  11  -4   3  -14.39   93.15
 -11   4  -3   -5.23   54.08
  11  -4   4   19.01   54.48
 -11   4  -4   -0.05   55.02
 -11   4  -5   -4.00   51.64
 -11   4  -6  177.30  123.38
 -11   4  -7  251.92   74.22
 -11   4  -8   69.00   59.45
 -11   4  -9  487.77  137.25
  11  -3  -8  414.55  115.64
 -11   3   8  362.74  106.49
  11  -3  -7  440.31   98.35
 -11   3   7   -5.10   93.62
  11  -3  -6   -4.33  118.44
 -11   3   6  -14.78   64.93
  11  -3  -5  150.43   80.41
 -11   3   5   -1.40  135.06
  11  -3  -4   33.98   66.61
 -11   3   4   21.43   62.93
  11  -3  -3  -41.81   66.89
 -11   3   3    3.97  109.49
  11  -3  -2 1255.33  127.13
 -11   3   2 1462.37  127.14
  11  -3  -1  -11.94   60.98
 -11   3   1  -25.30   60.98
  11  -3   0  -36.17   59.29
 -11   3   0  -15.76   59.67
  11  -3   1 1772.54  127.68
 -11   3  -1 1697.81  127.13
  11  -3   2  -14.09   91.10
 -11   3  -2   -2.02   92.89
  11  -3   3    6.44   48.14
 -11   3  -3    1.98   49.29
  11  -3   4   18.20   51.25
 -11   3  -4    0.57   86.97
 -11   3  -5  -15.07   49.80
 -11   3  -6  730.69   87.24
 -11   3  -7  800.69   93.61
 -11   3  -8  118.95   63.36
 -11   3  -9 2079.34  200.60
 -11   3 -10  654.06   80.44
 -11   3 -11   22.34   54.82
 -11   3 -11  139.85   50.76
 -11   3 -12  326.47  117.81
 -11   3 -12  413.23  106.57
 -11   2  10    0.37   59.89
  11  -2  -9    2.65   66.80
  11  -2  -8    0.75   68.50
 -11   2   8   22.76   64.35
  11  -2  -7   -1.57  109.35
 -11   2   7    8.60   60.00
  11  -2  -6    2.87   62.83
 -11   2   6  -17.35   57.41
  11  -2  -5   -4.31   59.39
 -11   2   5   14.88   55.29
  11  -2  -4  -28.46   58.65
 -11   2   4   42.40   96.68
  11  -2  -3    6.58   86.96
 -11   2   3  670.02   82.92
  11  -2  -2  -39.58   94.99
 -11   2   2   17.04   91.13
  11  -2  -1  265.75   68.11
 -11   2   1   -7.99   66.12
  11  -2   0   22.17   50.78
 -11   2   0   -7.14   48.21
  11  -2   1  670.62  149.32
 -11   2  -1  669.11   86.21
  11  -2   2   53.11   55.99
 -11   2  -2   91.37   55.18
  11  -2   3 1076.15   92.34
 -11   2  -3 1058.38  153.80
  11  -2   4   72.28   94.50
 -11   2  -4  107.65   54.25
  11  -2   5  117.37   53.97
 -11   2  -5  144.71   92.72
 -11   2  -6   23.17   43.63
 -11   2  -7   15.96   72.80
 -11   2  -8   99.22   51.31
 -11   2  -9  205.56  101.52
 -11   2 -10 2518.64  132.47
 -11   2 -11 3401.33  157.06
 -11   2 -11 3641.08  151.58
 -11   2 -12 2265.38  200.06
 -11   2 -12 2600.34  180.19
 -11   2 -13   94.53   50.40
 -11   2 -13  104.81   78.05
 -11   1  11    2.06   61.48
  11  -1 -10    0.62   63.77
  11  -1  -9    2.30   62.30
 -11   1   9   -4.16   56.67
  11  -1  -8    0.70  106.27
 -11   1   8    2.94   55.92
  11  -1  -7   11.82   58.69
 -11   1   7  -16.02   54.87
  11  -1  -6   -9.88   57.97
 -11   1   6   18.93   54.14
  11  -1  -5   13.53   92.59
 -11   1   5   -8.55   86.59
  11  -1  -4  236.92   69.70
 -11   1   4   -4.39   64.75
  11  -1  -3  -49.38   94.85
 -11   1   3   10.64   88.37
  11  -1  -2   29.17   52.31
 -11   1   2   18.09   50.28
  11  -1  -1  231.65  119.41
 -11   1   1  249.19   64.79
  11  -1   0   92.62   56.66
 -11   1   0   84.00   53.32
  11  -1   1   12.41   46.20
 -11   1  -1   21.03   43.64
  11  -1   2  -22.67   81.24
 -11   1  -2   62.45   44.71
  11  -1   3  181.91   52.65
 -11   1  -3  124.92   50.77
  11  -1   4  483.74   64.03
 -11   1  -4  407.92  103.80
  11  -1   5   18.02   40.55
 -11   1  -5   44.49   40.82
 -11   1  -6   66.21   74.08
 -11   1  -7   21.37   37.35
 -11   1  -8  150.40   71.03
 -11   1  -8   -0.24   55.02
 -11   1  -9  136.22   44.06
 -11   1  -9   39.60   99.48
 -11   1 -10   26.51   61.75
 -11   1 -10    6.16   45.81
 -11   1 -11  393.04   57.76
 -11   1 -11  481.19   54.11
 -11   1 -12 1591.74  144.39
 -11   1 -12 1625.86   85.91
 -11   1 -13 2654.62  110.32
 -11   1 -13 2577.78  118.26
 -11   1 -14  106.03   57.71
 -11   1 -14  -54.15   36.61
 -11   1 -15   54.61   60.04
 -11   1 -15   30.56   65.68
 -11   0  12   33.89   76.79
  11   0 -11    0.28   67.67
  11   0 -10    3.20   69.45
 -11   0  10   11.84   61.85
  11   0  -9    1.43   66.33
 -11   0   9   16.47   58.27
 -11   0   8  -12.93   57.18
  11   0  -7  784.94  107.99
 -11   0   7  689.50   97.89
  11   0  -6   34.90   65.47
  11   0  -5  927.72  103.96
 -11   0   5  880.36   97.54
  11   0  -4   92.54   60.34
 -11   0   4    3.62   56.64
  11   0  -3   75.31   63.04
 -11   0   3  150.91   57.88
  11   0  -2   27.76   57.16
 -11   0   2   96.82   52.15
  11   0  -1   37.14   48.21
 -11   0   1    2.52   78.71
  11   0   0  299.24  108.88
 -11   0   0  290.40   57.87
  11   0   1   61.27   45.05
 -11   0  -1    1.09   72.90
  11   0   2   -9.13   36.91
 -11   0  -2   18.74   34.67
  11   0   3   31.64   40.96
 -11   0  -3   94.95   67.59
  11   0   4  135.60   46.76
 -11   0  -4  206.28   44.52
  11   0   5  314.99   85.01
 -11   0  -5  345.06   85.77
 -11   0  -6  203.88   43.75
 -11   0  -7  396.12   81.50
 -11   0  -8   28.28   31.48
 -11   0  -8   15.96   52.13
 -11   0  -9  253.77   66.49
 -11   0  -9   24.06   61.58
 -11   0 -10   87.02   32.68
 -11   0 -10    2.60   89.75
 -11   0 -10    4.17   30.43
 -11   0 -11    0.16   51.48
 -11   0 -11   16.19   46.76
 -11   0 -11   40.35   48.11
 -11   0 -12   61.78   32.56
 -11   0 -12   20.09   50.16
 -11   0 -13  118.44   56.23
 -11   0 -13  119.45   61.97
 -11   0 -14   39.19   27.76
 -11   0 -14    5.42   29.96
 -11   0 -15  146.71   34.40
 -11   0 -15  165.60   61.67
 -11  -1  13 1054.85  135.71
  11   1 -12    0.13   71.48
  11   1 -11 1097.51  145.46
 -11  -1  11 1251.29  132.15
  11   1 -10   -4.34   65.33
 -11  -1  10   10.88   58.56
  11   1  -8   -5.73   53.59
 -11  -1   8    4.51   47.40
  11   1  -7  137.93   73.13
  11   1  -6  260.81  110.29
 -11  -1   6   -1.87   57.98
  11   1  -5  573.19   96.31
 -11  -1   5  544.86   86.31
  11   1  -4 5036.46  343.57
 -11  -1   4 5435.41  320.87
  11   1  -3 3269.23  174.82
 -11  -1   3 3292.54  162.52
  11   1  -2  -49.52   98.74
  11   1  -2  -17.60   99.50
 -11  -1   2  122.93   86.43
  11   1  -1  692.49   82.09
 -11  -1   1  672.75   69.62
  11   1   0  195.46   54.09
 -11  -1   0  207.49   50.58
  11   1   1  547.87  107.95
 -11  -1  -1  542.21   58.10
  11   1   2 1111.47  120.51
 -11  -1  -2 1070.25   68.19
  11   1   3  674.00   98.43
 -11  -1  -3  689.25   95.74
  11   1   4  342.07   78.94
 -11  -1  -4  362.35   45.31
  11   1   5  -32.53   51.04
 -11  -1  -5    9.13   50.89
 -11  -1  -6  497.31   47.35
 -11  -1  -7  -35.07   28.85
 -11  -1  -7  -13.00   55.74
 -11  -1  -8   61.10   50.80
 -11  -1  -8    4.98   99.31
 -11  -1  -9  114.45   30.57
 -11  -1  -9   -8.22   60.30
 -11  -1 -10   62.78   47.07
 -11  -1 -10  -23.56   95.03
 -11  -1 -10   49.72   26.77
 -11  -1 -11  321.70   36.65
 -11  -1 -11   14.84   69.51
 -11  -1 -11  349.86   34.28
 -11  -1 -12   62.57   25.13
 -11  -1 -12   40.22   46.10
 -11  -1 -12   15.36   53.87
 -11  -1 -13   -2.51   77.03
 -11  -1 -13   17.90   20.17
 -11  -1 -13  -14.85   21.69
 -11  -1 -14   76.40   25.26
 -11  -1 -14   60.42   46.54
  11   2 -13    0.98   84.17
 -11  -2  13  213.28  133.81
  11   2 -12    1.71   93.07
 -11  -2  12  309.73   83.96
  11   2 -11 1700.47  153.66
 -11  -2  11 1687.05  136.62
  11   2 -10   18.47  135.19
 -11  -2  10  170.77  119.04
  11   2  -9    0.67   58.26
 -11  -2   9  -15.47   53.03
  11   2  -8  469.48   78.72
 -11  -2   8  -11.25   72.24
  11   2  -7  -20.53   54.36
 -11  -2   7    2.75   84.60
  11   2  -6   41.91   97.23
 -11  -2   6   27.40   49.52
  11   2  -5   25.41   55.52
 -11  -2   5   36.76   49.25
  11   2  -4 1586.46  216.01
 -11  -2   4 1567.93  193.66
  11   2  -313097.71  456.89
 -11  -2   312603.03  409.88
  11   2  -2 7693.59  406.48
 -11  -2   2 7335.27  360.30
  11   2  -1 4490.55  264.93
 -11  -2   1 4431.01  162.55
  11   2   0  575.96   65.57
 -11  -2   0  427.67   61.59
  11   2   1  624.72   58.52
 -11  -2  -1  521.05   93.96
  11   2   2 1083.20   67.33
 -11  -2  -2 1095.89   62.97
  11   2   3   30.17   30.75
 -11  -2  -3   27.39   51.50
  11   2   4 1262.01   62.08
 -11  -2  -4 1250.62   60.39
  11   2   5  549.00   45.04
 -11  -2  -5  607.95   78.03
 -11  -2  -6 1874.21   70.07
 -11  -2  -7  467.00   63.95
 -11  -2  -7  293.35   86.90
 -11  -2  -8   89.09   26.79
 -11  -2  -8   92.94   64.37
 -11  -2  -9   30.67   37.97
 -11  -2  -9   30.47   55.31
 -11  -2 -10   45.43   37.00
 -11  -2 -10    6.14   54.97
 -11  -2 -10   42.33   34.36
 -11  -2 -11   -5.86   16.96
 -11  -2 -11   -8.11   18.38
 -11  -2 -11   21.88   85.23
 -11  -2 -12   12.45   17.55
 -11  -2 -12   16.40   32.08
 -11  -2 -12   -5.71   50.16
 -11  -2 -13   11.53   60.02
 -11  -2 -13   89.17   23.05
 -11  -2 -13  111.85   35.30
 -11  -2 -14    2.46   80.46
 -11  -2 -18  106.73   54.96
  11   3 -14  158.37   89.04
 -11  -3  14  -39.04  154.62
  11   3 -13  -42.06   71.41
 -11  -3  13   -1.55   72.03
  11   3 -12    5.77   72.47
 -11  -3  12   78.64   72.56
  11   3 -11   98.13  141.87
 -11  -3  11  191.17  140.76
  11   3 -10   24.67   84.19
 -11  -3  10  402.74   74.48
  11   3  -9    4.72   57.22
 -11  -3   9   25.57   50.67
  11   3  -8  201.27   73.92
 -11  -3   8  222.51   64.84
  11   3  -7  113.55  110.51
 -11  -3   7  139.26  101.37
  11   3  -6  433.71   81.94
 -11  -3   6  646.79   75.43
  11   3  -5   85.74   50.87
 -11  -3   5    1.81   46.22
  11   3  -4  995.50  157.79
 -11  -3   4 1118.42  141.31
  11   3  -3  -11.20   43.50
 -11  -3   3   25.43   39.52
  11   3  -2 2536.92  126.75
 -11  -3   2 2520.43  110.17
  11   3  -1 6945.17  300.18
 -11  -3   1 7180.29  283.25
  11   3   0 1059.31  114.54
 -11  -3   0  987.41   65.74
  11   3   1  131.99   39.21
 -11  -3  -1  113.78   62.00
  11   3   2  586.49   78.31
 -11  -3  -2  485.24   44.29
  11   3   3  496.14   70.59
 -11  -3  -3  447.97   39.86
  11   3   4  218.21   55.16
 -11  -3  -4  170.21   52.77
  11   3   5  345.71   33.35
 -11  -3  -5  324.61   32.26
 -11  -3  -6   67.69   59.96
 -11  -3  -6  -11.14   36.55
 -11  -3  -7 8367.65  450.86
 -11  -3  -7 8201.93  180.44
 -11  -3  -8  519.66   56.25
 -11  -3  -8  463.30  102.85
 -11  -3  -9  144.65   20.66
 -11  -3  -9  156.03   68.42
 -11  -3  -9  114.28   20.63
 -11  -3 -10  631.32   43.15
 -11  -3 -10  612.03   41.07
 -11  -3 -10  625.71   91.41
 -11  -3 -11   -9.41   14.74
 -11  -3 -11   25.57   20.40
 -11  -3 -11   20.25   48.83
 -11  -3 -12    3.59   84.29
 -11  -3 -12   -7.42    8.40
 -11  -3 -12   28.31   18.07
 -11  -3 -13    3.18   49.17
 -11  -3 -14   -4.70   50.84
 -11  -3 -17 1086.99  181.37
 -11  -3 -18  135.32   64.40
  11   4 -14   95.99  139.56
 -11  -4  14   32.39   78.10
  11   4 -13   37.28  146.60
 -11  -4  13  146.96   82.67
  11   4 -12   44.79  130.46
 -11  -4  12   86.24   72.52
  11   4 -11  124.43   75.60
 -11  -4  11  150.85  129.70
  11   4 -10  221.50   76.43
 -11  -4  10  149.02   75.76
  11   4  -9   37.31   58.45
 -11  -4   9   41.70   57.18
  11   4  -8   41.99   52.76
 -11  -4   8    5.24   48.15
  11   4  -7   18.41   93.45
 -11  -4   7   75.31   85.08
  11   4  -6  164.83   54.82
 -11  -4   6   42.29   49.01
  11   4  -5  257.79   61.22
 -11  -4   5  287.09   54.17
  11   4  -4  139.58   51.00
 -11  -4   4   49.13   77.20
  11   4  -3   49.67   41.50
 -11  -4   3   13.58   67.54
  11   4  -2 2802.08  118.73
 -11  -4   2 3014.79  113.35
  11   4  -1 3110.01  170.01
 -11  -4   1 3045.94  106.88
  11   4   0  -52.16   54.76
 -11  -4   0   -1.69   51.64
  11   4   1  759.49   82.94
 -11  -4  -1  701.92   47.16
  11   4   2   86.47   50.08
 -11  -4  -2   87.56   27.25
  11   4   3 1343.28   55.53
 -11  -4  -3 1350.54   79.53
  11   4   4  664.40   60.17
 -11  -4  -4  617.87   57.54
  11   4   5    7.55   16.02
 -11  -4  -5  -21.72   52.35
 -11  -4  -5   -3.15   15.10
 -11  -4  -6 1919.46  219.73
 -11  -4  -6 1594.16   43.49
 -11  -4  -7  158.57   75.12
 -11  -4  -7  137.39   29.34
 -11  -4  -8   67.24  116.13
 -11  -4  -8   52.60   12.65
 -11  -4  -8   67.89   21.68
 -11  -4  -9   22.07    9.30
 -11  -4  -9   90.24   59.23
 -11  -4  -9   42.28   10.01
 -11  -4 -10   23.46   12.71
 -11  -4 -10   29.34   56.86
 -11  -4 -10   19.07   13.86
 -11  -4 -11   56.17   61.98
 -11  -4 -12   34.97   59.01
 -11  -4 -13   31.20  102.50
 -11  -4 -14   12.48   55.38
 -11  -4 -15    3.47   53.47
 -11  -4 -17 3556.86  195.94
 -11  -4 -18  422.94  157.41
  11   5 -14  -46.94   66.02
 -11  -5  14   36.00   62.68
  11   5 -13   48.01   66.06
 -11  -5  13  -24.84   62.80
  11   5 -12  115.61   76.01
 -11  -5  12   61.09  124.12
  11   5 -11   30.97   69.76
 -11  -5  11  175.92  116.27
  11   5 -10  507.00   95.36
 -11  -5  10  641.41   91.92
  11   5  -9  119.03   71.97
 -11  -5   9  196.99   68.78
  11   5  -8  138.48  106.42
 -11  -5   8   85.32   61.48
  11   5  -7    7.68   88.55
 -11  -5   7   67.76   86.14
  11   5  -6   31.11   44.04
 -11  -5   6   13.07   40.15
  11   5  -5   21.89   35.12
 -11  -5   5  -17.43   31.04
  11   5  -4   77.89   39.78
 -11  -5   4  -11.34   35.49
  11   5  -3  713.16   63.26
 -11  -5   3  793.74   60.10
  11   5  -2  194.84   42.67
 -11  -5   2  149.48   68.89
  11   5  -1  116.96   61.07
 -11  -5   1   86.18   57.09
  11   5   0    5.79   50.76
 -11  -5   0   56.91   26.99
  11   5   1  102.88   51.77
 -11  -5  -1  160.02   28.45
  11   5   2  -17.51   21.11
 -11  -5  -2  -11.99   19.59
  11   5   3  320.39   45.79
 -11  -5  -3  272.46   26.03
  11   5   4 1072.82   37.96
 -11  -5  -4 1122.66   36.27
 -11  -5  -4 1300.54  115.06
  11   5   5  210.92   30.13
 -11  -5  -5  200.31   17.54
 -11  -5  -5  293.49  134.57
 -11  -5  -6   -7.44   53.25
 -11  -5  -6   -4.13   15.33
 -11  -5  -7   35.14  107.20
 -11  -5  -7   39.81    7.18
 -11  -5  -7   31.46    6.80
 -11  -5  -8 1847.47  134.91
 -11  -5  -9 1755.02  224.05
 -11  -5 -10  104.97   68.43
 -11  -5 -11  147.58   72.43
 -11  -5 -12  174.07   74.77
 -11  -5 -13  366.29   86.77
 -11  -5 -14   69.89  115.01
 -11  -5 -15  267.02   81.71
 -11  -5 -16  504.18  162.07
 -11  -5 -17 1473.69  136.10
 -11  -5 -18 1023.26  118.40
 -11  -5 -19   40.88   66.02
  11   6 -14   44.94   67.37
 -11  -6  14  -22.02   63.35
  11   6 -13  219.64   79.72
 -11  -6  13   -5.33   75.18
  11   6 -12   49.46   64.30
 -11  -6  12  -44.16  104.19
  11   6 -11  105.41   75.76
 -11  -6  11  217.47   73.26
  11   6 -10  -41.61   56.64
 -11  -6  10    9.69   54.49
  11   6  -9  566.38   91.09
 -11  -6   9  589.46   86.99
  11   6  -8 1060.28  176.06
 -11  -6   8 1267.00  103.44
  11   6  -7  375.75   70.23
 -11  -6   7  275.05  111.62
  11   6  -6   28.59   43.28
 -11  -6   6   11.17   69.38
  11   6  -5    1.73   36.75
 -11  -6   5   21.00   57.97
  11   6  -4  426.55   54.84
 -11  -6   4  415.43   52.04
  11   6  -3   60.99   35.72
 -11  -6   3   55.34   34.55
  11   6  -2   -5.76   28.01
 -11  -6   2   20.07   26.76
  11   6  -1  156.12   61.50
 -11  -6   1  193.81   34.77
  11   6   0 1672.10  103.28
 -11  -6   0 1760.11   64.26
  11   6   1  246.55   53.34
 -11  -6  -1  261.96   49.79
  11   6   2    0.59   17.59
 -11  -6  -2   37.07   29.74
  11   6   3  195.52   34.98
 -11  -6  -3  223.88   33.16
 -11  -6  -3  148.87   75.48
  11   6   4  118.69   14.97
 -11  -6  -4  134.11   23.64
 -11  -6  -4  157.49  122.36
  11   6   5   16.62    7.66
 -11  -6  -5   25.33   13.06
 -11  -6  -5   37.04   57.56
 -11  -6  -6   50.51  108.44
 -11  -6  -7  120.29   69.41
 -11  -6  -8   17.46  103.29
 -11  -6  -9  141.79   74.34
 -11  -6 -10   38.01   67.10
 -11  -6 -11 1142.24  120.38
 -11  -6 -12  -19.62   61.81
 -11  -6 -13 1160.17  123.01
 -11  -6 -14   16.18   62.10
 -11  -6 -15  383.92   93.02
 -11  -6 -16  220.07   83.93
 -11  -6 -17  -70.83  127.08
 -11  -6 -18  -86.76   75.32
 -11  -6 -19  187.79  143.02
  11   7 -14   40.08   63.73
 -11  -7  14  -34.92   57.69
  11   7 -13   99.21   81.89
 -11  -7  13  152.08  128.12
  11   7 -12  -64.41   68.67
 -11  -7  12   -9.52  110.58
  11   7 -11  103.27   73.34
 -11  -7  11   89.46   65.45
  11   7 -10  258.89  140.69
 -11  -7  10  361.60   77.17
  11   7  -9  -12.92   90.97
 -11  -7   9  -11.08   47.88
  11   7  -8  276.28  119.02
 -11  -7   8  267.32   64.67
  11   7  -7  -25.81   48.62
 -11  -7   7  -59.89   44.51
  11   7  -6   20.18   38.29
 -11  -7   6  -26.80   34.95
  11   7  -5  176.50   46.49
 -11  -7   5  117.14   44.43
  11   7  -4  135.61   74.11
 -11  -7   4  139.56   39.89
  11   7  -3   42.47   33.75
 -11  -7   3   57.94   32.15
  11   7  -2  121.75   60.18
 -11  -7   2  125.63   33.16
  11   7  -1  181.71   61.20
 -11  -7   1  317.98   35.48
  11   7   0  206.33   30.45
 -11  -7   0  228.06   29.73
  11   7   1 1995.38   97.11
 -11  -7  -1 2200.92   89.76
 -11  -7  -1 2662.78  148.99
  11   7   2 1080.63   40.08
 -11  -7  -2 1113.79   37.06
 -11  -7  -2 1321.07  118.42
  11   7   3  217.78   18.35
 -11  -7  -3  239.36   17.17
 -11  -7  -3  233.74   78.77
  11   7   4  267.61   12.08
 -11  -7  -4  284.27   18.59
 -11  -7  -4  315.84   80.65
 -11  -7  -5   91.52   66.27
 -11  -7  -6  -11.82   55.40
 -11  -7  -7  135.97   72.96
 -11  -7  -8    3.68   56.09
 -11  -7  -9 1755.64  154.61
 -11  -7 -10 3134.42  189.09
 -11  -7 -11 1358.82  140.01
 -11  -7 -12  359.77   97.39
 -11  -7 -13  298.86   95.31
 -11  -7 -14  296.49   93.01
 -11  -7 -15  -72.27   74.04
 -11  -7 -16   64.44   73.59
 -11  -7 -17  -54.12   72.17
 -11  -7 -18  145.20   83.80
 -11  -7 -19   74.41   76.62
  11   8 -13  413.61  183.08
 -11  -8  13  508.32  163.01
  11   8 -12   53.16  100.24
 -11  -8  12  -16.58   51.35
  11   8 -11 1476.73  230.93
 -11  -8  11 1607.47  125.34
  11   8 -10  764.66  165.47
 -11  -8  10  649.16   88.68
  11   8  -9  214.06   74.96
 -11  -8   9  375.17   67.50
  11   8  -8   41.78   55.50
 -11  -8   8  110.57   51.28
  11   8  -7    3.34   47.37
 -11  -8   7   65.00   42.29
  11   8  -6   31.44   46.04
 -11  -8   6   93.04   40.63
  11   8  -5   15.33   36.05
 -11  -8   5  -34.25   32.43
  11   8  -4  284.83   88.54
 -11  -8   4  479.03   48.91
  11   8  -3  173.88   41.93
 -11  -8   3  308.78   65.67
  11   8  -2  125.32   58.36
 -11  -8   2  122.66   55.64
  11   8  -1  269.66   34.95
 -11  -8   1  259.93   33.44
 -11  -8   1  193.45   73.03
  11   8   0  925.30   46.22
 -11  -8   0 1030.13   69.28
 -11  -8   0 1121.49  102.86
  11   8   1   42.37   19.80
 -11  -8  -1   74.52   18.69
 -11  -8  -1   24.37  107.81
  11   8   2  588.75   43.67
 -11  -8  -2  834.74   93.23
 -11  -8  -2  595.17   24.73
  11   8   3  150.25   23.26
 -11  -8  -3  203.49  127.45
 -11  -8  -3  190.51   12.91
 -11  -8  -4  669.81   94.47
 -11  -8  -5   85.17   66.00
 -11  -8  -6  962.49  109.56
 -11  -8  -7   78.75   68.19
 -11  -8  -8   10.20   61.89
 -11  -8  -9  -37.38   69.39
 -11  -8 -10   -7.60   66.42
 -11  -8 -11 2428.74  175.93
 -11  -8 -12   50.03   79.03
 -11  -8 -13   63.15   81.74
 -11  -8 -14 2993.77  194.20
 -11  -8 -15  240.80   93.94
 -11  -8 -16  -21.17  123.54
 -11  -8 -17   11.26   67.05
 -11  -8 -18   43.81  134.60
  11   9 -13   56.98   75.64
 -11  -9  13   93.11  120.18
  11   9 -12   18.73   68.63
 -11  -9  12   82.51   63.63
  11   9 -11 1286.14  129.35
 -11  -9  11 1421.08  119.56
  11   9 -10  185.60   76.24
 -11  -9  10  238.83   69.27
  11   9  -9   76.59   56.52
 -11  -9   9   23.01   51.74
  11   9  -8 1221.53  104.56
 -11  -9   8 1305.56   96.77
  11   9  -7  -13.21   40.60
 -11  -9   7   16.49   36.80
  11   9  -6  153.35   53.49
 -11  -9   6  204.24   83.69
  11   9  -5   71.15   73.45
 -11  -9   5   71.46   67.92
  11   9  -4  -30.17   53.38
 -11  -9   4   20.00   47.29
  11   9  -3  754.84   59.37
 -11  -9   3  818.37   53.74
 -11  -9   3  853.33   86.55
  11   9  -2  210.31   63.00
 -11  -9   2  201.76   34.25
 -11  -9   2  134.04   63.74
  11   9  -1  767.02   48.80
 -11  -9   1 1018.36  151.61
 -11  -9   1  886.97   44.42
  11   9   0   17.44   33.39
 -11  -9   0  -25.19   47.79
 -11  -9   0  -18.10   30.56
  11   9   1   15.50   29.44
 -11  -9  -1    4.56   88.50
 -11  -9  -1   20.68   15.90
  11   9   2  195.42   18.73
 -11  -9  -2  201.71   68.42
  11   9   3   93.73   17.88
 -11  -9  -3  157.76   64.22
 -11  -9  -4  255.45   76.83
 -11  -9  -5  477.65   90.02
 -11  -9  -6  521.11  167.95
 -11  -9  -7 2743.60  174.52
 -11  -9  -8 2644.50  305.61
 -11  -9  -9  163.37   90.83
 -11  -9 -10 1353.25  142.72
 -11  -9 -11 3357.91  210.08
 -11  -9 -12 1326.44  153.93
 -11  -9 -13 1369.45  148.13
 -11  -9 -14 1352.37  152.54
 -11  -9 -15  310.42  183.68
 -11  -9 -16  -17.74   71.99
 -11  -9 -17  -29.36  133.38
 -11  -9 -18  284.96  103.30
  11  10 -12   24.95   68.86
 -11 -10  12   68.18   60.92
  11  10 -11  618.25   99.92
 -11 -10  11  645.13   90.54
  11  10 -10   53.24   59.92
 -11 -10  10   30.85   54.43
  11  10  -9   29.00   59.82
 -11 -10   9  116.13   54.44
  11  10  -8  640.22   82.20
 -11 -10   8  532.90  126.86
  11  10  -7   46.13   50.67
 -11 -10   7   62.40   77.30
  11  10  -6  936.72   83.84
 -11 -10   6  888.78   86.50
 -11 -10   6 1035.65  122.76
  11  10  -5 1085.20  134.75
 -11 -10   5 1170.05   92.73
 -11 -10   5 1034.96   77.40
  11  10  -4   45.23   67.35
 -11 -10   4   56.03   82.95
 -11 -10   4   30.68   33.28
  11  10  -3  560.24   54.06
 -11 -10   3  513.36   75.26
 -11 -10   3  541.79   80.64
  11  10  -2  404.83   46.89
 -11 -10   2  571.80   75.39
 -11 -10   2  537.83   43.84
  11  10  -1  607.53   66.58
 -11 -10   1  629.46  122.45
 -11 -10   1  326.30   35.29
  11  10   0  550.28   38.28
 -11 -10   0  575.29   77.06
  11  10   1   17.07   16.86
 -11 -10  -1   14.68   48.15
  11  10   2   24.39   22.87
 -11 -10  -2   27.35   88.57
  11  10   3    9.17   14.21
  11  10   3   28.79   13.00
 -11 -10  -3  118.30   52.62
 -11 -10  -4   16.52   95.42
 -11 -10  -5    8.08   56.44
 -11 -10  -6  331.04   88.49
 -11 -10  -7 7150.71  296.53
 -11 -10  -8 3013.86  208.53
 -11 -10  -9  655.72  208.31
 -11 -10 -10  699.88  123.07
 -11 -10 -11  499.01  118.03
 -11 -10 -12  634.99  118.86
 -11 -10 -13  199.01   98.01
 -11 -10 -14   86.09   85.11
 -11 -10 -15   79.79   85.68
 -11 -10 -16   53.07  144.57
 -11 -10 -17  428.14  115.21
  11  11 -11  131.25  104.16
 -11 -11  11    7.67   18.24
 -11 -11  11   89.03   53.06
  11  11 -10   74.76   87.48
 -11 -11  10    9.66   16.73
 -11 -11  10  -63.51   44.42
  11  11  -9  146.11   88.24
 -11 -11   9    3.22   18.10
 -11 -11   9   55.36   78.24
  11  11  -8   77.37   80.61
 -11 -11   8  -19.82   29.89
 -11 -11   8  100.57   73.99
  11  11  -7  126.59   98.92
 -11 -11   7  156.08   40.91
 -11 -11   7   96.59   52.69
  11  11  -6   24.72   78.00
 -11 -11   6  -43.05   42.27
 -11 -11   6  -24.47   41.53
  11  11  -5 1059.90  146.15
 -11 -11   5 1103.53   94.02
 -11 -11   5 1187.11   83.54
  11  11  -4 2744.27  192.25
 -11 -11   4 2778.67  219.10
  11  11  -3  109.53   41.62
 -11 -11   3  128.25   56.67
  11  11  -2  937.37   62.70
 -11 -11   2 1251.72   90.29
  11  11  -1   -2.80   42.47
 -11 -11   1  -48.46   75.73
  11  11   0  365.45   34.56
 -11 -11   0  542.09   70.12
  11  11   1  -18.93   28.43
 -11 -11  -1   23.25   44.41
  11  11   2  142.10   31.19
  11  11   2  159.88   28.23
 -11 -11  -2  263.99  107.11
  11  11   3   13.14    8.51
  11  11   3  -13.55   12.83
 -11 -11  -3  -32.97   47.63
 -11 -11  -4 1048.98  105.27
 -11 -11  -5  614.94  161.98
 -11 -11  -6   -6.56   58.17
 -11 -11  -7 3744.53  320.85
 -11 -11  -8   74.36   81.94
 -11 -11  -9 2046.15  172.28
 -11 -11 -10  -15.99  125.96
 -11 -11 -11  274.52   98.99
 -11 -11 -12   46.90   78.36
 -11 -11 -13  353.17  107.44
 -11 -11 -14   11.28   70.65
 -11 -11 -15  -16.98  133.19
 -11 -11 -16    8.96   74.06
 -11 -11 -17  947.93  149.02
  11  12 -10  208.60   69.21
 -11 -12  10   41.09   33.33
 -11 -12  10  232.27   61.83
  11  12  -9  115.38   56.29
 -11 -12   9   -3.54   29.85
 -11 -12   9   60.90   49.84
  11  12  -8   13.10   45.96
 -11 -12   8  -12.41   26.96
 -11 -12   8   32.69   41.68
  11  12  -7  -44.62   46.99
 -11 -12   7  -18.65   18.67
  11  12  -6   65.85   44.80
 -11 -12   6  -44.41   20.02
  11  12  -5  873.96   81.72
 -11 -12   5 1137.53  115.31
  11  12  -4 1545.67   97.91
 -11 -12   4 1963.26  167.30
  11  12  -3 1547.11   91.31
 -11 -12   3 1908.51  110.49
  11  12  -2 1523.86   81.94
 -11 -12   2 1926.68  111.33
  11  12  -1  191.12   63.02
 -11 -12   1  310.48  104.23
  11  12   0   -2.38   37.45
 -11 -12   0   25.85   43.30
  11  12   1   25.10   26.41
  11  12   1    2.49   17.44
 -11 -12  -1  -47.58   41.49
  11  12   2    0.85   14.54
  11  12   2   30.73   21.90
 -11 -12  -2  -79.68   78.71
  11  12   3   37.93   12.42
  11  12   3   42.51   18.30
 -11 -12  -3  139.85   53.17
 -11 -12  -4  113.91   64.25
 -11 -12  -5  447.61  147.60
 -11 -12  -6  -37.19   63.61
 -11 -12  -7   93.42   76.25
 -11 -12  -8 1179.07  236.97
 -11 -12  -9 2691.38  181.24
 -11 -12 -10  149.49   88.95
 -11 -12 -11   32.90  131.65
 -11 -12 -12  210.97   96.75
 -11 -12 -13  174.28   94.66
 -11 -12 -14   35.18   79.83
 -11 -12 -15  -18.06   77.49
  11  13  -8   97.34   51.97
 -11 -13   8   17.18   17.21
  11  13  -7   13.41   47.11
 -11 -13   7   16.13   17.47
  11  13  -6  484.73   52.37
 -11 -13   6   -3.84   19.75
  11  13  -5 1105.81   66.78
 -11 -13   5    4.04   43.08
  11  13  -4   64.04   33.67
 -11 -13   4  -19.48   17.72
  11  13  -3  728.78   64.98
 -11 -13   3  768.61   60.40
  11  13  -2  -42.83   28.14
 -11 -13   2   68.20   38.85
  11  13  -1    2.16   12.37
  11  13  -1  -15.62   40.95
 -11 -13   1    2.59   63.88
  11  13   0    0.90   11.56
  11  13   0  -36.15   37.24
 -11 -13   0  -15.09   39.05
  11  13   1    0.44   11.63
  11  13   1    3.53   18.25
 -11 -13  -1   -0.16   38.79
  11  13   2   43.30   27.88
  11  13   2   59.46   32.28
 -11 -13  -2   96.51   50.87
 -11 -13  -3  108.24  101.47
 -11 -13  -4  165.75   65.70
 -11 -13  -5  840.91  101.89
 -11 -13  -6 2067.48  234.01
 -11 -13  -7  944.19  114.41
 -11 -13  -8  916.09  119.84
 -11 -13  -9  373.03  174.41
 -11 -13 -10   78.75   79.18
 -11 -13 -11  253.33   97.53
 -11 -13 -12   83.60  146.00
 -11 -13 -13  -61.44   82.29
 -11 -13 -14   -3.24   70.99
  11  14  -6   82.83   74.36
 -11 -14   6    5.66   27.72
  11  14  -5   20.80   65.67
 -11 -14   5    7.56   16.94
  11  14  -4   66.62   67.08
 -11 -14   4   29.57   19.10
  11  14  -3    6.42   17.09
  11  14  -3  169.74   57.92
 -11 -14   3    3.77   18.55
  11  14  -2    6.94   25.63
  11  14  -2   34.78   51.61
 -11 -14   2  -30.36   19.40
  11  14  -1   19.25   12.78
  11  14  -1   -0.73   41.07
  11  14   0   11.45   13.79
  11  14   0  299.29   47.43
  11  14   1   -0.23   11.52
  11  14   1   40.55   21.74
 -11 -14  -1   72.10   43.16
 -11 -14  -2  120.99   54.43
 -11 -14  -3   10.77   78.76
 -11 -14  -4  511.46   79.21
 -11 -14  -5   82.71   59.98
 -11 -14  -6   33.14   98.62
 -11 -14  -7  303.13   81.04
 -11 -14  -8   26.01   62.32
 -11 -14  -9  -26.46   66.09
 -11 -14 -10  125.61  141.26
 -11 -14 -11  133.06   84.91
 -11 -14 -12   42.21   78.97
  11  15  -3   -4.22   16.88
  11  15  -3   29.33   33.04
 -11 -15   3   11.25   17.54
  11  15  -2    6.31   32.01
  11  15  -2  178.28   38.64
 -11 -15   2  109.19   37.12
  11  15  -1    0.01   14.50
  11  15  -1   11.63   27.20
 -11 -15   1   29.32   30.89
  11  15   0  -12.26   12.46
  11  15   0   10.21   21.79
 -11 -15   0   17.60   18.00
 -11 -15  -1    2.39   19.79
 -11 -15  -2  -69.14   27.86
 -11 -15  -3  124.07   80.44
 -11 -15  -4   89.48   54.92
 -11 -15  -5  -56.45   54.72
 -11 -15  -6  450.56   81.53
 -11 -15  -7   35.22  102.84
 -11 -15  -8  152.62   74.18
 -11 -15  -9   18.48   61.05
 -11 -15 -10  336.07   93.34
  12  -3  -2    6.06   64.18
 -12   3   2  -20.93   59.92
  12  -3  -1  -16.86   59.91
 -12   3   1    2.77   99.40
  12  -3   0   26.66   60.95
 -12   3   0   21.85   59.11
  12  -3   1    7.85   52.31
 -12   3  -1  -14.07   86.34
  12  -3   2   26.37   51.74
 -12   3  -2  -13.93   49.99
  12  -3   3   -9.70   83.70
 -12   3  -3    6.43   47.15
  12  -3   4   66.86   57.70
 -12   3  -4    0.53   96.57
 -12   3  -5    8.13   48.06
 -12   3  -6    4.83   82.66
  12  -2  -6  -51.96  111.07
 -12   2   6   19.03   58.29
  12  -2  -5  -14.76   63.47
 -12   2   5    9.39  103.18
  12  -2  -4    5.00   59.41
 -12   2   4  -11.10   55.26
  12  -2  -3    6.12   61.21
 -12   2   3    6.63   94.77
  12  -2  -2   -2.43   53.62
 -12   2   2   -1.99   49.74
  12  -2  -1    5.95   57.33
 -12   2   1   20.94   53.49
  12  -2   0   38.19   57.78
 -12   2   0    4.44   95.61
  12  -2   1  -18.36   52.25
 -12   2  -1  -11.51   51.09
  12  -2   2   48.38   95.25
 -12   2  -2    9.21   93.23
  12  -2   3 1337.49  105.45
 -12   2  -3 1245.81  103.50
  12  -2   4   -3.65   45.87
 -12   2  -4   -5.86   45.47
 -12   2  -5   32.68   56.02
 -12   2  -6 4171.54  179.53
 -12   2  -7 4927.25  283.20
 -12   2  -8   28.14   47.39
 -12   2  -9   28.51   44.61
 -12   2 -10   70.01   84.72
  12  -1  -8    9.97   67.03
  12  -1  -7   12.01  109.67
 -12   1   7  -10.31   58.00
  12  -1  -6  953.69  118.11
 -12   1   6  850.82  108.08
  12  -1  -5    2.90   60.50
 -12   1   5   18.08   55.12
  12  -1  -4  -24.72   96.44
 -12   1   4    6.09   90.81
  12  -1  -3    9.09   52.60
 -12   1   3    5.61   49.40
  12  -1  -2   -6.49   83.46
 -12   1   2    1.07   43.95
  12  -1  -1    5.30   49.25
 -12   1   1    9.22   46.18
  12  -1   0  -29.49   50.21
 -12   1   0   -8.20   46.78
  12  -1   1  325.34   66.57
 -12   1  -1   41.34  111.29
  12  -1   2    3.22   44.15
 -12   1  -2  -23.41   43.34
  12  -1   3  -36.81   77.56
 -12   1  -3  -12.15   75.73
  12  -1   4  -61.05   76.80
 -12   1  -4   70.82   43.84
  12  -1   5    0.48   39.99
 -12   1  -5   24.57   39.48
 -12   1  -6 2453.49  179.93
 -12   1  -7 1666.71   95.23
 -12   1  -8   44.74   70.75
 -12   1  -9   81.92   42.12
 -12   1 -10   31.38   38.35
 -12   1 -11    3.15   62.69
 -12   1 -11   12.08   33.93
 -12   1 -12 1291.27   88.98
 -12   1 -12 1524.34   84.73
  12   0  -9   19.77   65.96
 -12   0   9   -3.42   57.97
  12   0  -8  -21.58  117.68
  12   0  -7    7.73   56.76
 -12   0   7   -4.10   50.52
  12   0  -6  713.46  107.25
 -12   0   6  798.85   97.57
  12   0  -5   14.62   93.91
 -12   0   5   -3.74   86.65
  12   0  -4    6.89   55.84
 -12   0   4   24.93   51.08
  12   0  -3    8.20   80.36
 -12   0   3   -2.53   42.60
  12   0  -2   -4.90   44.47
 -12   0   2    1.62   41.39
  12   0  -1   10.01   91.34
 -12   0   1   63.18   48.74
  12   0   0  178.13   57.81
 -12   0   0  102.45   94.06
  12   0   1    0.65   44.28
 -12   0  -1   49.91   41.50
  12   0   2  134.71   87.54
 -12   0  -2  129.84   82.20
  12   0   3   31.41   41.60
 -12   0  -3   52.13   40.44
  12   0   4   88.22   44.13
 -12   0  -4   91.52   42.86
  12   0   5  228.70   47.32
 -12   0  -5  135.25   79.74
 -12   0  -6  230.78   46.33
 -12   0  -7   73.16   64.63
 -12   0  -8   61.15   35.91
 -12   0  -9   26.19   54.37
 -12   0 -10  -27.27   28.28
 -12   0 -10   29.97   27.20
 -12   0 -11  351.06   46.38
 -12   0 -11  273.74   74.80
 -12   0 -12   -5.82   59.88
 -12   0 -12   76.47   32.59
  12   1 -10   -6.35   68.19
 -12  -1  10  -12.02   59.77
  12   1  -9    2.80   60.51
 -12  -1   8   11.24   53.80
  12   1  -7   18.76   58.08
 -12  -1   7    0.35   52.02
  12   1  -6  -13.85   57.00
  12   1  -5   -2.28   55.23
 -12  -1   5  -16.69   51.07
  12   1  -4 1438.25  115.19
 -12  -1   4 1201.80  105.45
  12   1  -3   16.89   50.27
 -12  -1   3   10.40   81.71
  12   1  -2  -22.73   53.70
 -12  -1   2  -46.10   47.88
  12   1  -1   30.33   44.66
 -12  -1   1  -35.91   71.17
  12   1   0 1202.20  147.24
 -12  -1   0 1089.11   80.41
  12   1   1  105.37   50.49
 -12  -1  -1  127.64   44.99
  12   1   2   55.85   38.08
 -12  -1  -2  -57.14   61.67
  12   1   3   61.54   40.52
 -12  -1  -3   88.55   37.74
  12   1   4  362.48   49.25
 -12  -1  -4  227.78   78.34
  12   1   5 1086.78  105.30
 -12  -1  -5 1095.02   63.78
 -12  -1  -6   14.21   29.28
 -12  -1  -7   -4.78   26.28
 -12  -1  -7   -3.27   53.18
 -12  -1  -8  166.97   34.79
 -12  -1  -8   -2.43  123.63
 -12  -1  -9   36.86   45.27
 -12  -1  -9    3.10   56.64
 -12  -1 -10   60.14   30.23
 -12  -1 -10   82.78   28.42
 -12  -1 -11  -20.51   44.75
 -12  -1 -11   38.65   23.91
  12   2 -11   -8.87   70.13
 -12  -2  11   28.40   60.86
  12   2 -10  -12.82   65.68
 -12  -2  10   65.67   98.08
 -12  -2   9   -2.92   52.00
  12   2  -8   -5.28   58.09
 -12  -2   8  -11.48   52.84
  12   2  -7    6.15   54.85
  12   2  -6    9.79   87.44
 -12  -2   6    0.55   44.52
  12   2  -5  736.32   80.69
 -12  -2   5   -5.99   71.14
  12   2  -4  -75.96  101.47
 -12  -2   4  -26.88   91.42
  12   2  -3  881.15  102.08
 -12  -2   3  720.23   93.07
  12   2  -2 9190.71  460.70
 -12  -2   2 8862.97  295.83
  12   2  -1 1514.17  114.03
 -12  -2   1 1350.07  161.58
  12   2   0  787.87   75.63
 -12  -2   0  795.28   68.83
  12   2   1  101.79   77.74
 -12  -2  -1  113.60   41.60
  12   2   2  184.91   77.19
 -12  -2  -2  215.61   69.39
  12   2   3   89.64   60.21
 -12  -2  -3   55.24   33.02
  12   2   4  391.63   75.10
 -12  -2  -4  398.22   72.10
  12   2   5   73.30   53.95
 -12  -2  -5   65.55   30.13
 -12  -2  -6  577.28   43.43
 -12  -2  -7  333.73   60.13
 -12  -2  -7  351.83   88.11
 -12  -2  -8  -10.75   21.80
 -12  -2  -8  -25.33   57.01
 -12  -2  -9   32.19   33.94
 -12  -2  -9  -17.94   57.56
 -12  -2 -10  656.54   40.25
 -12  -2 -10  843.11   98.40
 -12  -2 -10  892.56   63.00
 -12  -2 -11  -11.54   93.09
  12   3 -11    7.40  113.28
 -12  -3  11  -15.57   56.94
 -12  -3  10   85.74  110.31
  12   3  -9   -7.23   56.91
 -12  -3   9   15.55   49.97
  12   3  -8  -30.45   53.53
 -12  -3   8   36.12   47.07
  12   3  -7  -14.81   90.77
 -12  -3   7   26.35   79.66
  12   3  -6   47.04   54.13
 -12  -3   6    3.54   48.57
  12   3  -5   -3.95   50.02
 -12  -3   5  -15.58   45.77
  12   3  -4  385.00  142.56
 -12  -3   4  377.43  129.42
  12   3  -321631.52  715.97
 -12  -3   319719.99  621.13
  12   3  -2 4372.18  194.84
 -12  -3   2 4341.47  182.52
  12   3  -1 1980.17  178.43
 -12  -3   1 2160.85  161.39
  12   3   0  128.80   47.35
 -12  -3   0  141.08   74.29
  12   3   1  755.04   61.29
 -12  -3  -1  726.68   55.48
  12   3   2   23.69   31.42
 -12  -3  -2   26.53   49.16
  12   3   3  -18.15   27.95
 -12  -3  -3  -18.10   44.76
  12   3   4  371.35   39.24
 -12  -3  -4  415.15   37.93
  12   3   5   18.20   38.85
 -12  -3  -5    1.34   36.79
 -12  -3  -6  233.45   81.61
 -12  -3  -6  182.90   26.87
 -12  -3  -7  198.37  155.41
 -12  -3  -7  310.60   29.43
 -12  -3  -8  908.12  111.27
 -12  -3  -8  826.45   55.22
 -12  -3  -9  101.30  103.35
 -12  -3  -9    8.04   16.71
 -12  -3  -9   22.99   15.71
 -12  -3 -10  274.31   82.20
 -12  -3 -11    7.47   54.46
 -12  -3 -12  -10.85   54.81
  12   4 -12    3.26  115.23
 -12  -4  12  -16.53   59.05
  12   4 -11  -16.76  119.35
 -12  -4  11  -57.72  104.49
  12   4 -10   10.50   56.48
 -12  -4  10  -21.91   50.63
  12   4  -9    6.32   53.66
 -12  -4   9  -18.16   47.84
  12   4  -8    1.06   57.11
 -12  -4   8   67.27   51.43
  12   4  -7   53.72   91.47
 -12  -4   7    0.61   81.04
  12   4  -6   85.04   58.33
 -12  -4   6  101.05   53.15
  12   4  -5  199.98   61.54
 -12  -4   5  129.68   54.30
  12   4  -4 6652.67  255.18
 -12  -4   4 6131.40  207.95
  12   4  -310473.83  337.89
 -12  -4   310563.99  434.30
  12   4  -2 6596.86  239.19
 -12  -4   2 6874.81  221.50
  12   4  -1 2753.71  183.58
 -12  -4   1 2722.26  111.32
  12   4   0 2460.17  154.78
 -12  -4   0 2409.15  141.03
  12   4   1  731.86   92.37
 -12  -4  -1  772.59   84.65
  12   4   2   -7.44   45.03
 -12  -4  -2  -15.96   24.36
  12   4   3   30.41   43.33
 -12  -4  -3   24.92   22.96
  12   4   4  215.17   29.99
 -12  -4  -4  176.73   45.47
  12   4   5   22.98   36.09
 -12  -4  -5  107.28   67.88
 -12  -4  -5   34.15   33.76
 -12  -4  -6   65.69  139.29
 -12  -4  -6  119.17   35.98
 -12  -4  -7 4553.15  216.75
 -12  -4  -7 3858.08   86.76
 -12  -4  -8  343.62  167.12
 -12  -4  -8  391.22   21.32
 -12  -4  -9 1450.69  133.51
 -12  -4 -10  -40.09  115.42
 -12  -4 -11  -63.89   66.98
 -12  -4 -12   53.97  115.90
 -12  -4 -13  -14.56   59.06
  12   5 -12  109.28   79.49
 -12  -5  12  144.95  135.71
  12   5 -11  -64.33   65.51
 -12  -5  11  -18.27   58.41
  12   5 -10  183.29   69.62
 -12  -5  10   50.81   62.19
  12   5  -9  143.65   66.60
 -12  -5   9  104.10   61.08
  12   5  -8   37.46  105.98
 -12  -5   8  123.80   95.54
  12   5  -7  104.42   59.05
 -12  -5   7  114.24   92.22
  12   5  -6  820.67   87.64
 -12  -5   6  883.72   79.54
  12   5  -5  191.70  100.19
 -12  -5   5  156.39   49.89
  12   5  -4   -9.92   40.73
 -12  -5   4   25.64   35.35
  12   5  -3 1465.30  148.88
 -12  -5   3 1508.78  138.26
  12   5  -2   29.76   38.09
 -12  -5   2   41.47   59.06
  12   5  -1  117.32   40.36
 -12  -5   1  155.95   61.24
  12   5   0   73.48   59.04
 -12  -5   0  111.27   31.39
  12   5   1  234.80   61.01
 -12  -5  -1  228.73   33.20
  12   5   2  150.64   29.27
 -12  -5  -2  121.99   27.07
  12   5   3  109.76   25.18
 -12  -5  -3  124.43   22.92
  12   5   4  318.55   44.35
 -12  -5  -4  308.69   25.72
 -12  -5  -4  514.52   93.21
  12   5   5  134.57   34.80
 -12  -5  -5  196.44   19.68
 -12  -5  -5  278.64  147.57
 -12  -5  -6 2482.12  158.07
 -12  -5  -6 1839.56   44.83
 -12  -5  -7 2568.61   65.46
 -12  -5  -7 3206.24  287.95
 -12  -5  -8  233.02   85.49
 -12  -5  -9  845.20  190.78
 -12  -5 -10   98.96   73.74
 -12  -5 -11   75.50  124.47
 -12  -5 -12  -43.87   67.47
 -12  -5 -13   89.54  124.56
 -12  -5 -14  329.38   89.87
 -12  -5 -17 2645.93  178.70
  12   6 -12   35.25   72.21
 -12  -6  12  121.10  118.12
  12   6 -11   53.09   56.02
 -12  -6  11  -57.70   53.64
  12   6 -10    9.00   55.49
 -12  -6  10   16.24   52.48
  12   6  -9   58.92  115.01
 -12  -6   9  140.93   59.24
  12   6  -8  780.42  161.18
 -12  -6   8  897.04   86.90
  12   6  -7  583.59   80.52
 -12  -6   7  652.28  123.19
  12   6  -6  317.50   62.84
 -12  -6   6  235.06   97.72
  12   6  -5  290.88   92.74
 -12  -6   5  187.49   50.49
  12   6  -4  -23.50   32.25
 -12  -6   4   19.02   29.80
  12   6  -3  172.18   74.16
 -12  -6   3  138.84   39.40
  12   6  -2   -2.98   31.13
 -12  -6   2   26.20   28.10
  12   6  -1   17.47   27.60
 -12  -6   1  -31.58   25.11
  12   6   0  126.59   31.65
 -12  -6   0  106.45   29.65
  12   6   1   78.14   26.90
 -12  -6  -1   82.75   24.85
  12   6   2   23.40   21.22
 -12  -6  -2   39.98   19.47
  12   6   3  191.55   38.46
 -12  -6  -3  190.01   36.54
 -12  -6  -3  245.11   82.05
  12   6   4   -3.94   21.21
 -12  -6  -4   13.48   20.40
 -12  -6  -4  -37.77  101.28
  12   6   5  126.34   12.64
 -12  -6  -5  121.86   20.86
 -12  -6  -5  197.22   76.94
 -12  -6  -6  316.59   14.28
 -12  -6  -6  548.66  158.47
 -12  -6  -7 1091.38  119.11
 -12  -6  -8  -40.18  118.18
 -12  -6  -9   36.66   67.23
 -12  -6 -10  163.01  142.86
 -12  -6 -11   41.56   69.46
 -12  -6 -12   39.48  122.66
 -12  -6 -13  268.42   89.87
 -12  -6 -14   44.76  122.18
 -12  -6 -17 2618.44  189.28
 -12  -7  12  102.97   70.92
  12   7 -11   55.41  106.43
 -12  -7  11   24.70   57.63
  12   7 -10    9.42   99.60
 -12  -7  10   31.95   53.57
  12   7  -9  397.70  140.24
 -12  -7   9  433.74   77.32
  12   7  -8   65.10   56.01
 -12  -7   8   50.96   49.13
  12   7  -7  241.52   62.92
 -12  -7   7  207.06   97.94
  12   7  -6   89.17   82.13
 -12  -7   6   33.93   73.35
  12   7  -5  213.94   87.92
 -12  -7   5  217.86   81.14
  12   7  -4   15.81   33.75
 -12  -7   4   -0.36   54.06
  12   7  -3   85.90   60.05
 -12  -7   3   17.63   55.14
  12   7  -2  -26.94   28.42
 -12  -7   2    4.30   46.37
  12   7  -1   23.90   26.21
 -12  -7   1    5.30   42.03
  12   7   0  163.62   31.39
 -12  -7   0  211.84   29.06
  12   7   1  286.82   31.66
 -12  -7  -1  364.60   28.83
 -12  -7  -1  377.40   90.48
  12   7   2  133.63   36.91
 -12  -7  -2  117.76   34.18
 -12  -7  -2  110.24   75.96
  12   7   3   46.45   25.71
 -12  -7  -3   50.02   14.08
 -12  -7  -3  129.19  118.90
  12   7   4   73.97   18.58
 -12  -7  -4   96.09   17.85
 -12  -7  -4  121.91   72.03
 -12  -7  -5  418.12  162.35
 -12  -7  -6  426.50   93.60
 -12  -7  -7  -29.98  114.51
 -12  -7  -8   33.63   67.55
 -12  -7  -9  149.62   80.92
 -12  -7 -10   94.31   79.43
 -12  -7 -11   82.86   78.46
 -12  -7 -12  228.44   92.22
 -12  -7 -13  122.28   81.30
 -12  -7 -14   48.42   75.31
 -12  -7 -15   77.20   79.70
 -12  -7 -16  173.99   91.11
 -12  -7 -17  435.62  112.64
  12   8 -11  262.55   79.72
 -12  -8  11  185.50   73.86
  12   8 -10   52.36   59.38
 -12  -8  10   36.51   54.87
  12   8  -9    8.47   55.52
 -12  -8   9   77.16   51.35
  12   8  -8  -59.48   50.38
 -12  -8   8  -27.31   47.78
  12   8  -7  194.94   56.82
 -12  -8   7  131.20   50.16
  12   8  -6  -35.42   67.51
 -12  -8   6   23.08   34.98
  12   8  -5   59.20   36.97
 -12  -8   5  -18.89   33.06
  12   8  -4  218.65   44.82
 -12  -8   4  204.74   40.50
  12   8  -3  109.73   59.17
 -12  -8   3   54.97   32.07
  12   8  -2   53.10   28.28
 -12  -8   2    2.31   25.99
  12   8  -1  -35.31   25.08
 -12  -8   1  -20.62   40.05
 -12  -8   1   -8.59   59.32
  12   8   0   22.13   42.33
 -12  -8   0   88.71   22.84
 -12  -8   0   -5.03   67.98
  12   8   1 1918.36   63.83
 -12  -8  -1 2055.55   83.31
 -12  -8  -1 2569.37  248.78
  12   8   2  391.19   40.68
 -12  -8  -2  309.30   22.42
 -12  -8  -2  426.16   92.76
 -12  -8  -3 1411.29  118.11
 -12  -8  -3  787.64   36.26
 -12  -8  -4  -17.35   60.08
 -12  -8  -5  283.15   87.44
 -12  -8  -6  719.16  186.68
 -12  -8  -7   33.74   68.01
 -12  -8  -8   77.26  130.75
 -12  -8  -9  695.24  114.85
 -12  -8 -10   91.61   81.57
 -12  -8 -11   35.09   79.23
 -12  -8 -12  667.11  123.15
 -12  -8 -13   46.63   83.02
 -12  -8 -14  309.56  104.15
 -12  -8 -15  313.85  104.51
 -12  -8 -16  196.60   95.92
 -12  -8 -17  242.78   98.57
  12   9 -11  248.21   85.36
 -12  -9  11  346.12   77.41
  12   9 -10  125.48   67.40
 -12  -9  10   86.34   59.65
  12   9  -9  170.49   63.45
 -12  -9   9  105.56   59.66
  12   9  -8   70.51   53.31
 -12  -9   8   50.77   49.44
  12   9  -7   26.04   79.61
 -12  -9   7   33.20   41.67
  12   9  -6   28.51   60.72
 -12  -9   6   -8.66   31.78
  12   9  -5   73.01   38.00
 -12  -9   5   15.00   35.50
  12   9  -4   36.93   30.02
 -12  -9   4  -36.04   27.64
  12   9  -3  103.98   60.13
 -12  -9   3   49.32   54.52
 -12  -9   3   70.50   60.03
  12   9  -2  416.33   45.08
 -12  -9   2  529.28   41.54
 -12  -9   2  500.29   84.22
  12   9  -1  188.77   56.76
 -12  -9   1  277.33   31.04
 -12  -9   1  263.55  130.05
  12   9   0    1.65   35.27
 -12  -9   0   39.91   56.40
 -12  -9   0   24.65   18.42
  12   9   1    2.03   29.35
 -12  -9  -1   20.06   57.96
 -12  -9  -1   37.06   27.63
  12   9   2   18.54   21.18
 -12  -9  -2   87.40   96.17
 -12  -9  -2    1.96   11.69
  12   9   3  122.27   10.26
 -12  -9  -3  229.71   71.88
 -12  -9  -4  661.31  103.20
 -12  -9  -5   41.01   66.67
 -12  -9  -6   51.99   68.40
 -12  -9  -7   -4.13  108.20
 -12  -9  -8  522.95  108.11
 -12  -9  -9   56.21  135.91
 -12  -9 -10  487.10  118.84
 -12  -9 -11 7252.06  329.37
 -12  -9 -12 4245.05  265.81
 -12  -9 -13 3614.27  247.71
 -12  -9 -14  995.60  146.59
 -12  -9 -15   34.22   82.67
 -12  -9 -16   41.22  141.66
  12  10 -10  112.50  103.39
 -12 -10  10   24.35   52.80
  12  10  -9  137.17  111.30
 -12 -10   9  165.73   58.90
  12  10  -8   52.91   96.33
 -12 -10   8  115.22   52.00
  12  10  -7  175.14  108.89
 -12 -10   7  293.49   57.19
  12  10  -6  169.45   49.78
 -12 -10   6   93.41   45.30
 -12 -10   6  153.99   58.16
  12  10  -5   37.78   41.73
 -12 -10   5  111.98   65.18
 -12 -10   5   60.32   52.82
  12  10  -4   -5.05   32.82
 -12 -10   4  -57.11   46.23
 -12 -10   4   45.05   29.71
  12  10  -3  860.57  103.14
 -12 -10   3 1035.94  164.60
 -12 -10   3  952.36   58.95
  12  10  -2 3663.12  130.98
 -12 -10   2 4874.87  202.50
 -12 -10   2 4161.35  167.15
  12  10  -1  273.92   62.88
 -12 -10   1  325.72   82.22
 -12 -10   1  391.28   35.18
  12  10   0  437.28   55.63
 -12 -10   0  592.13  141.03
  12  10   1  352.71   43.42
 -12 -10  -1  602.97   81.58
  12  10   2   22.04   12.30
 -12 -10  -2   46.27   56.24
 -12 -10  -3   -3.51   52.76
 -12 -10  -4  262.40   83.63
 -12 -10  -5  110.43  132.82
 -12 -10  -6   60.06   75.75
 -12 -10  -7 1180.80  135.02
 -12 -10  -8 1353.25  148.76
 -12 -10  -9  424.67  107.89
 -12 -10 -10  257.55  173.47
 -12 -10 -11    5.60   71.30
 -12 -10 -12  546.48  126.83
 -12 -10 -13 2824.33  208.64
 -12 -10 -14  451.39  125.59
 -12 -10 -15  -19.46  142.04
 -12 -10 -16   56.21   86.62
  12  11  -9  -15.46   48.11
 -12 -11   9   11.06   19.92
 -12 -11   9   -2.12   42.66
  12  11  -8  -60.47   43.18
 -12 -11   8    2.34   19.50
 -12 -11   8   22.78   38.38
  12  11  -7   92.76   41.21
 -12 -11   7  -78.67   34.08
 -12 -11   7   75.13   64.07
  12  11  -6  201.25   57.94
 -12 -11   6  358.23   55.92
 -12 -11   6  116.37   91.75
  12  11  -5  -44.41   33.52
 -12 -11   5   56.75   41.24
 -12 -11   5    5.30   31.85
  12  11  -4   95.91   76.77
 -12 -11   4  126.62   61.72
 -12 -11   4  160.10   42.58
  12  11  -3 2024.28  149.35
 -12 -11   3 2684.89  223.80
  12  11  -2 1411.57   77.03
 -12 -11   2 2019.25  121.38
  12  11  -1  102.37   53.39
 -12 -11   1  213.75   64.54
  12  11   0  139.56   27.17
 -12 -11   0  335.22  111.86
  12  11   1  121.54   21.31
 -12 -11  -1  318.82   65.29
 -12 -11  -2   27.34   55.40
 -12 -11  -3   85.04  113.32
 -12 -11  -4  319.24   86.75
 -12 -11  -5  262.94   88.15
 -12 -11  -6 -103.20  145.96
 -12 -11  -7 5525.09  291.24
 -12 -11  -810417.07  430.41
 -12 -11  -9 2213.23  187.69
 -12 -11 -10 1109.86  149.19
 -12 -11 -11  756.08  223.77
 -12 -11 -12 -133.72   93.85
 -12 -11 -13   -0.04   65.99
 -12 -11 -14  302.30  110.40
 -12 -11 -15   72.33   90.10
  12  12  -8  160.58   53.79
 -12 -12   8   33.46   37.39
 -12 -12   8   57.27   49.11
  12  12  -7 -135.29   45.72
 -12 -12   7  -20.03   34.16
 -12 -12   7   54.26   42.35
  12  12  -6   71.16   42.09
 -12 -12   6  -35.71   20.57
  12  12  -5  548.87  110.83
  12  12  -4 2378.43  184.32
 -12 -12   4 2995.64  137.45
  12  12  -3 1314.42  134.92
 -12 -12   3 1734.47  193.43
  12  12  -2 1327.87   79.37
 -12 -12   2 1904.46  122.86
  12  12  -1  598.10   78.44
 -12 -12   1  902.00   92.84
  12  12   0  141.06   29.10
 -12 -12   0  343.36   66.75
 -12 -12  -1  -27.11   92.36
 -12 -12  -2  139.66   64.75
 -12 -12  -3  143.45   68.64
 -12 -12  -4   97.85  118.70
 -12 -12  -5  201.37   84.36
 -12 -12  -6    2.33   62.29
 -12 -12  -7 8556.58  559.48
 -12 -12  -8 7587.56  368.87
 -12 -12  -9 1001.48  154.57
 -12 -12 -10  955.91  139.04
 -12 -12 -11 1207.86  151.05
 -12 -12 -12   11.98  130.96
 -12 -12 -13  110.67   91.02
 -12 -12 -14  173.59  101.83
  12  13  -6   49.90   75.69
 -12 -13   6   25.95   20.62
  12  13  -5    8.93   59.72
 -12 -13   5   -2.39   18.00
  12  13  -4  -11.83   34.70
 -12 -13   4   -5.57   20.22
  12  13  -3  852.14   60.20
 -12 -13   3  -28.67   54.53
  12  13  -2  544.30   56.27
 -12 -13   2  838.27   71.91
  12  13  -1  246.31   66.01
 -12 -13   1  450.08   72.58
 -12 -13   0  -17.38   49.99
 -12 -13  -1  141.02  106.86
 -12 -13  -2   -9.02   48.48
 -12 -13  -3   57.22   57.47
 -12 -13  -4   -2.99   90.00
 -12 -13  -5 2314.93  161.69
 -12 -13  -6 1013.16  128.97
 -12 -13  -7  115.39   90.37
 -12 -13  -8 3655.26  215.69
 -12 -13  -9  516.07  120.81
 -12 -13 -10   33.09   80.63
 -12 -13 -11   -1.55   67.73
 -12 -13 -12 1053.53  141.89
  12  14  -3  -19.03   31.78
 -12 -14   3   -4.10   33.60
  12  14  -2   17.62   14.71
  12  14  -2  -49.62   48.08
 -12 -14   2    3.46   20.54
 -12 -14   1   -5.78   21.00
 -12 -14  -1  244.11  106.19
 -12 -14  -2  113.89  103.55
 -12 -14  -3   -9.57   49.19
 -12 -14  -4   23.65   56.19
 -12 -14  -5   35.22  106.03
 -12 -14  -6   17.60   60.36
 -12 -14  -7    8.92   61.80
 -12 -14  -8  550.27  183.64
 -12 -14  -9  231.11   92.57
 -12 -14 -10  -30.54   74.51
 -12 -15  -1   12.97   38.65
 -12 -15  -2   -6.39   39.05
 -12 -15  -3  -62.12   38.72
 -12 -15  -4  -30.18   52.81
 -12 -15  -5   48.32   59.89
 -12 -15  -6   24.94  102.31
  13  -1  -1    5.30   49.93
 -13   1   1    3.02   44.35
  13  -1   0   18.17   51.42
 -13   1   0    3.16   80.85
  13  -1   1  -18.04   44.03
 -13   1  -1   14.62   41.31
  13  -1   2   15.73   84.43
 -13   1  -2   29.49   46.22
  13  -1   3   12.52   44.50
 -13   1  -3   -3.88   76.03
  13  -1   4 1916.32  119.09
 -13   1  -4 1961.22  115.69
 -13   1  -5 1267.42  156.98
 -13   1  -6   55.80   48.46
  13   0  -4  -19.62   97.69
 -13   0   4   -4.64   88.10
  13   0  -3   15.36   51.22
 -13   0   3   -2.39   46.17
  13   0  -2   58.40   90.50
 -13   0   2    9.22   47.55
  13   0  -1   19.01   50.73
 -13   0   1    8.24   78.81
  13   0   0  -15.78   45.89
 -13   0   0   -4.04   42.12
  13   0   1  -29.69   70.80
 -13   0  -1    3.92   38.10
  13   0   2   36.73   44.68
 -13   0  -2   21.78   73.43
  13   0   3  -51.72   41.15
 -13   0  -3   15.17   38.97
  13   0   4  373.21  102.19
 -13   0  -4  365.06   98.87
  13   0   5  296.19   53.43
 -13   0  -5  187.09   52.89
 -13   0  -6    2.59   33.85
 -13   0  -7  -16.69   59.77
 -13   0  -8  112.46   40.81
 -13   0  -9   36.11   34.53
  13   1  -6   16.82   56.09
 -13  -1   6   -6.15   49.36
  13   1  -5  -17.68   98.59
  13   1  -4  -11.69   50.47
 -13  -1   4   -1.35   44.39
  13   1  -3   60.15   86.27
 -13  -1   3   -3.44   45.30
  13   1  -2   -5.02   45.16
 -13  -1   2   -4.48   72.24
  13   1  -1  380.01  128.43
 -13  -1   1  562.57   69.87
  13   1   0   25.90   48.12
 -13  -1   0   59.44   44.22
  13   1   1  104.81   49.86
 -13  -1  -1  159.90   80.54
  13   1   2   14.62   73.59
 -13  -1  -2   77.94   41.09
  13   1   3  220.59   78.19
 -13  -1  -3  119.95   44.33
  13   1   4  -26.54   32.38
 -13  -1  -4   54.27   53.13
  13   1   5   36.31   37.57
 -13  -1  -5   82.74   35.56
 -13  -1  -6  171.47   68.27
 -13  -1  -7    9.27   28.57
 -13  -1  -8  425.70   45.65
  13   2  -7  -39.13   58.30
 -13  -2   7    4.39   51.46
  13   2  -5   -4.71   50.21
 -13  -2   5   -2.96   43.53
  13   2  -4    9.18   44.36
 -13  -2   4   -7.99   39.78
  13   2  -3  345.15   70.69
 -13  -2   3  -18.01  107.19
  13   2  -2  582.91  153.36
 -13  -2   2 1067.20   84.39
  13   2  -1  303.96   69.46
 -13  -2   1  490.90   64.95
  13   2   0  211.55   93.98
 -13  -2   0  141.57   84.96
  13   2   1   93.84   75.53
 -13  -2  -1   61.44   70.64
  13   2   2  163.36   43.37
 -13  -2  -2   97.95   40.85
  13   2   3   17.11   32.13
 -13  -2  -3   15.69   53.10
  13   2   4   17.89   29.54
 -13  -2  -4   -9.15   47.68
  13   2   5   -9.70   27.45
 -13  -2  -5   -8.26   25.58
 -13  -2  -6  111.39   76.62
 -13  -2  -6   77.12   44.83
 -13  -2  -7   74.66   58.45
 -13  -2  -7   -1.37   14.86
  13   3  -8   -6.92   55.94
 -13  -3   8  -10.35   48.20
  13   3  -7    0.15   62.14
 -13  -3   7   78.41   52.84
 -13  -3   6  -16.29   85.62
  13   3  -5   12.67   48.65
 -13  -3   5   -2.44   43.49
  13   3  -4  273.49   99.01
 -13  -3   4   -4.03   53.03
  13   3  -3    7.64   44.96
 -13  -3   3   -6.38   71.90
  13   3  -2 1911.92  196.03
 -13  -3   2 1936.67  111.23
  13   3  -1  326.15   68.96
 -13  -3   1  338.84   61.14
  13   3   0  176.48   51.66
 -13  -3   0  127.35   80.03
  13   3   1  140.77   46.84
 -13  -3  -1  192.47   74.35
  13   3   2  620.82   98.52
 -13  -3  -2  739.17   55.21
  13   3   3   97.84   58.26
 -13  -3  -3   71.15   31.64
  13   3   4   52.04   50.20
 -13  -3  -4   37.91   45.80
  13   3   5   -1.40   23.14
 -13  -3  -5   17.56   22.19
 -13  -3  -6   53.48   63.24
 -13  -3  -6  -15.91   20.53
 -13  -3  -7   17.74  117.12
 -13  -3  -8  118.76   79.49
 -13  -3  -9  277.62  154.10
  13   4  -9    3.75   67.73
 -13  -4   9  111.21   58.04
  13   4  -8   -4.72   61.36
 -13  -4   8   94.20   53.10
 -13  -4   7   12.73   78.89
  13   4  -6   15.11   69.59
 -13  -4   6  304.72   60.74
  13   4  -5  693.66   88.40
 -13  -4   5  688.37   78.89
  13   4  -4  632.02   82.03
 -13  -4   4  676.91   73.43
  13   4  -3  160.29   60.74
 -13  -4   3  173.56   93.64
  13   4  -2 1044.73   90.30
 -13  -4   2 1233.62  136.12
  13   4  -1 1679.44  166.60
 -13  -4   1 2071.49  100.93
  13   4   0 1647.17  143.66
 -13  -4   0 1669.86   85.42
  13   4   1   35.14   32.89
 -13  -4  -1    8.02   53.44
  13   4   2  -17.86   26.49
 -13  -4  -2   32.07   41.13
  13   4   3  -21.92   24.90
 -13  -4  -3    7.44   39.05
  13   4   4  167.44   49.82
 -13  -4  -4  138.73   27.80
  13   4   5    4.33   34.04
 -13  -4  -5  100.34   65.67
 -13  -4  -5    8.30   18.37
 -13  -4  -6   50.40  129.55
 -13  -4  -7  764.94  119.25
 -13  -4  -8 2049.66  266.55
 -13  -4  -9  -27.25   69.11
 -13  -4 -10  713.46  192.94
  13   5  -9    4.91   56.19
 -13  -5   9   28.54   50.16
  13   5  -8   18.06   89.52
 -13  -5   8    8.93   46.22
  13   5  -7    7.44   46.77
 -13  -5   7  -30.71   72.73
  13   5  -6  164.45   72.64
 -13  -5   6  486.83   66.25
  13   5  -5 2309.58  217.99
 -13  -5   5 2563.77  127.93
  13   5  -4 1728.70  114.19
 -13  -5   4 1662.95  102.82
  13   5  -3  603.19  134.39
 -13  -5   3  914.70   73.41
  13   5  -2  117.71   49.51
 -13  -5   2  187.24   74.77
  13   5  -1  733.83   61.87
 -13  -5   1  661.07   93.35
  13   5   0    5.42   54.09
 -13  -5   0  -53.94   49.27
  13   5   1   -6.08   49.82
 -13  -5  -1  -49.99   26.41
  13   5   2  -16.08   41.57
 -13  -5  -2   19.44   21.68
  13   5   3  -15.48   21.62
 -13  -5  -3  -12.15   19.55
  13   5   4    4.13   31.49
 -13  -5  -4   10.46   17.41
 -13  -5  -4   74.10   67.00
  13   5   5  607.41   32.26
 -13  -5  -5  811.01  200.56
 -13  -5  -6  730.50  120.22
 -13  -5  -7  116.23   83.26
 -13  -5  -8  -32.54   70.71
 -13  -5  -9 1209.99  137.78
 -13  -5 -10  -24.44   68.93
 -13  -5 -11  305.90   96.04
  13   6  -9   -3.33   97.44
 -13  -6   9   33.25   48.42
  13   6  -8   13.72   60.56
 -13  -6   8  211.92   90.57
  13   6  -7   14.75   52.65
 -13  -6   7   95.49   83.12
  13   6  -6  -20.69   80.62
 -13  -6   6   38.13   72.36
  13   6  -5  309.56   66.79
 -13  -6   5  354.85   61.69
  13   6  -4   57.70   48.67
 -13  -6   4  115.57   44.97
  13   6  -3 1428.10   90.43
 -13  -6   3 1543.11   83.09
  13   6  -2   40.40   61.18
 -13  -6   2   23.89   32.65
  13   6  -1   14.08   31.08
 -13  -6   1   27.79   28.30
  13   6   0   25.38   27.84
 -13  -6   0   22.05   25.55
  13   6   1  138.93   31.78
 -13  -6  -1  133.99   28.30
  13   6   2   34.84   22.77
 -13  -6  -2   38.00   20.79
  13   6   3   18.16   32.37
 -13  -6  -3   34.61   17.99
 -13  -6  -3   -9.50   71.18
  13   6   4   19.52   25.85
 -13  -6  -4   78.03  121.57
 -13  -6  -5 1092.14  133.72
 -13  -6  -6 1614.27  152.04
 -13  -6  -7   97.79   81.12
 -13  -6  -8  110.63   79.96
 -13  -6  -9  114.43   81.97
 -13  -6 -10   57.71   74.68
 -13  -6 -11   22.05   70.15
 -13  -6 -12    6.49   65.23
  13   7  -9  -44.50   51.04
 -13  -7   9   51.33   43.91
  13   7  -8  234.85   68.22
 -13  -7   8  201.55  104.45
  13   7  -7  -10.00   43.96
 -13  -7   7    7.59   69.33
  13   7  -6   69.19   84.10
 -13  -7   6   33.58   77.17
  13   7  -5   29.46   41.34
 -13  -7   5   -8.75   65.96
  13   7  -4 1095.14  131.10
 -13  -7   4 1241.76  121.65
  13   7  -3 1313.82   80.89
 -13  -7   3 1472.30  116.99
  13   7  -2  242.33   77.29
 -13  -7   2  363.93   70.77
  13   7  -1  -27.26   26.93
 -13  -7   1   33.55   42.13
  13   7   0  402.74   39.63
 -13  -7   0  379.02   59.54
  13   7   1   16.71   21.02
 -13  -7  -1   -2.34   18.87
 -13  -7  -1  123.30   67.55
  13   7   2  127.82   41.69
 -13  -7  -2  209.10   23.34
 -13  -7  -2  277.50   89.24
  13   7   3   99.63   29.71
 -13  -7  -3  127.78  141.22
 -13  -7  -4  336.86   96.38
 -13  -7  -5   51.25  129.65
 -13  -7  -6   37.75   71.45
 -13  -7  -7  162.67   86.48
 -13  -7  -8   29.99   70.78
 -13  -7  -9   -8.76   66.01
 -13  -7 -10    9.54  118.76
 -13  -7 -11   91.45   83.65
 -13  -7 -12  399.28  186.52
 -13  -7 -13  396.63  108.12
  13   8  -9   51.63   47.85
 -13  -8   9  -30.46   40.80
  13   8  -8  -26.44   49.47
 -13  -8   8   67.72   43.73
  13   8  -7  347.45  123.86
 -13  -8   7  492.74  110.01
  13   8  -6  658.94   73.90
 -13  -8   6  554.14  111.22
  13   8  -5   30.50   43.03
 -13  -8   5  151.59   68.90
  13   8  -4  -39.04   57.92
 -13  -8   4   59.02   54.01
  13   8  -3  132.46   37.33
 -13  -8   3   89.90   34.39
  13   8  -2    6.71   43.93
 -13  -8   2   -6.03   23.31
  13   8  -1   43.28   42.40
 -13  -8   1    1.16   22.38
 -13  -8   1   35.84   63.24
  13   8   0   35.57   40.84
 -13  -8   0   34.66   37.05
 -13  -8   0   66.67   70.23
  13   8   1  -10.82   32.48
 -13  -8  -1   17.97   17.21
 -13  -8  -1   70.95  114.53
  13   8   2   64.96   18.64
 -13  -8  -2  175.34   78.38
 -13  -8  -3 1094.59  132.50
 -13  -8  -4  183.69  154.14
 -13  -8  -5   12.26   65.19
 -13  -8  -6    0.34   58.71
 -13  -8  -7  262.65   95.19
 -13  -8  -8 -133.47   85.50
 -13  -8  -9  190.41   95.24
 -13  -8 -10 1289.57  149.33
 -13  -8 -11   67.88  148.70
 -13  -8 -12  -24.91   77.74
 -13  -8 -13  239.44  180.07
  13   9  -8   30.59   91.20
 -13  -9   8  -98.87   47.68
  13   9  -7   47.12   46.27
 -13  -9   7  -88.47   40.79
  13   9  -6   64.74   44.54
 -13  -9   6   55.02   40.67
  13   9  -5   45.87   37.59
 -13  -9   5   12.05   34.41
  13   9  -4   73.00   62.73
 -13  -9   4   59.58   34.61
  13   9  -3   33.56   26.24
 -13  -9   3  -19.08   25.01
 -13  -9   3  -34.69   51.21
  13   9  -2    4.11   44.75
 -13  -9   2  -18.41   41.55
 -13  -9   2  -38.48   57.53
  13   9  -1   15.21   35.61
 -13  -9   1   -0.70   19.30
 -13  -9   1  -15.78   93.49
  13   9   0   36.27   34.94
 -13  -9   0   -0.15   31.86
 -13  -9   0   50.34   62.35
  13   9   1  -13.95   28.74
 -13  -9  -1  -50.61   63.36
 -13  -9  -2   88.63  131.32
 -13  -9  -3 1297.30  134.58
 -13  -9  -4  897.83  127.75
 -13  -9  -5  307.95  172.65
 -13  -9  -6  290.25   97.87
 -13  -9  -7  -11.49   68.27
 -13  -9  -8   47.56   78.49
 -13  -9  -9   50.44   80.13
 -13  -9 -10  116.00  159.53
 -13  -9 -11  474.62  123.00
 -13  -9 -12 2594.45  345.82
 -13  -9 -13  990.83  158.47
 -13  -9 -14 1523.36  173.29
  13  10  -7   48.55   47.64
 -13 -10   7   59.51   42.94
  13  10  -6  130.13   47.91
 -13 -10   6   47.84   43.19
 -13 -10   6  195.09   61.72
  13  10  -5    4.95   59.65
 -13 -10   5   28.29   31.43
 -13 -10   5  -32.85   50.49
  13  10  -4  239.75   46.95
 -13 -10   4  277.15   72.92
 -13 -10   4  322.62   75.33
  13  10  -3   29.62   29.90
 -13 -10   3 -112.74   96.51
 -13 -10   3   26.59   46.23
  13  10  -2  147.25   35.44
 -13 -10   2  293.60   75.96
 -13 -10   2  240.55   33.01
  13  10  -1  -17.03   34.42
 -13 -10   1  -18.98   51.17
 -13 -10   1   16.48   32.31
  13  10   0   21.51   31.75
 -13 -10   0    8.74  101.07
 -13 -10  -1  -20.96   59.00
 -13 -10  -2  147.11   75.15
 -13 -10  -3    4.22  103.25
 -13 -10  -4   15.73   65.28
 -13 -10  -5   72.33   75.94
 -13 -10  -6  -68.96  138.31
 -13 -10  -7  178.70   92.28
 -13 -10  -8   35.59   77.35
 -13 -10  -9  813.43  132.25
 -13 -10 -10  125.79   93.78
 -13 -10 -11   50.15  154.05
 -13 -10 -12   83.75   96.93
 -13 -10 -13 2157.42  202.70
  13  11  -6  146.15   81.23
 -13 -11   6  -91.03   52.83
 -13 -11   6  190.30   43.30
  13  11  -5  105.36   79.88
 -13 -11   5  203.67   63.04
 -13 -11   5  123.53   72.44
  13  11  -4  113.88   42.20
 -13 -11   4   56.13   65.26
 -13 -11   4  164.08   39.97
  13  11  -3  343.30   83.28
 -13 -11   3  608.55   85.84
 -13 -11   3  524.49   47.43
  13  11  -2   28.72   26.32
 -13 -11   2   30.00   92.88
 -13 -11   2   -2.45   23.49
  13  11  -1   72.40   45.16
 -13 -11   1  180.42   66.17
 -13 -11   0  -62.34   62.49
 -13 -11  -1  -58.67  110.57
 -13 -11  -2  -50.24   65.18
 -13 -11  -3  185.02   79.81
 -13 -11  -4  157.22  144.44
 -13 -11  -5   -9.43   67.36
 -13 -11  -6  895.12  128.74
 -13 -11  -7  163.35  165.78
 -13 -11  -8    4.90   69.90
 -13 -11  -9   68.42   84.68
 -13 -11 -10  347.68  112.99
 -13 -11 -11  128.27   98.13
 -13 -11 -12  389.04  208.21
 -13 -11 -13  119.32  100.25
  13  12  -5    1.32   34.28
 -13 -12   5   -4.18   21.80
  13  12  -4 1228.66   63.58
 -13 -12   4 -129.00   43.08
  13  12  -3  310.19   98.72
 -13 -12   3 1095.54   98.65
 -13 -12   2  -51.45  108.55
 -13 -12   1   54.23   61.13
 -13 -12   0  212.67   74.31
 -13 -12  -1   24.76   57.92
 -13 -12  -2  -30.97  106.17
 -13 -12  -3  -49.82   67.68
 -13 -12  -4   48.95   70.16
 -13 -12  -5  704.83  209.65
 -13 -12  -6 3828.17  241.75
 -13 -12  -7 1063.84  152.21
 -13 -12  -8  205.34  183.72
 -13 -12  -9  315.18  112.79
 -13 -12 -10   44.01   84.68
 -13 -12 -11   -2.96  126.48
 -13 -13   1 1968.56  207.71
 -13 -13   0   70.57   62.94
 -13 -13  -1  537.98   91.15
 -13 -13  -2  -11.59   56.46
 -13 -13  -3    6.72   96.55
 -13 -13  -4  -80.72   74.72
 -13 -13  -5 1913.05  165.76
 -13 -13  -6 7200.79  508.16
 -13 -13  -7  171.77  106.46
 -13 -13  -8 1305.89  163.33
 -13 -13  -9  402.20  206.46
 -13 -14  -2  216.08   74.71
 -13 -14  -3  514.50  157.76
 -13 -14  -4  -49.93   66.82
 -13 -14  -5  229.43   90.49
  14   2  -1   83.66   86.88
 -14  -2   1   24.43   78.10
  14   2   0  112.00   74.34
 -14  -2   0   -1.54   40.91
  14   2   1   55.15   44.54
 -14  -2  -1   71.10   40.68
  14   2   2   16.76   36.55
 -14  -2  -2   29.41   58.20
  14   2   3  -10.43   53.82
 -14  -2  -3   13.42   45.54
  14   2   4  160.33   60.92
  14   3  -3  149.54   54.97
 -14  -3   3   12.61   49.80
  14   3  -2  492.36  139.25
 -14  -3   2 1020.18  127.87
  14   3  -1  135.80   52.63
 -14  -3   1   -1.48   80.45
  14   3   0   37.38   42.39
 -14  -3   0   26.73   38.71
  14   3   1  104.84   76.78
 -14  -3  -1   83.18   40.07
  14   3   2   23.38   64.88
 -14  -3  -2   90.26   55.14
  14   3   3   -2.11   28.31
 -14  -3  -3   23.68   43.49
  14   3   4    5.88   26.42
  14   4  -4  139.59   62.01
 -14  -4   4  279.31   54.76
  14   4  -3  294.95   61.10
 -14  -4   3  206.82   55.37
  14   4  -2   32.11   45.28
 -14  -4   2   -0.57   68.69
  14   4  -1 4013.45  246.07
 -14  -4   1 4357.53  231.90
  14   4   0  973.05   81.79
 -14  -4   0 1033.83   78.67
  14   4   1 1349.17   85.88
 -14  -4  -1 1520.31   81.59
  14   4   2   28.12   32.31
 -14  -4  -2   13.36   29.91
  14   4   3    7.37   25.96
 -14  -4  -4   97.33   88.10
 -14  -4  -5   27.57   75.83
 -14  -4  -6   -5.13  118.43
  14   5  -5 1048.64  171.47
 -14  -5   5 1252.77   92.17
  14   5  -4 1189.46  101.56
 -14  -5   4 1436.59   92.26
  14   5  -3  127.16   84.20
 -14  -5   3   31.95   42.08
  14   5  -2  109.01   48.40
 -14  -5   2  150.70   43.53
  14   5  -1  175.79   48.22
 -14  -5   1  196.56   74.17
  14   5   0  -32.53   61.35
 -14  -5   0  -66.23   55.87
  14   5   1  119.51   63.87
 -14  -5  -1  129.23   57.26
  14   5   2   27.87   46.33
 -14  -5  -3  107.24   90.60
 -14  -5  -4   32.37   77.53
 -14  -5  -5   15.15  127.52
 -14  -5  -6  233.58   98.85
 -14  -5  -7  -97.21   85.38
 -14  -5  -8    8.03   69.25
  14   6  -5 2683.22  155.48
 -14  -6   5 3021.03  142.62
  14   6  -4 4717.40  296.38
 -14  -6   4 5154.41  197.05
  14   6  -3 1406.99   95.02
 -14  -6   3 1408.62   88.32
  14   6  -2  991.92  128.40
 -14  -6   2 1279.38   74.11
  14   6  -1  481.30   53.86
 -14  -6   1  560.97   49.18
  14   6   0  -16.39   27.60
 -14  -6   0   37.11   25.18
  14   6   1   -3.66   23.06
 -14  -6  -2  294.30  105.93
 -14  -6  -3   25.30   77.35
 -14  -6  -4   57.44  144.65
 -14  -6  -5  -25.29   76.85
 -14  -6  -6  296.55  103.55
 -14  -6  -7   11.26   69.82
 -14  -6  -8   13.82   70.74
 -14  -6  -9    3.44  116.97
  14   7  -5 3468.79  172.63
 -14  -7   5 4017.20  238.10
  14   7  -4 2218.74  190.40
 -14  -7   4 2468.58  173.68
  14   7  -3  421.84   59.75
 -14  -7   3  469.29   90.38
  14   7  -2  136.11   40.96
 -14  -7   2   98.92   62.83
  14   7  -1  215.24   68.36
 -14  -7   1  266.47   62.22
  14   7   0   42.83   46.02
 -14  -7  -1   -1.69   65.36
 -14  -7  -2   15.04   72.25
 -14  -7  -3  165.10  164.15
 -14  -7  -4    3.36   68.96
 -14  -7  -5  371.94  111.10
 -14  -7  -6 1358.40  150.71
 -14  -7  -7   68.89   82.94
 -14  -7  -8   35.22  136.99
 -14  -7  -9   36.09   77.84
 -14  -7 -10  -25.19  133.14
  14   8  -5   12.11   75.64
 -14  -8   5  -68.38   67.98
  14   8  -4  463.14   60.02
 -14  -8   4  423.96   92.83
  14   8  -3  -17.70   50.93
 -14  -8   3   10.85   46.51
  14   8  -2   46.63   27.51
 -14  -8   2  -25.69   24.50
  14   8  -1    0.53   22.45
 -14  -8   1    0.77   61.71
 -14  -8   0  -13.59   70.81
 -14  -8  -1   11.16  122.19
 -14  -8  -2  195.33   94.40
 -14  -8  -3   76.42   84.59
 -14  -8  -4   76.30  150.92
 -14  -8  -5  474.33  117.57
 -14  -8  -6 1443.03  157.22
 -14  -8  -7  202.86   99.16
 -14  -8  -8  392.50  112.96
 -14  -8  -9   63.12  147.46
 -14  -8 -10   -2.89   69.66
 -14  -8 -11    0.36   67.50
  14   9  -4   26.81   29.46
 -14  -9   4  -26.29   27.79
  14   9  -3   87.44   62.05
 -14  -9   3   97.45   34.18
 -14  -9   3  167.82   77.27
  14   9  -2   14.70   26.80
 -14  -9   2   70.57   67.19
 -14  -9   1  -37.16  123.82
 -14  -9   0  -77.74   78.87
 -14  -9  -1   52.41   76.45
 -14  -9  -2  194.55   91.38
 -14  -9  -3  129.60   87.31
 -14  -9  -4  289.69  103.69
 -14  -9  -5 1104.42  241.50
 -14  -9  -6  177.70   97.16
 -14  -9  -7   99.81   90.78
 -14  -9  -8  118.73  162.51
 -14  -9  -9   48.54   85.26
 -14  -9 -10   19.95   78.72
 -14  -9 -11   26.27   81.69
  14  10  -3   -4.42   24.63
 -14 -10   3   46.04   92.46
 -14 -10   2  -14.72   60.19
 -14 -10   1    8.29   59.36
 -14 -10   0   30.76   65.93
 -14 -10  -1  -43.38  123.81
 -14 -10  -2  -57.58   74.95
 -14 -10  -3  171.78   88.04
 -14 -10  -4   25.23  127.96
 -14 -10  -5   22.59   74.27
 -14 -10  -6  160.38   94.04
 -14 -10  -7   82.69   89.13
 -14 -10  -8   79.43   88.61
 -14 -10  -9   -6.06  129.83
 -14 -10 -10  -22.68   80.64
 -14 -11   2   37.26  107.74
 -14 -11   1   46.42   63.95
 -14 -11   0   63.19   67.63
 -14 -11  -1   53.09   69.51
 -14 -11  -2  -38.06  121.09
 -14 -11  -3   16.19   69.13
 -14 -11  -4  -12.86   68.72
 -14 -11  -5   54.47  142.36
 -14 -11  -6   99.73   88.63
 -14 -11  -7    4.01   70.15
 -14 -11  -8   15.02   76.83
 -14 -11  -9  145.49   97.94
 -14 -12  -1  108.87   75.91
 -14 -12  -2  219.23   86.40
 -14 -12  -3  181.38  151.17
 -14 -12  -4   37.50   74.35
 -14 -12  -5  -12.69   71.16
 -14 -12  -6  261.73  178.49
   0   0   0    0.00    0.00
;
_shelx_hkl_checksum              88929
loop_
_space_group_symop_operation_xyz
'x, y, z'
'-x, -y, -z'
loop_
_atom_site_label
_atom_site_type_symbol
_atom_site_fract_x
_atom_site_fract_y
_atom_site_fract_z
_atom_site_U_iso_or_equiv
_atom_site_adp_type
_atom_site_occupancy
_atom_site_site_symmetry_order
_atom_site_calc_flag
_atom_site_refinement_flags_posn
_atom_site_refinement_flags_adp
_atom_site_refinement_flags_occupancy
_atom_site_disorder_assembly
_atom_site_disorder_group
C1 C 0.33666(19) 0.23834(16) 0.21089(10) 0.0353(4) Uani 1 1 d . . . . .
C2 C 0.3631(2) 0.14387(17) 0.25413(11) 0.0400(5) Uani 1 1 d . . . . .
H2 H 0.3180 0.1500 0.2995 0.048 Uiso 1 1 calc R U . . .
C3 C 0.4550(2) 0.03798(17) 0.23335(12) 0.0425(5) Uani 1 1 d . . . . .
C4 C 0.5199(2) 0.03140(17) 0.16757(12) 0.0425(5) Uani 1 1 d . . . . .
H4 H 0.5815 -0.0394 0.1527 0.051 Uiso 1 1 calc R U . . .
C5 C 0.4986(2) 0.12574(16) 0.12123(11) 0.0381(5) Uani 1 1 d . . . . .
C6 C 0.5681(2) 0.12046(17) 0.05177(11) 0.0406(5) Uani 1 1 d . . . . .
C7 C 0.6680(2) 0.01963(18) 0.02820(12) 0.0453(5) Uani 1 1 d . . . . .
H7 H 0.6878 -0.0462 0.0578 0.054 Uiso 1 1 calc R U . . .
C8 C 0.7379(2) 0.01371(19) -0.03650(12) 0.0483(5) Uani 1 1 d D . . . .
C9 C 0.7095(3) 0.11125(19) -0.07879(12) 0.0495(6) Uani 1 1 d . . . . .
H9 H 0.7586 0.1083 -0.1227 0.059 Uiso 1 1 calc R U . . .
C10 C 0.6120(2) 0.21247(19) -0.05893(11) 0.0443(5) Uani 1 1 d . . . . .
C11 C 0.5862(3) 0.31546(19) -0.10466(12) 0.0476(5) Uani 1 1 d . . . . .
C12 C 0.6584(3) 0.3161(2) -0.16791(13) 0.0590(7) Uani 1 1 d . . . . .
H12 H 0.7260 0.2483 -0.1833 0.071 Uiso 1 1 calc R U . . .
C13 C 0.6340(3) 0.4153(2) -0.21009(14) 0.0634(7) Uani 1 1 d . . . . .
H13 H 0.6866 0.4138 -0.2526 0.076 Uiso 1 1 calc R U . . .
C14 C 0.5365(3) 0.5120(2) -0.19027(13) 0.0566(7) Uani 1 1 d . . . . .
H14 H 0.5196 0.5779 -0.2195 0.068 Uiso 1 1 calc R U . . .
C15 C 0.4591(3) 0.5163(2) -0.12645(12) 0.0488(6) Uani 1 1 d . . . . .
C16 C 0.3583(3) 0.6183(2) -0.10392(14) 0.0532(6) Uani 1 1 d . . . . .
H16 H 0.3402 0.6845 -0.1330 0.064 Uiso 1 1 calc R U . . .
C17 C 0.2882(3) 0.6220(2) -0.04179(15) 0.0545(6) Uani 1 1 d . . . . .
H17 H 0.2219 0.6911 -0.0272 0.065 Uiso 1 1 calc R U . . .
C18 C 0.3119(2) 0.52471(19) 0.00183(13) 0.0464(5) Uani 1 1 d . . . . .
H18 H 0.2602 0.5287 0.0450 0.056 Uiso 1 1 calc R U . . .
C19 C 0.4094(2) 0.42353(18) -0.01727(11) 0.0407(5) Uani 1 1 d . . . . .
C20 C 0.4393(2) 0.32232(16) 0.03008(11) 0.0376(5) Uani 1 1 d . . . . .
C21 C 0.3785(2) 0.32662(16) 0.09590(11) 0.0370(4) Uani 1 1 d . . . . .
H21 H 0.3162 0.3967 0.1114 0.044 Uiso 1 1 calc R U . . .
C22 C 0.40391(19) 0.23098(16) 0.14277(10) 0.0357(4) Uani 1 1 d . . . . .
C23 C 0.5396(2) 0.21807(17) 0.00692(11) 0.0394(5) Uani 1 1 d . . . . .
C24 C 0.4832(2) 0.41761(18) -0.08264(11) 0.0429(5) Uani 1 1 d . . . . .
C25 C 0.4735(3) -0.06355(19) 0.28339(14) 0.0565(6) Uani 1 1 d . U . . .
C26A C 0.5645(5) -0.1713(3) 0.2536(3) 0.0901(17) Uani 0.764(4) 1 d . U P A 1
H71 H 0.6513 -0.1739 0.2465 0.135 Uiso 0.764(4) 1 calc R U P A 1
H72 H 0.5382 -0.1782 0.2085 0.135 Uiso 0.764(4) 1 calc R U P A 1
H73 H 0.5640 -0.2330 0.2861 0.135 Uiso 0.764(4) 1 calc R U P A 1
C27A C 0.3389(4) -0.0701(3) 0.30025(19) 0.0580(9) Uani 0.764(4) 1 d . U P A 1
H74 H 0.3080 -0.0766 0.2565 0.087 Uiso 0.764(4) 1 calc R U P A 1
H75 H 0.2770 -0.0024 0.3230 0.087 Uiso 0.764(4) 1 calc R U P A 1
H76 H 0.3484 -0.1355 0.3317 0.087 Uiso 0.764(4) 1 calc R U P A 1
C28A C 0.5105(4) -0.0447(3) 0.3528(2) 0.0716(11) Uani 0.764(4) 1 d . U P A 1
H77 H 0.5103 -0.1041 0.3874 0.107 Uiso 0.764(4) 1 calc R U P A 1
H78 H 0.4484 0.0276 0.3699 0.107 Uiso 0.764(4) 1 calc R U P A 1
H79 H 0.5966 -0.0457 0.3457 0.107 Uiso 0.764(4) 1 calc R U P A 1
C26B C 0.4659(15) -0.1546(9) 0.2442(7) 0.066(2) Uani 0.236(4) 1 d . U P A 2
H110 H 0.4876 -0.2227 0.2745 0.099 Uiso 0.236(4) 1 calc R U P A 2
H111 H 0.5266 -0.1698 0.2019 0.099 Uiso 0.236(4) 1 calc R U P A 2
H112 H 0.3785 -0.1299 0.2309 0.099 Uiso 0.236(4) 1 calc R U P A 2
C27B C 0.6372(12) -0.1199(9) 0.2951(6) 0.063(3) Uani 0.236(4) 1 d . U P A 2
H113 H 0.6552 -0.0672 0.3194 0.094 Uiso 0.236(4) 1 calc R U P A 2
H114 H 0.6877 -0.1337 0.2493 0.094 Uiso 0.236(4) 1 calc R U P A 2
H115 H 0.6603 -0.1903 0.3233 0.094 Uiso 0.236(4) 1 calc R U P A 2
C28B C 0.4115(14) -0.0496(10) 0.3516(7) 0.071(3) Uani 0.236(4) 1 d . U P A 2
H116 H 0.3194 -0.0034 0.3496 0.106 Uiso 0.236(4) 1 calc R U P A 2
H117 H 0.4475 -0.0130 0.3788 0.106 Uiso 0.236(4) 1 calc R U P A 2
H118 H 0.4241 -0.1227 0.3741 0.106 Uiso 0.236(4) 1 calc R U P A 2
C29 C 0.8468(3) -0.0954(2) -0.06176(13) 0.0556(6) Uani 1 1 d D U . . .
C30B C 0.9740(4) -0.0896(3) -0.0587(3) 0.0984(15) Uani 0.911(4) 1 d D U P B 5
H80B H 0.9945 -0.1007 -0.0099 0.148 Uiso 0.911(4) 1 calc R U P B 5
H81B H 0.9684 -0.0164 -0.0776 0.148 Uiso 0.911(4) 1 calc R U P B 5
H82B H 1.0416 -0.1480 -0.0868 0.148 Uiso 0.911(4) 1 calc R U P B 5
C31B C 0.8383(3) -0.1077(2) -0.13953(14) 0.0592(8) Uani 0.911(4) 1 d D U P B 5
H83B H 0.9072 -0.1782 -0.1552 0.089 Uiso 0.911(4) 1 calc R U P B 5
H84B H 0.8474 -0.0454 -0.1679 0.089 Uiso 0.911(4) 1 calc R U P B 5
H85B H 0.7548 -0.1073 -0.1449 0.089 Uiso 0.911(4) 1 calc R U P B 5
C32B C 0.8334(5) -0.1957(2) -0.02365(17) 0.0940(15) Uani 0.911(4) 1 d D U P B 5
H86B H 0.7468 -0.1903 -0.0268 0.141 Uiso 0.911(4) 1 calc R U P B 5
H87B H 0.8474 -0.1980 0.0257 0.141 Uiso 0.911(4) 1 calc R U P B 5
H88B H 0.8971 -0.2638 -0.0452 0.141 Uiso 0.911(4) 1 calc R U P B 5
C30A C 0.781(2) -0.1624(18) -0.0888(7) 0.074(4) Uani 0.089(4) 1 d D U P B 6
H80A H 0.7022 -0.1108 -0.1088 0.111 Uiso 0.089(4) 1 calc R U P B 6
H81A H 0.7608 -0.2074 -0.0498 0.111 Uiso 0.089(4) 1 calc R U P B 6
H82A H 0.8398 -0.2116 -0.1250 0.111 Uiso 0.089(4) 1 calc R U P B 6
C31A C 0.9295(17) -0.1574(17) -0.0053(10) 0.083(6) Uani 0.089(4) 1 d D U P B 6
H83A H 0.9460 -0.1051 0.0203 0.124 Uiso 0.089(4) 1 calc R U P B 6
H84A H 1.0113 -0.2129 -0.0259 0.124 Uiso 0.089(4) 1 calc R U P B 6
H85A H 0.8861 -0.1951 0.0272 0.124 Uiso 0.089(4) 1 calc R U P B 6
C32A C 0.9450(14) -0.103(2) -0.1219(7) 0.060(5) Uani 0.089(4) 1 d D U P B 6
H86A H 1.0123 -0.1793 -0.1231 0.090 Uiso 0.089(4) 1 calc R U P B 6
H87A H 0.9832 -0.0512 -0.1162 0.090 Uiso 0.089(4) 1 calc R U P B 6
H88A H 0.9041 -0.0834 -0.1658 0.090 Uiso 0.089(4) 1 calc R U P B 6
C33 C 0.22970(19) 0.34526(15) 0.23447(10) 0.0348(4) Uani 1 1 d . . . . .
C34 C 0.12396(19) 0.39434(16) 0.19707(11) 0.0369(4) Uani 1 1 d . . . . .
H34 H 0.1232 0.3612 0.1557 0.044 Uiso 1 1 calc R U . . .
C35 C 0.01659(19) 0.49221(16) 0.21809(10) 0.0363(4) Uani 1 1 d D . . . .
C36 C 0.01909(19) 0.53683(16) 0.27948(10) 0.0349(4) Uani 1 1 d . . . . .
H36 H -0.0537 0.6011 0.2953 0.042 Uiso 1 1 calc R U . . .
C37 C 0.12489(18) 0.49108(15) 0.31954(10) 0.0321(4) Uani 1 1 d . . . . .
C38 C 0.12758(18) 0.53804(15) 0.38431(10) 0.0319(4) Uani 1 1 d . . . . .
C39 C 0.02491(19) 0.63668(16) 0.40846(10) 0.0341(4) Uani 1 1 d . . . . .
H39 H -0.0465 0.6728 0.3816 0.041 Uiso 1 1 calc R U . . .
C40 C 0.02505(19) 0.68237(16) 0.46989(10) 0.0350(4) Uani 1 1 d . . . . .
C41 C 0.13071(19) 0.62633(16) 0.50910(10) 0.0354(4) Uani 1 1 d . . . . .
H41 H 0.1314 0.6564 0.5518 0.042 Uiso 1 1 calc R U . . .
C42 C 0.23417(19) 0.52909(15) 0.48833(10) 0.0331(4) Uani 1 1 d . . . . .
C43 C 0.3438(2) 0.47256(16) 0.53100(10) 0.0361(4) Uani 1 1 d . . . . .
C44 C 0.3456(2) 0.50937(18) 0.59564(11) 0.0419(5) Uani 1 1 d . . . . .
H44 H 0.2722 0.5709 0.6141 0.050 Uiso 1 1 calc R U . . .
C45 C 0.4521(2) 0.45882(19) 0.63458(12) 0.0462(5) Uani 1 1 d . . . . .
H45 H 0.4504 0.4866 0.6785 0.055 Uiso 1 1 calc R U . . .
C46 C 0.5580(2) 0.36992(18) 0.60955(11) 0.0433(5) Uani 1 1 d . . . . .
H46 H 0.6306 0.3372 0.6358 0.052 Uiso 1 1 calc R U . . .
C47 C 0.5616(2) 0.32553(17) 0.54508(11) 0.0395(5) Uani 1 1 d . . . . .
C48 C 0.6687(2) 0.23279(19) 0.51898(12) 0.0452(5) Uani 1 1 d . . . . .
H48 H 0.7416 0.1987 0.5449 0.054 Uiso 1 1 calc R U . . .
C49 C 0.6697(2) 0.1910(2) 0.45697(13) 0.0507(6) Uani 1 1 d . . . . .
H49 H 0.7428 0.1277 0.4402 0.061 Uiso 1 1 calc R U . . .
C50 C 0.5638(2) 0.24042(18) 0.41792(12) 0.0444(5) Uani 1 1 d . . . . .
H50 H 0.5660 0.2093 0.3751 0.053 Uiso 1 1 calc R U . . .
C51 C 0.45535(19) 0.33381(16) 0.43987(11) 0.0360(4) Uani 1 1 d . . . . .
C52 C 0.34440(18) 0.38712(15) 0.39841(10) 0.0320(4) Uani 1 1 d . . . . .
C53 C 0.34167(19) 0.34695(16) 0.33607(10) 0.0342(4) Uani 1 1 d . . . . .
H53 H 0.4155 0.2850 0.3184 0.041 Uiso 1 1 calc R U . . .
C54 C 0.23314(18) 0.39385(15) 0.29654(10) 0.0322(4) Uani 1 1 d . . . . .
C55 C 0.23444(18) 0.48468(15) 0.42390(10) 0.0316(4) Uani 1 1 d . . . . .
C56 C 0.45238(19) 0.37761(16) 0.50520(10) 0.0352(4) Uani 1 1 d . . . . .
C57 C -0.1000(2) 0.54734(18) 0.17532(12) 0.0448(5) Uani 1 1 d D U . . .
C58A C -0.0802(3) 0.4931(3) 0.10679(17) 0.0693(11) Uani 0.921(4) 1 d D U P C 3
H89A H -0.0671 0.4151 0.1162 0.104 Uiso 0.921(4) 1 calc R U P C 3
H90A H -0.0045 0.4960 0.0786 0.104 Uiso 0.921(4) 1 calc R U P C 3
H91A H -0.1561 0.5329 0.0810 0.104 Uiso 0.921(4) 1 calc R U P C 3
C59A C -0.1237(3) 0.6700(2) 0.15809(14) 0.0503(7) Uani 0.921(4) 1 d D U P C 3
H92A H -0.0484 0.6735 0.1298 0.075 Uiso 0.921(4) 1 calc R U P C 3
H93A H -0.1387 0.7079 0.2018 0.075 Uiso 0.921(4) 1 calc R U P C 3
H94A H -0.1992 0.7070 0.1317 0.075 Uiso 0.921(4) 1 calc R U P C 3
C60A C -0.2186(2) 0.5438(2) 0.21917(15) 0.0532(7) Uani 0.921(4) 1 d D U P C 3
H95A H -0.2932 0.5795 0.1920 0.080 Uiso 0.921(4) 1 calc R U P C 3
H96A H -0.2348 0.5837 0.2621 0.080 Uiso 0.921(4) 1 calc R U P C 3
H97A H -0.2039 0.4661 0.2315 0.080 Uiso 0.921(4) 1 calc R U P C 3
C58B C -0.201(2) 0.652(2) 0.2041(16) 0.053(5) Uani 0.079(4) 1 d D U P C 4
H89B H -0.2603 0.6920 0.1686 0.079 Uiso 0.079(4) 1 calc R U P C 4
H90B H -0.1611 0.6983 0.2171 0.079 Uiso 0.079(4) 1 calc R U P C 4
H91B H -0.2484 0.6332 0.2457 0.079 Uiso 0.079(4) 1 calc R U P C 4
C59B C -0.147(3) 0.4531(19) 0.1751(17) 0.053(4) Uani 0.079(4) 1 d D U P C 4
H92B H -0.0878 0.3955 0.1437 0.080 Uiso 0.079(4) 1 calc R U P C 4
H93B H -0.2333 0.4848 0.1587 0.080 Uiso 0.079(4) 1 calc R U P C 4
H94B H -0.1508 0.4200 0.2227 0.080 Uiso 0.079(4) 1 calc R U P C 4
C60B C -0.041(3) 0.547(3) 0.0974(8) 0.051(5) Uani 0.079(4) 1 d D U P C 4
H95B H -0.1097 0.5702 0.0661 0.076 Uiso 0.079(4) 1 calc R U P C 4
H96B H 0.0229 0.4719 0.0868 0.076 Uiso 0.079(4) 1 calc R U P C 4
H97B H -0.0004 0.5993 0.0904 0.076 Uiso 0.079(4) 1 calc R U P C 4
C61 C -0.08546(19) 0.78976(16) 0.49674(10) 0.0363(4) Uani 1 1 d . . . . .
C62 C -0.1971(2) 0.8347(2) 0.45076(14) 0.0590(7) Uani 1 1 d . . . . .
H98 H -0.1666 0.8515 0.4030 0.088 Uiso 1 1 calc R U . . .
H99 H -0.2651 0.9028 0.4701 0.088 Uiso 1 1 calc R U . . .
H100 H -0.2310 0.7785 0.4497 0.088 Uiso 1 1 calc R U . . .
C63 C -0.0365(2) 0.88024(18) 0.49843(14) 0.0505(6) Uani 1 1 d . . . . .
H101 H -0.0037 0.8958 0.4510 0.076 Uiso 1 1 calc R U . . .
H102 H 0.0327 0.8544 0.5294 0.076 Uiso 1 1 calc R U . . .
H103 H -0.1070 0.9484 0.5160 0.076 Uiso 1 1 calc R U . . .
C64 C -0.1360(3) 0.7666(2) 0.57105(13) 0.0554(6) Uani 1 1 d . . . . .
H104 H -0.2099 0.8338 0.5873 0.083 Uiso 1 1 calc R U . . .
H105 H -0.0681 0.7457 0.6024 0.083 Uiso 1 1 calc R U . . .
H106 H -0.1625 0.7054 0.5711 0.083 Uiso 1 1 calc R U . . .
C65 C -0.1177(4) 0.0965(3) 0.26996(18) 0.0822(10) Uani 1 1 d . . . . .
C66 C -0.0149(4) 0.0214(3) 0.29996(18) 0.0859(10) Uani 1 1 d . . . . .
H66 H 0.0264 0.0465 0.3294 0.103 Uiso 1 1 calc R U . . .
C67 C 0.0343(4) -0.0944(4) 0.28929(19) 0.0889(10) Uani 1 1 d . . . . .
H67 H 0.1072 -0.1458 0.3114 0.107 Uiso 1 1 calc R U . . .
C68 C -0.0232(4) -0.1305(3) 0.2476(2) 0.0933(11) Uani 1 1 d . . . . .
H68 H 0.0096 -0.2074 0.2386 0.112 Uiso 1 1 calc R U . . .
C69 C -0.1327(6) -0.0526(4) 0.2177(3) 0.1245(17) Uani 1 1 d . . . . .
H69 H -0.1751 -0.0765 0.1882 0.149 Uiso 1 1 calc R U . . .
C70 C -0.1785(5) 0.0575(4) 0.2307(3) 0.1125(14) Uani 1 1 d . . . . .
H70 H -0.2554 0.1087 0.2119 0.135 Uiso 1 1 calc R U . . .
C71 C -0.1653(5) 0.2188(4) 0.2792(2) 0.1194(16) Uani 1 1 d . . . . .
H107 H -0.1268 0.2303 0.3185 0.179 Uiso 1 1 calc R U . . .
H108 H -0.2590 0.2516 0.2890 0.179 Uiso 1 1 calc R U . . .
H109 H -0.1412 0.2545 0.2362 0.179 Uiso 1 1 calc R U . . .
loop_
_atom_site_aniso_label
_atom_site_aniso_U_11
_atom_site_aniso_U_22
_atom_site_aniso_U_33
_atom_site_aniso_U_23
_atom_site_aniso_U_13
_atom_site_aniso_U_12
C1 0.0323(10) 0.0273(9) 0.0402(10) -0.0106(8) -0.0033(8) -0.0046(8)
C2 0.0414(11) 0.0323(10) 0.0379(10) -0.0076(8) 0.0009(9) -0.0072(9)
C3 0.0426(11) 0.0274(10) 0.0454(11) -0.0035(8) 0.0009(9) -0.0040(9)
C4 0.0411(11) 0.0257(10) 0.0480(12) -0.0086(9) 0.0051(9) -0.0030(8)
C5 0.0374(10) 0.0274(10) 0.0435(11) -0.0108(8) 0.0022(9) -0.0077(8)
C6 0.0442(11) 0.0309(10) 0.0428(11) -0.0124(9) 0.0019(9) -0.0113(9)
C7 0.0488(12) 0.0296(10) 0.0490(12) -0.0120(9) 0.0062(10) -0.0090(9)
C8 0.0514(13) 0.0389(12) 0.0472(12) -0.0187(10) 0.0099(10) -0.0124(10)
C9 0.0613(15) 0.0446(13) 0.0394(11) -0.0164(10) 0.0099(10) -0.0201(11)
C10 0.0540(13) 0.0412(12) 0.0404(11) -0.0120(9) 0.0001(10) -0.0217(10)
C11 0.0652(15) 0.0453(13) 0.0392(11) -0.0076(10) -0.0056(10) -0.0283(12)
C12 0.0844(19) 0.0534(15) 0.0452(13) -0.0086(11) 0.0021(13) -0.0353(14)
C13 0.094(2) 0.0661(17) 0.0429(13) -0.0032(12) -0.0010(13) -0.0475(17)
C14 0.0840(19) 0.0533(15) 0.0456(13) 0.0059(11) -0.0179(13) -0.0397(15)
C15 0.0657(15) 0.0506(13) 0.0442(12) 0.0042(10) -0.0217(11) -0.0346(12)
C16 0.0652(16) 0.0422(13) 0.0576(14) 0.0122(11) -0.0277(13) -0.0247(12)
C17 0.0527(14) 0.0392(12) 0.0698(16) 0.0078(11) -0.0241(13) -0.0147(11)
C18 0.0419(12) 0.0401(12) 0.0544(13) 0.0028(10) -0.0152(10) -0.0124(10)
C19 0.0449(11) 0.0379(11) 0.0422(11) -0.0014(9) -0.0150(9) -0.0171(9)
C20 0.0406(11) 0.0323(10) 0.0418(11) -0.0076(8) -0.0080(9) -0.0146(9)
C21 0.0360(10) 0.0281(9) 0.0430(11) -0.0086(8) -0.0057(8) -0.0077(8)
C22 0.0356(10) 0.0270(9) 0.0395(10) -0.0095(8) -0.0016(8) -0.0071(8)
C23 0.0455(11) 0.0331(10) 0.0400(11) -0.0090(8) -0.0031(9) -0.0155(9)
C24 0.0530(13) 0.0416(12) 0.0405(11) -0.0026(9) -0.0137(10) -0.0233(10)
C25 0.0626(14) 0.0316(11) 0.0546(13) 0.0040(10) 0.0061(11) -0.0043(10)
C26A 0.092(3) 0.0311(17) 0.093(3) 0.0102(18) 0.039(3) 0.011(2)
C27A 0.065(2) 0.0383(16) 0.060(2) 0.0029(14) 0.0035(16) -0.0157(15)
C28A 0.065(2) 0.059(2) 0.070(2) 0.0217(17) -0.0188(19) -0.0076(19)
C26B 0.074(5) 0.031(4) 0.076(5) 0.004(4) 0.004(5) -0.012(4)
C27B 0.065(4) 0.040(5) 0.057(5) 0.007(4) -0.009(5) 0.003(4)
C28B 0.074(6) 0.044(5) 0.062(4) 0.013(4) 0.010(4) -0.001(5)
C29 0.0587(14) 0.0386(12) 0.0586(14) -0.0224(10) 0.0062(11) -0.0089(11)
C30B 0.064(2) 0.071(2) 0.141(4) -0.047(2) -0.035(2) 0.0058(17)
C31B 0.0696(19) 0.0502(15) 0.0500(15) -0.0184(12) 0.0097(13) -0.0183(14)
C32B 0.142(4) 0.0300(14) 0.0538(17) -0.0069(13) 0.040(2) 0.0058(17)
C30A 0.075(9) 0.053(8) 0.087(9) -0.022(8) -0.001(8) -0.019(7)
C31A 0.073(9) 0.051(9) 0.066(8) 0.004(8) 0.025(7) 0.021(9)
C32A 0.060(8) 0.044(8) 0.056(8) -0.039(7) 0.008(6) 0.000(7)
C33 0.0336(10) 0.0257(9) 0.0377(10) -0.0091(8) 0.0003(8) -0.0048(8)
C34 0.0359(10) 0.0297(10) 0.0392(10) -0.0140(8) -0.0029(8) -0.0057(8)
C35 0.0348(10) 0.0312(10) 0.0384(10) -0.0115(8) -0.0051(8) -0.0069(8)
C36 0.0310(9) 0.0263(9) 0.0390(10) -0.0100(8) -0.0031(8) -0.0023(8)
C37 0.0324(9) 0.0268(9) 0.0319(9) -0.0079(7) -0.0020(7) -0.0062(8)
C38 0.0319(9) 0.0275(9) 0.0323(9) -0.0076(7) -0.0019(8) -0.0076(8)
C39 0.0322(9) 0.0298(9) 0.0344(9) -0.0079(8) -0.0033(8) -0.0058(8)
C40 0.0342(10) 0.0300(10) 0.0369(10) -0.0105(8) 0.0011(8) -0.0088(8)
C41 0.0386(10) 0.0322(10) 0.0336(9) -0.0089(8) -0.0024(8) -0.0119(8)
C42 0.0356(10) 0.0287(9) 0.0341(10) -0.0031(8) -0.0053(8) -0.0118(8)
C43 0.0387(10) 0.0329(10) 0.0359(10) -0.0010(8) -0.0062(8) -0.0137(9)
C44 0.0460(12) 0.0369(11) 0.0380(10) -0.0030(9) -0.0082(9) -0.0111(9)
C45 0.0539(13) 0.0448(12) 0.0398(11) 0.0000(9) -0.0105(10) -0.0192(11)
C46 0.0447(12) 0.0436(12) 0.0422(11) 0.0071(9) -0.0138(9) -0.0182(10)
C47 0.0392(11) 0.0364(11) 0.0403(11) 0.0054(9) -0.0063(9) -0.0142(9)
C48 0.0359(11) 0.0442(12) 0.0490(12) 0.0047(10) -0.0097(9) -0.0102(10)
C49 0.0376(11) 0.0437(12) 0.0574(14) -0.0046(11) -0.0096(10) -0.0021(10)
C50 0.0362(11) 0.0388(11) 0.0479(12) -0.0067(9) -0.0074(9) -0.0037(9)
C51 0.0356(10) 0.0313(10) 0.0384(10) -0.0012(8) -0.0056(8) -0.0110(8)
C52 0.0311(9) 0.0260(9) 0.0349(9) -0.0036(7) -0.0018(8) -0.0081(8)
C53 0.0325(9) 0.0266(9) 0.0368(10) -0.0053(8) -0.0015(8) -0.0055(8)
C54 0.0304(9) 0.0278(9) 0.0316(9) -0.0075(7) 0.0002(7) -0.0052(8)
C55 0.0327(9) 0.0267(9) 0.0323(9) -0.0040(7) -0.0018(8) -0.0093(8)
C56 0.0369(10) 0.0311(10) 0.0367(10) 0.0024(8) -0.0055(8) -0.0134(8)
C57 0.0369(10) 0.0401(11) 0.0479(12) -0.0148(9) -0.0111(9) -0.0024(9)
C58A 0.0526(16) 0.069(2) 0.0649(18) -0.0358(16) -0.0254(14) 0.0081(15)
C59A 0.0491(14) 0.0428(13) 0.0467(14) 0.0000(11) -0.0111(11) -0.0060(11)
C60A 0.0381(13) 0.0466(14) 0.0710(17) -0.0069(12) -0.0131(12) -0.0108(11)
C58B 0.034(8) 0.048(8) 0.055(9) -0.011(7) -0.021(7) 0.010(7)
C59B 0.041(8) 0.046(8) 0.062(9) -0.007(8) -0.012(8) -0.005(6)
C60B 0.041(9) 0.040(9) 0.052(6) -0.010(8) -0.014(7) 0.005(8)
C61 0.0333(10) 0.0291(9) 0.0392(10) -0.0124(8) 0.0009(8) -0.0048(8)
C62 0.0438(13) 0.0489(14) 0.0668(16) -0.0289(12) -0.0107(11) 0.0045(11)
C63 0.0481(13) 0.0320(11) 0.0636(15) -0.0098(10) 0.0006(11) -0.0091(10)
C64 0.0531(14) 0.0458(13) 0.0522(13) -0.0120(11) 0.0141(11) -0.0095(11)
C65 0.093(3) 0.082(2) 0.0652(19) -0.0023(17) 0.0195(18) -0.038(2)
C66 0.092(3) 0.096(3) 0.068(2) -0.0137(19) 0.0113(18) -0.039(2)
C67 0.091(3) 0.104(3) 0.070(2) -0.007(2) 0.0092(18) -0.043(2)
C68 0.115(3) 0.087(3) 0.095(3) -0.006(2) 0.004(2) -0.062(3)
C69 0.150(5) 0.088(3) 0.154(4) 0.008(3) -0.055(4) -0.059(3)
C70 0.134(4) 0.093(3) 0.128(4) 0.007(3) -0.034(3) -0.061(3)
C71 0.163(5) 0.083(3) 0.098(3) -0.025(2) 0.041(3) -0.047(3)
loop_
_atom_type_symbol
_atom_type_description
_atom_type_scat_dispersion_real
_atom_type_scat_dispersion_imag
_atom_type_scat_source
C C 0.0033 0.0016 'International Tables Vol C Tables 4.2.6.8 and 6.1.1.4'
H H 0.0000 0.0000 'International Tables Vol C Tables 4.2.6.8 and 6.1.1.4'
loop_
_geom_angle_atom_site_label_1
_geom_angle_atom_site_label_2
_geom_angle_atom_site_label_3
_geom_angle
C2 C1 C22 119.73(17)
C2 C1 C33 118.74(18)
C22 C1 C33 121.34(17)
C1 C2 C3 122.2(2)
C1 C2 H2 118.9
C3 C2 H2 118.9
C4 C3 C2 117.80(19)
C4 C3 C25 123.44(19)
C2 C3 C25 118.7(2)
C3 C4 C5 122.61(19)
C3 C4 H4 118.7
C5 C4 H4 118.7
C4 C5 C22 118.56(19)
C4 C5 C6 123.28(18)
C22 C5 C6 118.15(18)
C7 C6 C23 118.2(2)
C7 C6 C5 121.2(2)
C23 C6 C5 120.49(18)
C8 C7 C6 122.1(2)
C8 C7 H7 118.9
C6 C7 H7 118.9
C7 C8 C9 118.4(2)
C7 C8 C29 122.1(2)
C9 C8 C29 119.5(2)
C10 C9 C8 122.3(2)
C10 C9 H9 118.9
C8 C9 H9 118.9
C9 C10 C23 119.3(2)
C9 C10 C11 120.9(2)
C23 C10 C11 119.8(2)
C12 C11 C24 118.7(2)
C12 C11 C10 122.4(2)
C24 C11 C10 118.9(2)
C11 C12 C13 121.6(3)
C11 C12 H12 119.2
C13 C12 H12 119.2
C14 C13 C12 120.3(3)
C14 C13 H13 119.8
C12 C13 H13 119.8
C13 C14 C15 120.6(2)
C13 C14 H14 119.7
C15 C14 H14 119.7
C14 C15 C16 121.2(2)
C14 C15 C24 120.0(2)
C16 C15 C24 118.8(2)
C17 C16 C15 120.6(2)
C17 C16 H16 119.7
C15 C16 H16 119.7
C16 C17 C18 120.8(2)
C16 C17 H17 119.6
C18 C17 H17 119.6
C19 C18 C17 120.9(2)
C19 C18 H18 119.5
C17 C18 H18 119.5
C18 C19 C24 119.1(2)
C18 C19 C20 121.1(2)
C24 C19 C20 119.7(2)
C21 C20 C23 119.39(19)
C21 C20 C19 121.55(19)
C23 C20 C19 118.99(19)
C20 C21 C22 123.17(18)
C20 C21 H21 118.4
C22 C21 H21 118.4
C5 C22 C1 119.05(18)
C5 C22 C21 119.35(18)
C1 C22 C21 121.60(17)
C10 C23 C6 119.73(19)
C10 C23 C20 120.91(19)
C6 C23 C20 119.34(19)
C19 C24 C15 119.7(2)
C19 C24 C11 121.5(2)
C15 C24 C11 118.8(2)
C28B C25 C26B 115.1(8)
C26A C25 C28A 112.7(3)
C28B C25 C3 120.2(5)
C26A C25 C3 113.9(2)
C26B C25 C3 109.3(5)
C28A C25 C3 108.9(2)
C26A C25 C27A 106.6(3)
C28A C25 C27A 106.5(3)
C3 C25 C27A 107.8(2)
C28B C25 C27B 104.5(8)
C26B C25 C27B 101.5(7)
C3 C25 C27B 103.4(4)
C25 C26A H71 109.5
C25 C26A H72 109.5
H71 C26A H72 109.5
C25 C26A H73 109.5
H71 C26A H73 109.5
H72 C26A H73 109.5
C25 C27A H74 109.5
C25 C27A H75 109.5
H74 C27A H75 109.5
C25 C27A H76 109.5
H74 C27A H76 109.5
H75 C27A H76 109.5
C25 C28A H77 109.5
C25 C28A H78 109.5
H77 C28A H78 109.5
C25 C28A H79 109.5
H77 C28A H79 109.5
H78 C28A H79 109.5
C25 C26B H110 109.5
C25 C26B H111 109.5
H110 C26B H111 109.5
C25 C26B H112 109.5
H110 C26B H112 109.5
H111 C26B H112 109.5
C25 C27B H113 109.5
C25 C27B H114 109.5
H113 C27B H114 109.5
C25 C27B H115 109.5
H113 C27B H115 109.5
H114 C27B H115 109.5
C25 C28B H116 109.5
C25 C28B H117 109.5
H116 C28B H117 109.5
C25 C28B H118 109.5
H116 C28B H118 109.5
H117 C28B H118 109.5
C31A C29 C32A 101.2(11)
C32B C29 C30B 115.5(3)
C31A C29 C8 111.6(10)
C32A C29 C8 124.5(10)
C32B C29 C8 111.4(2)
C30B C29 C8 109.0(2)
C32B C29 C31B 104.8(2)
C30B C29 C31B 106.1(3)
C8 C29 C31B 109.7(2)
C31A C29 C30A 112.6(9)
C32A C29 C30A 100.4(10)
C8 C29 C30A 106.1(10)
C29 C30B H80B 109.5
C29 C30B H81B 109.5
H80B C30B H81B 109.5
C29 C30B H82B 109.5
H80B C30B H82B 109.5
H81B C30B H82B 109.5
C29 C31B H83B 109.5
C29 C31B H84B 109.5
H83B C31B H84B 109.5
C29 C31B H85B 109.5
H83B C31B H85B 109.5
H84B C31B H85B 109.5
C29 C32B H86B 109.5
C29 C32B H87B 109.5
H86B C32B H87B 109.5
C29 C32B H88B 109.5
H86B C32B H88B 109.5
H87B C32B H88B 109.5
C29 C30A H80A 109.5
C29 C30A H81A 109.5
H80A C30A H81A 109.5
C29 C30A H82A 109.5
H80A C30A H82A 109.5
H81A C30A H82A 109.5
C29 C31A H83A 109.5
C29 C31A H84A 109.5
H83A C31A H84A 109.5
C29 C31A H85A 109.5
H83A C31A H85A 109.5
H84A C31A H85A 109.5
C29 C32A H86A 109.5
C29 C32A H87A 109.5
H86A C32A H87A 109.5
C29 C32A H88A 109.5
H86A C32A H88A 109.5
H87A C32A H88A 109.5
C34 C33 C54 119.77(17)
C34 C33 C1 119.07(16)
C54 C33 C1 121.09(17)
C33 C34 C35 122.29(17)
C33 C34 H34 118.9
C35 C34 H34 118.9
C36 C35 C34 117.54(17)
C36 C35 C57 120.59(17)
C34 C35 C57 121.86(16)
C35 C36 C37 122.74(17)
C35 C36 H36 118.6
C37 C36 H36 118.6
C36 C37 C54 118.70(16)
C36 C37 C38 122.78(16)
C54 C37 C38 118.51(16)
C39 C38 C55 119.06(16)
C39 C38 C37 121.07(16)
C55 C38 C37 119.87(16)
C40 C39 C38 122.07(17)
C40 C39 H39 119.0
C38 C39 H39 119.0
C39 C40 C41 117.75(17)
C39 C40 C61 122.75(17)
C41 C40 C61 119.49(16)
C42 C41 C40 122.90(17)
C42 C41 H41 118.5
C40 C41 H41 118.5
C41 C42 C55 118.73(17)
C41 C42 C43 121.32(16)
C55 C42 C43 119.94(17)
C44 C43 C56 118.32(18)
C44 C43 C42 122.21(19)
C56 C43 C42 119.47(17)
C43 C44 C45 122.1(2)
C43 C44 H44 118.9
C45 C44 H44 118.9
C46 C45 C44 120.1(2)
C46 C45 H45 119.9
C44 C45 H45 119.9
C45 C46 C47 120.96(19)
C45 C46 H46 119.5
C47 C46 H46 119.5
C48 C47 C46 121.90(19)
C48 C47 C56 119.27(19)
C46 C47 C56 118.82(19)
C49 C48 C47 120.88(19)
C49 C48 H48 119.6
C47 C48 H48 119.6
C48 C49 C50 120.4(2)
C48 C49 H49 119.8
C50 C49 H49 119.8
C51 C50 C49 121.9(2)
C51 C50 H50 119.1
C49 C50 H50 119.1
C50 C51 C56 118.29(18)
C50 C51 C52 122.07(18)
C56 C51 C52 119.64(17)
C53 C52 C55 118.71(17)
C53 C52 C51 121.82(17)
C55 C52 C51 119.47(16)
C52 C53 C54 122.92(17)
C52 C53 H53 118.5
C54 C53 H53 118.5
C37 C54 C53 119.51(16)
C37 C54 C33 118.91(16)
C53 C54 C33 121.58(17)
C38 C55 C42 119.43(17)
C38 C55 C52 120.30(16)
C42 C55 C52 120.26(17)
C43 C56 C51 121.14(17)
C43 C56 C47 119.61(17)
C51 C56 C47 119.25(18)
C58A C57 C60A 109.6(2)
C58B C57 C35 114.1(9)
C58A C57 C35 112.92(18)
C60A C57 C35 109.43(19)
C58A C57 C59A 107.7(2)
C60A C57 C59A 108.64(19)
C35 C57 C59A 108.46(18)
C58B C57 C59B 112.9(18)
C35 C57 C59B 102.8(10)
C58B C57 C60B 120.0(18)
C35 C57 C60B 104.8(10)
C59B C57 C60B 100.1(19)
C57 C58A H89A 109.5
C57 C58A H90A 109.5
H89A C58A H90A 109.5
C57 C58A H91A 109.5
H89A C58A H91A 109.5
H90A C58A H91A 109.5
C57 C59A H92A 109.5
C57 C59A H93A 109.5
H92A C59A H93A 109.5
C57 C59A H94A 109.5
H92A C59A H94A 109.5
H93A C59A H94A 109.5
C57 C60A H95A 109.5
C57 C60A H96A 109.5
H95A C60A H96A 109.5
C57 C60A H97A 109.5
H95A C60A H97A 109.5
H96A C60A H97A 109.5
C57 C58B H89B 109.5
C57 C58B H90B 109.5
H89B C58B H90B 109.5
C57 C58B H91B 109.5
H89B C58B H91B 109.5
H90B C58B H91B 109.5
C57 C59B H92B 109.5
C57 C59B H93B 109.5
H92B C59B H93B 109.5
C57 C59B H94B 109.5
H92B C59B H94B 109.5
H93B C59B H94B 109.5
C57 C60B H95B 109.5
C57 C60B H96B 109.5
H95B C60B H96B 109.5
C57 C60B H97B 109.5
H95B C60B H97B 109.5
H96B C60B H97B 109.5
C64 C61 C62 108.4(2)
C64 C61 C63 108.73(18)
C62 C61 C63 108.15(19)
C64 C61 C40 109.24(17)
C62 C61 C40 112.54(16)
C63 C61 C40 109.70(17)
C61 C62 H98 109.5
C61 C62 H99 109.5
H98 C62 H99 109.5
C61 C62 H100 109.5
H98 C62 H100 109.5
H99 C62 H100 109.5
C61 C63 H101 109.5
C61 C63 H102 109.5
H101 C63 H102 109.5
C61 C63 H103 109.5
H101 C63 H103 109.5
H102 C63 H103 109.5
C61 C64 H104 109.5
C61 C64 H105 109.5
H104 C64 H105 109.5
C61 C64 H106 109.5
H104 C64 H106 109.5
H105 C64 H106 109.5
C66 C65 C70 117.5(4)
C66 C65 C71 121.8(4)
C70 C65 C71 120.8(4)
C65 C66 C67 122.3(4)
C65 C66 H66 118.8
C67 C66 H66 118.8
C68 C67 C66 119.2(4)
C68 C67 H67 120.4
C66 C67 H67 120.4
C67 C68 C69 118.7(4)
C67 C68 H68 120.7
C69 C68 H68 120.7
C70 C69 C68 120.1(4)
C70 C69 H69 119.9
C68 C69 H69 119.9
C65 C70 C69 122.1(5)
C65 C70 H70 119.0
C69 C70 H70 119.0
C65 C71 H107 109.5
C65 C71 H108 109.5
H107 C71 H108 109.5
C65 C71 H109 109.5
H107 C71 H109 109.5
H108 C71 H109 109.5
loop_
_geom_bond_atom_site_label_1
_geom_bond_atom_site_label_2
_geom_bond_distance
C1 C2 1.374(3)
C1 C22 1.425(3)
C1 C33 1.496(2)
C2 C3 1.412(3)
C2 H2 0.9500
C3 C4 1.376(3)
C3 C25 1.528(3)
C4 C5 1.412(3)
C4 H4 0.9500
C5 C22 1.420(3)
C5 C6 1.459(3)
C6 C7 1.414(3)
C6 C23 1.420(3)
C7 C8 1.383(3)
C7 H7 0.9500
C8 C9 1.394(3)
C8 C29 1.533(3)
C9 C10 1.386(3)
C9 H9 0.9500
C10 C23 1.415(3)
C10 C11 1.487(3)
C11 C12 1.386(3)
C11 C24 1.430(3)
C12 C13 1.414(4)
C12 H12 0.9500
C13 C14 1.349(4)
C13 H13 0.9500
C14 C15 1.413(4)
C14 H14 0.9500
C15 C16 1.422(4)
C15 C24 1.425(3)
C16 C17 1.347(4)
C16 H16 0.9500
C17 C18 1.410(3)
C17 H17 0.9500
C18 C19 1.382(3)
C18 H18 0.9500
C19 C24 1.414(3)
C19 C20 1.482(3)
C20 C21 1.360(3)
C20 C23 1.443(3)
C21 C22 1.426(3)
C21 H21 0.9500
C25 C28B 1.401(12)
C25 C26A 1.485(4)
C25 C26B 1.524(12)
C25 C28A 1.527(5)
C25 C27A 1.584(5)
C25 C27B 1.749(12)
C26A H71 0.9800
C26A H72 0.9800
C26A H73 0.9800
C27A H74 0.9800
C27A H75 0.9800
C27A H76 0.9800
C28A H77 0.9800
C28A H78 0.9800
C28A H79 0.9800
C26B H110 0.9800
C26B H111 0.9800
C26B H112 0.9800
C27B H113 0.9800
C27B H114 0.9800
C27B H115 0.9800
C28B H116 0.9800
C28B H117 0.9800
C28B H118 0.9800
C29 C31A 1.482(13)
C29 C32A 1.490(14)
C29 C32B 1.510(4)
C29 C30B 1.512(5)
C29 C31B 1.541(4)
C29 C30A 1.546(13)
C30B H80B 0.9800
C30B H81B 0.9800
C30B H82B 0.9800
C31B H83B 0.9800
C31B H84B 0.9800
C31B H85B 0.9800
C32B H86B 0.9800
C32B H87B 0.9800
C32B H88B 0.9800
C30A H80A 0.9800
C30A H81A 0.9800
C30A H82A 0.9800
C31A H83A 0.9800
C31A H84A 0.9800
C31A H85A 0.9800
C32A H86A 0.9800
C32A H87A 0.9800
C32A H88A 0.9800
C33 C34 1.376(3)
C33 C54 1.425(2)
C34 C35 1.412(3)
C34 H34 0.9500
C35 C36 1.381(3)
C35 C57 1.535(3)
C36 C37 1.406(3)
C36 H36 0.9500
C37 C54 1.422(2)
C37 C38 1.457(2)
C38 C39 1.412(2)
C38 C55 1.414(3)
C39 C40 1.381(3)
C39 H39 0.9500
C40 C41 1.403(3)
C40 C61 1.535(3)
C41 C42 1.386(3)
C41 H41 0.9500
C42 C55 1.423(2)
C42 C43 1.476(3)
C43 C44 1.386(3)
C43 C56 1.424(3)
C44 C45 1.401(3)
C44 H44 0.9500
C45 C46 1.362(3)
C45 H45 0.9500
C46 C47 1.414(3)
C46 H46 0.9500
C47 C48 1.402(3)
C47 C56 1.436(3)
C48 C49 1.362(3)
C48 H48 0.9500
C49 C50 1.396(3)
C49 H49 0.9500
C50 C51 1.389(3)
C50 H50 0.9500
C51 C56 1.427(3)
C51 C52 1.470(3)
C52 C53 1.369(3)
C52 C55 1.448(3)
C53 C54 1.424(3)
C53 H53 0.9500
C57 C58B 1.481(14)
C57 C58A 1.510(3)
C57 C60A 1.529(4)
C57 C59A 1.539(3)
C57 C59B 1.562(14)
C57 C60B 1.564(14)
C58A H89A 0.9800
C58A H90A 0.9800
C58A H91A 0.9800
C59A H92A 0.9800
C59A H93A 0.9800
C59A H94A 0.9800
C60A H95A 0.9800
C60A H96A 0.9800
C60A H97A 0.9800
C58B H89B 0.9800
C58B H90B 0.9800
C58B H91B 0.9800
C59B H92B 0.9800
C59B H93B 0.9800
C59B H94B 0.9800
C60B H95B 0.9800
C60B H96B 0.9800
C60B H97B 0.9800
C61 C64 1.526(3)
C61 C62 1.529(3)
C61 C63 1.532(3)
C62 H98 0.9800
C62 H99 0.9800
C62 H100 0.9800
C63 H101 0.9800
C63 H102 0.9800
C63 H103 0.9800
C64 H104 0.9800
C64 H105 0.9800
C64 H106 0.9800
C65 C66 1.339(5)
C65 C70 1.361(6)
C65 C71 1.495(5)
C66 C67 1.418(5)
C66 H66 0.9500
C67 C68 1.340(5)
C67 H67 0.9500
C68 C69 1.400(6)
C68 H68 0.9500
C69 C70 1.362(6)
C69 H69 0.9500
C70 H70 0.9500
C71 H107 0.9800
C71 H108 0.9800
C71 H109 0.9800
loop_
_geom_torsion_atom_site_label_1
_geom_torsion_atom_site_label_2
_geom_torsion_atom_site_label_3
_geom_torsion_atom_site_label_4
_geom_torsion
C22 C1 C2 C3 -0.4(3)
C33 C1 C2 C3 174.57(18)
C1 C2 C3 C4 0.6(3)
C1 C2 C3 C25 -177.0(2)
C2 C3 C4 C5 0.5(3)
C25 C3 C4 C5 178.0(2)
C3 C4 C5 C22 -1.7(3)
C3 C4 C5 C6 179.0(2)
C4 C5 C6 C7 -3.9(3)
C22 C5 C6 C7 176.83(19)
C4 C5 C6 C23 178.32(19)
C22 C5 C6 C23 -1.0(3)
C23 C6 C7 C8 0.1(3)
C5 C6 C7 C8 -177.8(2)
C6 C7 C8 C9 1.2(4)
C6 C7 C8 C29 179.5(2)
C7 C8 C9 C10 -1.7(4)
C29 C8 C9 C10 179.9(2)
C8 C9 C10 C23 1.0(3)
C8 C9 C10 C11 178.7(2)
C9 C10 C11 C12 -1.2(3)
C23 C10 C11 C12 176.5(2)
C9 C10 C11 C24 178.9(2)
C23 C10 C11 C24 -3.4(3)
C24 C11 C12 C13 1.1(4)
C10 C11 C12 C13 -178.8(2)
C11 C12 C13 C14 -1.8(4)
C12 C13 C14 C15 1.4(4)
C13 C14 C15 C16 178.2(2)
C13 C14 C15 C24 -0.5(3)
C14 C15 C16 C17 -177.6(2)
C24 C15 C16 C17 1.1(3)
C15 C16 C17 C18 -0.9(3)
C16 C17 C18 C19 1.4(3)
C17 C18 C19 C24 -2.1(3)
C17 C18 C19 C20 176.72(19)
C18 C19 C20 C21 -4.8(3)
C24 C19 C20 C21 173.95(18)
C18 C19 C20 C23 178.33(18)
C24 C19 C20 C23 -2.9(3)
C23 C20 C21 C22 -3.6(3)
C19 C20 C21 C22 179.54(17)
C4 C5 C22 C1 1.8(3)
C6 C5 C22 C1 -178.83(18)
C4 C5 C22 C21 -178.25(18)
C6 C5 C22 C21 1.1(3)
C2 C1 C22 C5 -0.8(3)
C33 C1 C22 C5 -175.66(17)
C2 C1 C22 C21 179.28(18)
C33 C1 C22 C21 4.4(3)
C20 C21 C22 C5 1.3(3)
C20 C21 C22 C1 -178.82(18)
C9 C10 C23 C6 0.3(3)
C11 C10 C23 C6 -177.39(19)
C9 C10 C23 C20 178.69(19)
C11 C10 C23 C20 1.0(3)
C7 C6 C23 C10 -0.8(3)
C5 C6 C23 C10 177.07(18)
C7 C6 C23 C20 -179.22(18)
C5 C6 C23 C20 -1.3(3)
C21 C20 C23 C10 -174.76(19)
C19 C20 C23 C10 2.1(3)
C21 C20 C23 C6 3.6(3)
C19 C20 C23 C6 -179.49(18)
C18 C19 C24 C15 2.3(3)
C20 C19 C24 C15 -176.56(17)
C18 C19 C24 C11 179.23(18)
C20 C19 C24 C11 0.4(3)
C14 C15 C24 C19 176.93(19)
C16 C15 C24 C19 -1.7(3)
C14 C15 C24 C11 -0.1(3)
C16 C15 C24 C11 -178.79(18)
C12 C11 C24 C19 -177.2(2)
C10 C11 C24 C19 2.7(3)
C12 C11 C24 C15 -0.2(3)
C10 C11 C24 C15 179.71(18)
C4 C3 C25 C28B 175.1(8)
C2 C3 C25 C28B -7.5(9)
C4 C3 C25 C26A -2.3(4)
C2 C3 C25 C26A 175.1(3)
C4 C3 C25 C26B -48.3(7)
C2 C3 C25 C26B 129.1(7)
C4 C3 C25 C28A 124.4(3)
C2 C3 C25 C28A -58.2(3)
C4 C3 C25 C27A -120.4(3)
C2 C3 C25 C27A 57.0(3)
C4 C3 C25 C27B 59.2(5)
C2 C3 C25 C27B -123.4(5)
C7 C8 C29 C31A -43.0(6)
C9 C8 C29 C31A 135.3(6)
C7 C8 C29 C32A -164.8(6)
C9 C8 C29 C32A 13.6(6)
C7 C8 C29 C32B 21.9(4)
C9 C8 C29 C32B -159.8(3)
C7 C8 C29 C30B -106.7(3)
C9 C8 C29 C30B 71.6(3)
C7 C8 C29 C31B 137.5(3)
C9 C8 C29 C31B -44.1(3)
C7 C8 C29 C30A 80.0(5)
C9 C8 C29 C30A -101.7(5)
C2 C1 C33 C34 -115.7(2)
C22 C1 C33 C34 59.2(3)
C2 C1 C33 C54 61.3(3)
C22 C1 C33 C54 -123.8(2)
C54 C33 C34 C35 -0.3(3)
C1 C33 C34 C35 176.80(19)
C33 C34 C35 C36 -1.6(3)
C33 C34 C35 C57 179.0(2)
C34 C35 C36 C37 2.3(3)
C57 C35 C36 C37 -178.34(19)
C35 C36 C37 C54 -1.0(3)
C35 C36 C37 C38 -179.97(19)
C36 C37 C38 C39 -3.3(3)
C54 C37 C38 C39 177.75(18)
C36 C37 C38 C55 176.85(18)
C54 C37 C38 C55 -2.1(3)
C55 C38 C39 C40 -0.5(3)
C37 C38 C39 C40 179.63(19)
C38 C39 C40 C41 -1.1(3)
C38 C39 C40 C61 179.73(18)
C39 C40 C41 C42 0.9(3)
C61 C40 C41 C42 -179.91(18)
C40 C41 C42 C55 0.9(3)
C40 C41 C42 C43 179.93(18)
C41 C42 C43 C44 4.1(3)
C55 C42 C43 C44 -176.92(19)
C41 C42 C43 C56 -175.32(18)
C55 C42 C43 C56 3.7(3)
C56 C43 C44 C45 2.4(3)
C42 C43 C44 C45 -176.95(19)
C43 C44 C45 C46 -0.6(3)
C44 C45 C46 C47 -1.4(3)
C45 C46 C47 C48 -178.8(2)
C45 C46 C47 C56 1.5(3)
C46 C47 C48 C49 179.5(2)
C56 C47 C48 C49 -0.8(3)
C47 C48 C49 C50 0.4(4)
C48 C49 C50 C51 0.8(4)
C49 C50 C51 C56 -1.6(3)
C49 C50 C51 C52 179.1(2)
C50 C51 C52 C53 0.5(3)
C56 C51 C52 C53 -178.75(18)
C50 C51 C52 C55 -179.65(19)
C56 C51 C52 C55 1.1(3)
C55 C52 C53 C54 -2.8(3)
C51 C52 C53 C54 177.01(18)
C36 C37 C54 C53 179.41(18)
C38 C37 C54 C53 -1.6(3)
C36 C37 C54 C33 -1.0(3)
C38 C37 C54 C33 178.01(18)
C52 C53 C54 C37 4.2(3)
C52 C53 C54 C33 -175.39(18)
C34 C33 C54 C37 1.6(3)
C1 C33 C54 C37 -175.40(18)
C34 C33 C54 C53 -178.81(19)
C1 C33 C54 C53 4.2(3)
C39 C38 C55 C42 2.3(3)
C37 C38 C55 C42 -177.86(17)
C39 C38 C55 C52 -176.41(17)
C37 C38 C55 C52 3.5(3)
C41 C42 C55 C38 -2.4(3)
C43 C42 C55 C38 178.50(17)
C41 C42 C55 C52 176.21(17)
C43 C42 C55 C52 -2.8(3)
C53 C52 C55 C38 -1.0(3)
C51 C52 C55 C38 179.11(17)
C53 C52 C55 C42 -179.69(18)
C51 C52 C55 C42 0.5(3)
C44 C43 C56 C51 178.44(19)
C42 C43 C56 C51 -2.2(3)
C44 C43 C56 C47 -2.3(3)
C42 C43 C56 C47 177.14(17)
C50 C51 C56 C43 -179.49(19)
C52 C51 C56 C43 -0.2(3)
C50 C51 C56 C47 1.2(3)
C52 C51 C56 C47 -179.52(17)
C48 C47 C56 C43 -179.35(18)
C46 C47 C56 C43 0.3(3)
C48 C47 C56 C51 0.0(3)
C46 C47 C56 C51 179.66(18)
C36 C35 C57 C58B 2.8(17)
C34 C35 C57 C58B -177.8(17)
C36 C35 C57 C58A 174.7(3)
C34 C35 C57 C58A -5.9(4)
C36 C35 C57 C60A -62.9(3)
C34 C35 C57 C60A 116.5(2)
C36 C35 C57 C59A 55.5(3)
C34 C35 C57 C59A -125.1(2)
C36 C35 C57 C59B -119.7(13)
C34 C35 C57 C59B 59.6(13)
C36 C35 C57 C60B 136.1(15)
C34 C35 C57 C60B -44.6(15)
C39 C40 C61 C64 124.1(2)
C41 C40 C61 C64 -55.0(2)
C39 C40 C61 C62 3.7(3)
C41 C40 C61 C62 -175.5(2)
C39 C40 C61 C63 -116.8(2)
C41 C40 C61 C63 64.1(2)
C70 C65 C66 C67 3.0(5)
C71 C65 C66 C67 -177.4(3)
C65 C66 C67 C68 0.2(6)
C66 C67 C68 C69 -1.9(6)
C67 C68 C69 C70 0.3(7)
C66 C65 C70 C69 -4.7(7)
C71 C65 C70 C69 175.7(5)
C68 C69 C70 C65 3.1(8)
