#------------------------------------------------------------------------------
#$Date: 2017-02-04 05:54:59 +0200 (Sat, 04 Feb 2017) $
#$Revision: 191415 $
#$URL: file:///home/coder/svn-repositories/cod/cif/2/10/80/2108028.cif $
#------------------------------------------------------------------------------
#
# This file is available in the Crystallography Open Database (COD),
# http://www.crystallography.net/. The original data for this entry
# were provided by IUCr Journals, http://journals.iucr.org/.
#
# The file may be used within the scientific community so long as
# proper attribution is given to the journal article from which the
# data were obtained.
#
data_2108028
loop_
_publ_author_name
'Fabrykiewicz, P.'
'Stekiel, M.'
'Sosnowska, I.'
'Przenios\/lo, R.'
_publ_section_title
;
 Deformations of the \a-Fe~2~O~3~ rhombohedral lattice across the N\'eel
 temperature
;
_journal_coeditor_code           DQ5016
_journal_issue                   1
_journal_name_full               'Acta Crystallographica Section B'
_journal_page_first              27
_journal_page_last               32
_journal_paper_doi               10.1107/S2052520616017935
_journal_volume                  73
_journal_year                    2017
_chemical_formula_sum            'Fe2 O3'
_chemical_formula_weight         159.7
_chemical_name_common            hematite
_space_group_IT_number           15
_symmetry_cell_setting           monoclinic
_symmetry_Int_Tables_number      15
_symmetry_space_group_name_Hall  '-C 2yc'
_symmetry_space_group_name_H-M   'C 1 2/c 1'
_cell_angle_alpha                90
_cell_angle_beta                 162.3508(2)
_cell_angle_gamma                90
_cell_formula_units_Z            4
_cell_length_a                   9.68920(8)
_cell_length_b                   5.08737(2)
_cell_length_c                   13.84868(11)
_cell_measurement_reflns_used    935
_cell_measurement_temperature    1053
_cell_measurement_theta_max      30.0
_cell_measurement_theta_min      5.0
_cell_volume                     206.967(3)
_diffrn_ambient_temperature      1053
_diffrn_radiation_probe          x-ray
_diffrn_radiation_type           synchrotron
_diffrn_radiation_wavelength     0.40086
_exptl_crystal_density_diffrn    5.1249
_exptl_crystal_F_000             304
_pd_meas_2theta_range_inc        0.001
_pd_meas_2theta_range_max        48.002
_pd_meas_2theta_range_min        5.000
_pd_meas_number_of_points        43003
_pd_proc_2theta_range_inc        0.001
_pd_proc_2theta_range_max        29.999
_pd_proc_2theta_range_min        5
_pd_proc_ls_background_function  '5 Legendre polynoms'
_pd_proc_ls_pref_orient_corr     none
_pd_proc_ls_profile_function     Pseudo-Voigt
_pd_proc_ls_prof_R_factor        0.0988
_pd_proc_ls_prof_wR_expected     0.0859
_pd_proc_ls_prof_wR_factor       0.1282
_refine_ls_goodness_of_fit_all   1.49
_refine_ls_number_constraints    0
_refine_ls_number_parameters     21
_refine_ls_number_restraints     0
_refine_ls_R_factor_all          0.0441
_refine_ls_R_factor_gt           0.0312
_refine_ls_shift/su_max          0.0356
_refine_ls_shift/su_mean         0.0111
_refine_ls_weighting_scheme      sigma
_refine_ls_wR_factor_all         0.0404
_refine_ls_wR_factor_gt          0.0392
_cod_data_source_file            dq5016sup1.cif
_cod_data_source_block           II
_cod_depositor_comments
;
The following automatic conversions were performed:

'_diffrn_radiation_probe' value 'X-ray' changed to 'x-ray' according
to
/usr/data/users/saulius/crontab/automatic-downloads/rss-feeds/IUCr/lib/dictionaries/cif_core.dic
dictionary named 'cif_core.dic' version 2.4.2 from 2011-04-26.

Automatic conversion script
Id: cif_fix_values 4268 2015-11-12 08:31:59Z antanas 

 Adding full bibliography for 2108027--2108028.cif.
;
_cod_original_cell_volume        206.967(4)
_cod_database_code               2108028
_cod_database_fobs_code          2108028
loop_
_space_group_symop_id
_space_group_symop_operation_xyz
1 x,y,z
2 -x,y,-z+1/2
3 -x,-y,-z
4 x,-y,z+1/2
5 x+1/2,y+1/2,z
6 -x+1/2,y+1/2,-z+1/2
7 -x+1/2,-y+1/2,-z
8 x+1/2,-y+1/2,z+1/2
loop_
_atom_site_label
_atom_site_type_symbol
_atom_site_fract_x
_atom_site_fract_y
_atom_site_fract_z
_atom_site_adp_type
_atom_site_U_iso_or_equiv
_atom_site_site_symmetry_multiplicity
_atom_site_occupancy
_atom_site_calc_flag
Fe1 Fe 0 0 0.14425(3) Uiso 0.0131 8 1 d
O1 O 0 0.313(3) 0.25 Uiso 0.0102 4 1 d
O2 O -0.449(3) -0.155(3) -0.049(2) Uiso 0.0102 8 1 d
loop_
_atom_type_symbol
_atom_type_scat_dispersion_real
_atom_type_scat_dispersion_imag
_atom_type_scat_source
Fe 0.1893 0.2910 'International Tables Vol C tables 4.2.6.8 and 6.1.1.1'
O 0.0016 0.0017 'International Tables Vol C tables 4.2.6.8 and 6.1.1.1'
loop_
_pd_proc_point_id
_pd_proc_2theta_corrected
_pd_proc_intensity_net
_pd_calc_intensity_net
_pd_proc_ls_weight
1 5.0000 264.47 284.33 18.91
2 5.0010 264.21 284.26 16.37
3 5.0020 242.70 284.18 15.70
4 5.0030 280.99 284.11 16.97
5 5.0040 257.50 284.03 16.10
6 5.0050 263.49 283.95 16.22
7 5.0060 284.41 283.88 16.83
8 5.0070 286.11 283.80 16.91
9 5.0080 233.34 283.73 15.29
10 5.0090 292.04 283.65 17.07
11 5.0100 259.36 283.58 16.07
12 5.0110 245.27 283.50 15.68
13 5.0120 255.89 283.42 16.15
14 5.0130 272.74 283.35 16.74
15 5.0140 255.47 283.27 16.15
16 5.0150 277.45 283.20 16.68
17 5.0160 253.82 283.12 15.96
18 5.0170 252.85 283.05 15.95
19 5.0180 240.41 282.97 15.57
20 5.0190 242.75 282.90 15.60
21 5.0200 257.65 282.82 16.11
22 5.0210 263.19 282.75 16.28
23 5.0220 289.10 282.67 17.16
24 5.0230 271.07 282.60 16.71
25 5.0240 250.90 282.52 15.93
26 5.0250 265.18 282.45 16.32
27 5.0260 257.83 282.37 16.02
28 5.0270 270.55 282.30 16.42
29 5.0280 247.82 282.22 15.75
30 5.0290 289.89 282.14 16.98
31 5.0300 245.68 282.07 15.65
32 5.0310 278.04 281.99 16.69
33 5.0320 251.30 281.92 15.98
34 5.0330 242.64 281.84 15.72
35 5.0340 258.82 281.77 16.12
36 5.0350 284.92 281.69 16.79
37 5.0360 271.35 281.62 16.39
38 5.0370 250.97 281.54 15.84
39 5.0380 252.58 281.47 15.88
40 5.0390 267.34 281.39 16.37
41 5.0400 241.97 281.32 15.60
42 5.0410 285.46 281.24 16.99
43 5.0420 286.89 281.17 17.16
44 5.0430 263.34 281.09 16.46
45 5.0440 262.74 281.02 16.28
46 5.0450 259.93 280.94 16.12
47 5.0460 265.39 280.87 16.23
48 5.0470 270.71 280.79 16.48
49 5.0480 257.11 280.72 16.11
50 5.0490 257.75 280.64 16.10
51 5.0500 234.58 280.57 15.30
52 5.0510 256.22 280.49 16.01
53 5.0520 255.63 280.42 16.15
54 5.0530 241.46 280.35 15.67
55 5.0540 257.61 280.27 16.08
56 5.0550 252.70 280.20 15.89
57 5.0560 232.92 280.12 15.22
58 5.0570 254.07 280.05 15.91
59 5.0580 256.29 279.97 15.97
60 5.0590 294.87 279.90 17.09
61 5.0600 255.64 279.82 15.92
62 5.0610 244.35 279.75 15.65
63 5.0620 288.71 279.67 17.13
64 5.0630 240.57 279.60 15.69
65 5.0640 272.23 279.52 16.63
66 5.0650 284.34 279.45 16.94
67 5.0660 258.83 279.38 16.02
68 5.0670 273.72 279.30 16.52
69 5.0680 265.95 279.23 16.31
70 5.0690 271.37 279.15 16.48
71 5.0700 277.99 279.08 16.72
72 5.0710 266.75 279.00 16.38
73 5.0720 256.53 278.93 16.19
74 5.0730 266.47 278.86 16.53
75 5.0740 267.83 278.78 16.45
76 5.0750 268.92 278.71 16.37
77 5.0760 265.49 278.63 16.14
78 5.0770 266.90 278.56 16.30
79 5.0780 245.39 278.48 15.70
80 5.0790 258.02 278.41 16.12
81 5.0800 236.79 278.33 15.39
82 5.0810 254.16 278.26 15.98
83 5.0820 270.93 278.19 16.57
84 5.0830 272.08 278.11 16.60
85 5.0840 249.17 278.04 15.83
86 5.0850 282.91 277.96 16.79
87 5.0860 285.35 277.89 16.76
88 5.0870 282.30 277.82 16.75
89 5.0880 251.86 277.74 15.91
90 5.0890 245.91 277.67 15.72
91 5.0900 271.40 277.59 16.51
92 5.0910 256.98 277.52 16.08
93 5.0920 267.24 277.45 16.55
94 5.0930 255.07 277.37 16.18
95 5.0940 259.35 277.30 16.22
96 5.0950 268.52 277.22 16.39
97 5.0960 269.73 277.15 16.40
98 5.0970 279.93 277.08 16.75
99 5.0980 267.97 277.00 16.40
100 5.0990 280.87 276.93 16.75
101 5.1000 298.57 276.86 17.32
102 5.1010 286.24 276.78 16.96
103 5.1020 286.53 276.71 17.09
104 5.1030 269.79 276.63 16.63
105 5.1040 267.09 276.56 16.39
106 5.1050 272.73 276.49 16.45
107 5.1060 270.94 276.41 16.35
108 5.1070 277.05 276.34 16.52
109 5.1080 250.32 276.27 15.77
110 5.1090 294.50 276.19 17.08
111 5.1100 257.30 276.12 15.98
112 5.1110 267.49 276.04 16.42
113 5.1120 253.91 275.97 16.10
114 5.1130 276.16 275.90 16.83
115 5.1140 260.14 275.82 16.27
116 5.1150 283.98 275.75 16.89
117 5.1160 265.61 275.68 16.27
118 5.1170 275.79 275.60 16.59
119 5.1180 291.16 275.53 17.13
120 5.1190 284.18 275.46 16.83
121 5.1200 283.61 275.38 16.85
122 5.1210 269.17 275.31 16.48
123 5.1220 265.50 275.23 16.43
124 5.1230 297.03 275.16 17.45
125 5.1240 282.09 275.09 16.91
126 5.1250 291.95 275.02 17.09
127 5.1260 254.68 274.94 15.83
128 5.1270 264.17 274.87 16.22
129 5.1280 276.16 274.80 16.65
130 5.1290 251.94 274.72 15.78
131 5.1300 285.08 274.65 16.89
132 5.1310 276.74 274.58 16.64
133 5.1320 285.73 274.50 17.05
134 5.1330 276.87 274.43 16.76
135 5.1340 249.88 274.36 15.87
136 5.1350 274.12 274.28 16.52
137 5.1360 279.20 274.21 16.70
138 5.1370 281.87 274.14 16.76
139 5.1380 275.53 274.06 16.70
140 5.1390 276.32 273.99 16.64
141 5.1400 240.28 273.92 15.56
142 5.1410 287.57 273.84 17.05
143 5.1420 269.40 273.77 16.62
144 5.1430 265.02 273.70 16.49
145 5.1440 262.87 273.62 16.37
146 5.1450 307.88 273.55 17.59
147 5.1460 267.46 273.48 16.38
148 5.1470 246.01 273.41 15.65
149 5.1480 278.59 273.33 16.80
150 5.1490 262.67 273.26 16.16
151 5.1500 245.40 273.19 15.69
152 5.1510 275.31 273.11 16.62
153 5.1520 284.46 273.04 17.08
154 5.1530 252.36 272.97 16.03
155 5.1540 264.80 272.90 16.45
156 5.1550 271.06 272.82 16.41
157 5.1560 284.88 272.75 16.77
158 5.1570 259.39 272.68 16.01
159 5.1580 272.70 272.61 16.53
160 5.1590 302.47 272.53 17.30
161 5.1600 256.52 272.46 16.00
162 5.1610 254.78 272.39 15.98
163 5.1620 253.88 272.31 16.07
164 5.1630 274.80 272.24 16.84
165 5.1640 289.73 272.17 17.15
166 5.1650 298.38 272.10 17.32
167 5.1660 277.16 272.02 16.58
168 5.1670 269.16 271.95 16.38
169 5.1680 279.94 271.88 16.75
170 5.1690 263.08 271.81 16.23
171 5.1700 278.04 271.73 16.71
172 5.1710 273.08 271.66 16.57
173 5.1720 280.96 271.59 16.96
174 5.1730 271.37 271.52 16.65
175 5.1740 294.04 271.44 17.23
176 5.1750 290.38 271.37 17.04
177 5.1760 251.03 271.30 15.79
178 5.1770 281.68 271.23 16.72
179 5.1780 263.67 271.15 16.25
180 5.1790 271.54 271.08 16.42
181 5.1800 256.16 271.01 15.98
182 5.1810 249.24 270.94 15.76
183 5.1820 264.24 270.86 16.34
184 5.1830 308.21 270.79 17.78
185 5.1840 271.98 270.72 16.53
186 5.1850 283.09 270.65 16.85
187 5.1860 253.46 270.58 15.82
188 5.1870 276.09 270.50 16.59
189 5.1880 303.46 270.43 17.52
190 5.1890 278.81 270.36 16.68
191 5.1900 291.28 270.29 17.11
192 5.1910 272.42 270.22 16.55
193 5.1920 277.02 270.14 16.81
194 5.1930 271.95 270.07 16.64
195 5.1940 288.90 270.00 17.15
196 5.1950 282.80 269.93 16.82
197 5.1960 278.62 269.86 16.63
198 5.1970 297.97 269.78 17.27
199 5.1980 296.31 269.71 17.22
200 5.1990 276.96 269.64 16.64
201 5.2000 295.85 269.57 17.16
202 5.2010 285.90 269.50 16.95
203 5.2020 306.51 269.42 17.58
204 5.2030 275.87 269.35 16.86
205 5.2040 280.02 269.28 16.79
206 5.2050 256.20 269.21 15.96
207 5.2060 250.90 269.14 15.74
208 5.2070 273.33 269.07 16.47
209 5.2080 277.23 268.99 16.71
210 5.2090 278.69 268.92 16.67
211 5.2100 280.29 268.85 16.72
212 5.2110 268.67 268.78 16.46
213 5.2120 306.46 268.71 17.70
214 5.2130 272.98 268.63 16.86
215 5.2140 295.54 268.56 17.33
216 5.2150 282.49 268.49 16.85
217 5.2160 279.39 268.42 16.69
218 5.2170 271.76 268.35 16.43
219 5.2180 277.27 268.28 16.70
220 5.2190 273.24 268.20 16.51
221 5.2200 279.80 268.13 16.75
222 5.2210 280.21 268.06 16.78
223 5.2220 299.28 267.99 17.44
224 5.2230 279.61 267.92 16.96
225 5.2240 277.82 267.85 16.74
226 5.2250 286.47 267.77 16.87
227 5.2260 297.04 267.70 17.16
228 5.2270 289.96 267.63 16.97
229 5.2280 277.66 267.56 16.65
230 5.2290 293.61 267.49 17.12
231 5.2300 293.33 267.42 17.04
232 5.2310 304.90 267.35 17.51
233 5.2320 262.54 267.28 16.31
234 5.2330 275.61 267.20 16.77
235 5.2340 287.64 267.13 17.07
236 5.2350 274.01 267.06 16.57
237 5.2360 273.13 266.99 16.49
238 5.2370 265.09 266.92 16.25
239 5.2380 292.68 266.85 17.23
240 5.2390 269.26 266.78 16.42
241 5.2400 263.31 266.71 16.22
242 5.2410 285.98 266.63 16.99
243 5.2420 275.04 266.56 16.76
244 5.2430 287.09 266.49 17.20
245 5.2440 288.98 266.42 17.09
246 5.2450 290.29 266.35 17.03
247 5.2460 284.40 266.28 16.79
248 5.2470 264.10 266.21 16.21
249 5.2480 270.54 266.14 16.49
250 5.2490 261.36 266.07 16.08
251 5.2500 266.36 265.99 16.33
252 5.2510 293.00 265.92 17.13
253 5.2520 260.79 265.85 16.28
254 5.2530 276.26 265.78 16.80
255 5.2540 291.15 265.71 17.15
256 5.2550 293.29 265.64 17.07
257 5.2560 274.57 265.57 16.50
258 5.2570 290.83 265.50 17.01
259 5.2580 282.08 265.43 16.87
260 5.2590 261.78 265.36 16.19
261 5.2600 263.67 265.29 16.25
262 5.2610 280.89 265.21 16.82
263 5.2620 271.65 265.14 16.71
264 5.2630 261.52 265.07 16.44
265 5.2640 273.99 265.00 16.68
266 5.2650 259.29 264.93 16.13
267 5.2660 277.55 264.86 16.59
268 5.2670 277.43 264.79 16.65
269 5.2680 288.58 264.72 17.01
270 5.2690 275.93 264.65 16.61
271 5.2700 279.40 264.58 16.76
272 5.2710 291.69 264.51 17.09
273 5.2720 305.82 264.44 17.68
274 5.2730 282.67 264.37 17.01
275 5.2740 298.16 264.30 17.38
276 5.2750 295.36 264.23 17.20
277 5.2760 280.52 264.15 16.69
278 5.2770 282.06 264.08 16.79
279 5.2780 304.57 264.01 17.53
280 5.2790 285.47 263.94 16.89
281 5.2800 289.76 263.87 17.02
282 5.2810 319.11 263.80 17.85
283 5.2820 288.32 263.73 17.21
284 5.2830 297.33 263.66 17.49
285 5.2840 296.41 263.59 17.34
286 5.2850 296.75 263.52 17.23
287 5.2860 276.12 263.45 16.62
288 5.2870 267.43 263.38 16.40
289 5.2880 295.61 263.31 17.28
290 5.2890 278.03 263.24 16.70
291 5.2900 297.59 263.17 17.31
292 5.2910 256.60 263.10 16.07
293 5.2920 262.30 263.03 16.32
294 5.2930 298.57 262.96 17.49
295 5.2940 303.03 262.89 17.53
296 5.2950 254.02 262.82 15.95
297 5.2960 282.29 262.75 16.73
298 5.2970 280.63 262.68 16.81
299 5.2980 222.81 262.61 15.05
300 5.2990 275.76 262.54 16.55
301 5.3000 287.08 262.47 16.96
302 5.3010 277.25 262.40 16.68
303 5.3020 299.23 262.33 17.48
304 5.3030 267.52 262.26 16.55
305 5.3040 263.12 262.19 16.28
306 5.3050 291.55 262.12 17.08
307 5.3060 283.25 262.05 16.76
308 5.3070 275.89 261.98 16.58
309 5.3080 272.79 261.91 16.57
310 5.3090 264.42 261.84 16.22
311 5.3100 294.46 261.77 17.18
312 5.3110 295.14 261.70 17.28
313 5.3120 278.86 261.63 16.90
314 5.3130 248.39 261.56 16.00
315 5.3140 263.02 261.49 16.42
316 5.3150 277.26 261.42 16.70
317 5.3160 258.50 261.35 16.05
318 5.3170 288.50 261.28 16.98
319 5.3180 262.40 261.21 16.30
320 5.3190 265.91 261.14 16.32
321 5.3200 267.07 261.07 16.40
322 5.3210 265.54 261.00 16.36
323 5.3220 299.58 260.93 17.58
324 5.3230 289.72 260.86 17.27
325 5.3240 268.68 260.79 16.48
326 5.3250 288.48 260.72 17.02
327 5.3260 283.18 260.65 16.75
328 5.3270 281.23 260.58 16.76
329 5.3280 299.16 260.52 17.26
330 5.3290 290.32 260.45 16.99
331 5.3300 258.66 260.38 16.08
332 5.3310 306.37 260.31 17.52
333 5.3320 270.85 260.24 16.64
334 5.3330 292.63 260.17 17.34
335 5.3340 300.89 260.10 17.53
336 5.3350 293.37 260.03 17.20
337 5.3360 284.61 259.96 16.90
338 5.3370 262.32 259.89 16.23
339 5.3380 263.95 259.82 16.32
340 5.3390 272.74 259.75 16.57
341 5.3400 274.41 259.68 16.62
342 5.3410 269.83 259.61 16.48
343 5.3420 286.25 259.54 17.06
344 5.3430 272.05 259.47 16.78
345 5.3440 294.40 259.40 17.29
346 5.3450 313.13 259.33 17.75
347 5.3460 299.49 259.27 17.26
348 5.3470 273.57 259.20 16.55
349 5.3480 297.48 259.13 17.32
350 5.3490 282.09 259.06 16.83
351 5.3500 276.19 258.99 16.61
352 5.3510 265.49 258.92 16.34
353 5.3520 257.91 258.85 16.25
354 5.3530 289.26 258.78 17.29
355 5.3540 292.45 258.71 17.24
356 5.3550 297.97 258.64 17.24
357 5.3560 298.02 258.58 17.17
358 5.3570 296.03 258.51 17.24
359 5.3580 295.18 258.44 17.25
360 5.3590 280.28 258.37 16.82
361 5.3600 277.54 258.30 16.73
362 5.3610 279.07 258.23 16.83
363 5.3620 286.91 258.16 17.15
364 5.3630 281.31 258.09 17.08
365 5.3640 279.14 258.02 16.90
366 5.3650 267.38 257.95 16.44
367 5.3660 267.24 257.89 16.28
368 5.3670 319.60 257.82 17.87
369 5.3680 266.22 257.75 16.43
370 5.3690 318.25 257.68 17.92
371 5.3700 323.23 257.61 18.07
372 5.3710 317.67 257.54 17.91
373 5.3720 268.73 257.47 16.67
374 5.3730 279.46 257.40 16.97
375 5.3740 311.43 257.34 17.77
376 5.3750 262.15 257.27 16.22
377 5.3760 290.92 257.20 17.01
378 5.3770 284.20 257.13 16.86
379 5.3780 288.91 257.06 17.09
380 5.3790 282.68 256.99 16.79
381 5.3800 257.50 256.92 16.05
382 5.3810 266.35 256.86 16.41
383 5.3820 258.84 256.79 16.29
384 5.3830 277.05 256.72 16.90
385 5.3840 279.91 256.65 16.90
386 5.3850 265.81 256.58 16.40
387 5.3860 308.03 256.51 17.55
388 5.3870 278.66 256.44 16.74
389 5.3880 316.01 256.38 17.91
390 5.3890 291.06 256.31 17.08
391 5.3900 323.53 256.24 18.02
392 5.3910 306.51 256.17 17.61
393 5.3920 307.30 256.10 17.77
394 5.3930 313.31 256.03 18.01
395 5.3940 289.17 255.97 17.17
396 5.3950 293.75 255.90 17.21
397 5.3960 273.91 255.83 16.51
398 5.3970 273.74 255.76 16.61
399 5.3980 284.23 255.69 16.92
400 5.3990 300.34 255.62 17.34
401 5.4000 285.04 255.56 16.85
402 5.4010 290.04 255.49 17.09
403 5.4020 281.01 255.42 16.99
404 5.4030 287.31 255.35 17.20
405 5.4040 314.94 255.28 17.84
406 5.4050 293.75 255.22 17.16
407 5.4060 260.89 255.15 16.11
408 5.4070 296.07 255.08 17.20
409 5.4080 283.91 255.01 16.95
410 5.4090 277.31 254.94 16.68
411 5.4100 310.18 254.88 17.67
412 5.4110 271.27 254.81 16.54
413 5.4120 283.58 254.74 17.09
414 5.4130 310.23 254.67 17.90
415 5.4140 287.36 254.60 17.16
416 5.4150 294.59 254.54 17.21
417 5.4160 273.40 254.47 16.54
418 5.4170 267.78 254.40 16.40
419 5.4180 309.89 254.33 17.70
420 5.4190 287.60 254.27 17.01
421 5.4200 295.46 254.20 17.27
422 5.4210 256.49 254.13 16.03
423 5.4220 270.40 254.06 16.69
424 5.4230 295.99 253.99 17.49
425 5.4240 298.83 253.93 17.43
426 5.4250 262.95 253.86 16.22
427 5.4260 278.10 253.79 16.66
428 5.4270 254.50 253.73 15.94
429 5.4280 284.56 253.66 16.92
430 5.4290 269.65 253.59 16.43
431 5.4300 279.69 253.52 16.74
432 5.4310 275.49 253.46 16.67
433 5.4320 292.52 253.39 17.33
434 5.4330 280.45 253.32 16.92
435 5.4340 272.67 253.25 16.65
436 5.4350 284.20 253.19 16.89
437 5.4360 276.11 253.12 16.63
438 5.4370 278.67 253.05 16.77
439 5.4380 274.83 252.99 16.68
440 5.4390 293.72 252.92 17.19
441 5.4400 294.74 252.85 17.19
442 5.4410 271.49 252.79 16.56
443 5.4420 291.01 252.72 17.26
444 5.4430 277.70 252.65 16.90
445 5.4440 294.19 252.59 17.30
446 5.4450 284.74 252.52 16.90
447 5.4460 289.33 252.46 17.03
448 5.4470 293.74 252.39 17.14
449 5.4480 306.27 252.32 17.53
450 5.4490 283.62 252.26 16.89
451 5.4500 251.24 252.19 15.86
452 5.4510 278.57 252.13 16.68
453 5.4520 314.06 252.06 17.92
454 5.4530 306.24 252.00 17.70
455 5.4540 287.13 251.94 17.05
456 5.4550 294.51 251.88 17.17
457 5.4560 284.06 251.81 16.83
458 5.4570 278.63 251.75 16.66
459 5.4580 300.91 251.69 17.40
460 5.4590 290.33 251.64 17.09
461 5.4600 281.65 251.58 16.84
462 5.4610 284.46 251.53 16.95
463 5.4620 269.86 251.48 16.69
464 5.4630 301.62 251.44 17.62
465 5.4640 305.47 251.42 17.57
466 5.4650 310.04 251.43 17.63
467 5.4660 307.73 251.52 17.49
468 5.4670 288.54 251.78 17.04
469 5.4680 277.76 252.34 16.72
470 5.4690 313.65 253.30 17.73
471 5.4700 309.47 254.60 17.61
472 5.4710 307.14 255.95 17.53
473 5.4720 312.44 256.75 17.86
474 5.4730 280.39 256.46 16.95
475 5.4740 277.45 255.24 16.81
476 5.4750 300.81 253.72 17.32
477 5.4760 289.31 252.39 16.94
478 5.4770 288.28 251.46 16.92
479 5.4780 298.01 250.89 17.34
480 5.4790 287.15 250.58 16.94
481 5.4800 284.55 250.39 16.81
482 5.4810 298.44 250.26 17.31
483 5.4820 271.32 250.16 16.65
484 5.4830 300.13 250.07 17.60
485 5.4840 276.36 249.99 16.76
486 5.4850 283.81 249.90 16.94
487 5.4860 284.72 249.83 16.83
488 5.4870 288.09 249.75 17.00
489 5.4880 286.17 249.68 17.02
490 5.4890 317.56 249.60 17.81
491 5.4900 308.21 249.53 17.58
492 5.4910 273.16 249.46 16.56
493 5.4920 264.79 249.39 16.50
494 5.4930 291.66 249.32 17.35
495 5.4940 288.60 249.25 17.15
496 5.4950 275.49 249.18 16.64
497 5.4960 280.68 249.11 16.69
498 5.4970 297.06 249.04 17.23
499 5.4980 324.26 248.98 18.12
500 5.4990 287.25 248.91 16.97
501 5.5000 283.58 248.84 16.82
502 5.5010 257.64 248.77 16.12
503 5.5020 305.26 248.71 17.71
504 5.5030 302.90 248.64 17.61
505 5.5040 296.77 248.57 17.37
506 5.5050 288.40 248.50 17.05
507 5.5060 265.25 248.44 16.28
508 5.5070 272.45 248.37 16.55
509 5.5080 304.22 248.30 17.51
510 5.5090 260.49 248.24 16.21
511 5.5100 305.41 248.17 17.51
512 5.5110 265.89 248.10 16.42
513 5.5120 316.17 248.04 18.00
514 5.5130 263.23 247.97 16.42
515 5.5140 283.51 247.90 16.95
516 5.5150 286.56 247.84 16.98
517 5.5160 293.31 247.77 17.06
518 5.5170 269.22 247.70 16.43
519 5.5180 323.42 247.63 18.13
520 5.5190 309.61 247.57 17.63
521 5.5200 286.88 247.50 16.91
522 5.5210 291.97 247.44 17.17
523 5.5220 281.65 247.37 16.91
524 5.5230 301.59 247.30 17.56
525 5.5240 269.55 247.24 16.54
526 5.5250 295.36 247.17 17.20
527 5.5260 266.57 247.10 16.30
528 5.5270 298.13 247.04 17.27
529 5.5280 298.58 246.97 17.28
530 5.5290 292.29 246.91 17.06
531 5.5300 267.18 246.84 16.34
532 5.5310 275.89 246.77 16.63
533 5.5320 293.86 246.71 17.34
534 5.5330 261.38 246.64 16.39
535 5.5340 260.17 246.58 16.33
536 5.5350 274.23 246.51 16.62
537 5.5360 296.39 246.45 17.17
538 5.5370 276.67 246.38 16.60
539 5.5380 288.61 246.31 17.05
540 5.5390 287.57 246.25 17.02
541 5.5400 277.33 246.18 16.66
542 5.5410 316.26 246.12 17.88
543 5.5420 279.13 246.05 16.96
544 5.5430 300.81 245.98 17.61
545 5.5440 291.28 245.92 17.16
546 5.5450 280.44 245.85 16.70
547 5.5460 289.28 245.79 16.96
548 5.5470 335.88 245.72 18.35
549 5.5480 293.37 245.66 17.21
550 5.5490 284.02 245.59 16.90
551 5.5500 305.04 245.52 17.48
552 5.5510 288.38 245.46 17.10
553 5.5520 294.58 245.39 17.35
554 5.5530 258.94 245.33 16.28
555 5.5540 260.62 245.26 16.26
556 5.5550 303.91 245.20 17.40
557 5.5560 286.72 245.13 16.93
558 5.5570 272.74 245.07 16.52
559 5.5580 300.13 245.00 17.46
560 5.5590 250.41 244.93 15.92
561 5.5600 269.08 244.87 16.41
562 5.5610 272.83 244.80 16.56
563 5.5620 260.49 244.74 16.30
564 5.5630 280.29 244.67 16.95
565 5.5640 282.11 244.61 16.95
566 5.5650 299.43 244.54 17.34
567 5.5660 292.93 244.48 17.17
568 5.5670 277.98 244.41 16.76
569 5.5680 261.24 244.35 16.25
570 5.5690 280.93 244.28 16.76
571 5.5700 291.48 244.22 17.04
572 5.5710 290.42 244.15 17.04
573 5.5720 289.97 244.09 17.28
574 5.5730 277.20 244.02 16.94
575 5.5740 276.69 243.96 16.83
576 5.5750 293.57 243.89 17.17
577 5.5760 265.74 243.83 16.31
578 5.5770 293.91 243.76 17.10
579 5.5780 302.07 243.70 17.38
580 5.5790 288.11 243.63 16.93
581 5.5800 295.73 243.57 17.18
582 5.5810 281.53 243.50 16.92
583 5.5820 273.62 243.44 16.75
584 5.5830 310.48 243.37 17.93
585 5.5840 315.40 243.31 18.00
586 5.5850 278.60 243.24 16.73
587 5.5860 287.56 243.18 16.93
588 5.5870 276.05 243.11 16.61
589 5.5880 275.24 243.05 16.61
590 5.5890 317.59 242.98 17.89
591 5.5900 299.17 242.92 17.37
592 5.5910 289.61 242.85 17.14
593 5.5920 273.40 242.79 16.77
594 5.5930 276.64 242.72 16.81
595 5.5940 302.04 242.66 17.52
596 5.5950 299.40 242.59 17.29
597 5.5960 295.04 242.53 17.14
598 5.5970 249.28 242.46 15.82
599 5.5980 269.80 242.40 16.49
600 5.5990 295.33 242.33 17.27
601 5.6000 275.81 242.27 16.59
602 5.6010 273.88 242.20 16.58
603 5.6020 286.16 242.14 17.03
604 5.6030 274.46 242.07 16.71
605 5.6040 263.04 242.01 16.33
606 5.6050 269.48 241.95 16.45
607 5.6060 284.10 241.88 16.85
608 5.6070 286.07 241.82 16.97
609 5.6080 294.30 241.75 17.24
610 5.6090 270.34 241.69 16.48
611 5.6100 290.39 241.62 17.03
612 5.6110 311.37 241.56 17.67
613 5.6120 283.50 241.49 17.00
614 5.6130 281.90 241.43 17.01
615 5.6140 274.60 241.37 16.69
616 5.6150 270.73 241.30 16.54
617 5.6160 284.23 241.24 16.88
618 5.6170 287.74 241.17 16.98
619 5.6180 286.64 241.11 17.05
620 5.6190 262.20 241.04 16.15
621 5.6200 294.51 240.98 17.22
622 5.6210 261.51 240.91 16.22
623 5.6220 282.87 240.85 17.06
624 5.6230 313.05 240.79 17.99
625 5.6240 322.36 240.72 18.11
626 5.6250 272.85 240.66 16.54
627 5.6260 295.10 240.59 17.11
628 5.6270 283.35 240.53 16.82
629 5.6280 255.66 240.46 16.01
630 5.6290 272.42 240.40 16.54
631 5.6300 277.39 240.34 16.72
632 5.6310 278.78 240.27 16.81
633 5.6320 281.76 240.21 17.03
634 5.6330 280.45 240.15 17.00
635 5.6340 285.01 240.08 17.06
636 5.6350 279.00 240.02 16.70
637 5.6360 283.59 239.95 16.77
638 5.6370 300.27 239.89 17.32
639 5.6380 300.90 239.82 17.46
640 5.6390 332.27 239.76 18.24
641 5.6400 305.25 239.70 17.50
642 5.6410 297.84 239.63 17.39
643 5.6420 300.53 239.57 17.53
644 5.6430 279.82 239.50 16.98
645 5.6440 287.45 239.44 17.11
646 5.6450 283.84 239.38 16.83
647 5.6460 303.71 239.31 17.46
648 5.6470 305.11 239.25 17.54
649 5.6480 325.40 239.18 18.14
650 5.6490 281.57 239.12 16.83
651 5.6500 305.18 239.06 17.42
652 5.6510 293.55 238.99 17.20
653 5.6520 291.47 238.93 17.26
654 5.6530 251.08 238.87 16.06
655 5.6540 276.97 238.80 16.77
656 5.6550 295.98 238.74 17.32
657 5.6560 287.61 238.68 16.93
658 5.6570 270.91 238.61 16.51
659 5.6580 268.81 238.55 16.45
660 5.6590 304.48 238.48 17.49
661 5.6600 288.62 238.42 17.05
662 5.6610 281.58 238.36 16.81
663 5.6620 266.80 238.29 16.52
664 5.6630 258.57 238.23 16.33
665 5.6640 295.98 238.17 17.33
666 5.6650 256.83 238.10 16.07
667 5.6660 278.27 238.04 16.64
668 5.6670 267.99 237.98 16.43
669 5.6680 280.52 237.91 16.76
670 5.6690 295.81 237.85 17.20
671 5.6700 288.13 237.79 16.98
672 5.6710 290.69 237.72 17.12
673 5.6720 295.71 237.66 17.37
674 5.6730 281.03 237.60 17.01
675 5.6740 255.38 237.53 16.10
676 5.6750 272.66 237.47 16.50
677 5.6760 289.54 237.40 16.93
678 5.6770 274.61 237.34 16.55
679 5.6780 276.07 237.28 16.66
680 5.6790 263.87 237.21 16.23
681 5.6800 259.66 237.15 16.10
682 5.6810 287.31 237.09 17.03
683 5.6820 298.02 237.02 17.47
684 5.6830 291.15 236.96 17.38
685 5.6840 291.73 236.90 17.20
686 5.6850 277.51 236.84 16.72
687 5.6860 254.16 236.77 15.89
688 5.6870 262.06 236.71 16.20
689 5.6880 316.55 236.65 17.86
690 5.6890 271.27 236.58 16.55
691 5.6900 288.08 236.52 16.97
692 5.6910 272.24 236.46 16.64
693 5.6920 285.60 236.39 17.02
694 5.6930 255.38 236.33 16.19
695 5.6940 273.90 236.27 16.62
696 5.6950 273.23 236.21 16.55
697 5.6960 282.10 236.14 16.74
698 5.6970 281.57 236.08 16.84
699 5.6980 276.30 236.02 16.67
700 5.6990 283.64 235.95 16.87
701 5.7000 292.24 235.89 17.11
702 5.7010 285.38 235.83 16.93
703 5.7020 285.19 235.76 17.02
704 5.7030 278.89 235.70 16.95
705 5.7040 284.08 235.64 16.95
706 5.7050 268.88 235.58 16.47
707 5.7060 308.31 235.51 17.54
708 5.7070 264.27 235.45 16.31
709 5.7080 294.00 235.39 17.20
710 5.7090 318.19 235.32 17.91
711 5.7100 264.42 235.26 16.23
712 5.7110 276.25 235.20 16.74
713 5.7120 250.25 235.14 16.00
714 5.7130 270.55 235.07 16.72
715 5.7140 266.17 235.01 16.47
716 5.7150 262.60 234.95 16.28
717 5.7160 273.08 234.89 16.49
718 5.7170 274.13 234.82 16.50
719 5.7180 249.63 234.76 15.88
720 5.7190 287.86 234.70 16.97
721 5.7200 297.93 234.64 17.28
722 5.7210 289.94 234.57 17.15
723 5.7220 291.63 234.51 17.31
724 5.7230 270.74 234.45 16.74
725 5.7240 281.51 234.39 16.88
726 5.7250 282.30 234.32 16.78
727 5.7260 276.93 234.26 16.52
728 5.7270 289.94 234.20 17.05
729 5.7280 264.57 234.14 16.31
730 5.7290 286.95 234.07 16.97
731 5.7300 259.51 234.01 16.15
732 5.7310 255.41 233.95 16.03
733 5.7320 280.17 233.89 16.97
734 5.7330 294.73 233.82 17.38
735 5.7340 292.06 233.76 17.23
736 5.7350 299.99 233.70 17.32
737 5.7360 281.10 233.64 16.68
738 5.7370 279.60 233.57 16.72
739 5.7380 256.58 233.51 16.12
740 5.7390 255.52 233.45 16.04
741 5.7400 294.76 233.39 17.20
742 5.7410 279.88 233.33 16.85
743 5.7420 282.37 233.26 16.97
744 5.7430 260.30 233.20 16.43
745 5.7440 277.87 233.14 16.74
746 5.7450 267.05 233.08 16.45
747 5.7460 290.52 233.01 17.05
748 5.7470 277.24 232.95 16.73
749 5.7480 269.70 232.89 16.52
750 5.7490 259.51 232.83 16.09
751 5.7500 269.67 232.77 16.37
752 5.7510 286.42 232.71 16.99
753 5.7520 276.16 232.64 16.78
754 5.7530 273.99 232.58 16.78
755 5.7540 282.95 232.52 16.90
756 5.7550 301.16 232.46 17.43
757 5.7560 288.55 232.40 16.99
758 5.7570 272.40 232.33 16.52
759 5.7580 271.24 232.27 16.52
760 5.7590 265.75 232.21 16.40
761 5.7600 268.43 232.15 16.35
762 5.7610 275.22 232.09 16.67
763 5.7620 268.56 232.02 16.60
764 5.7630 317.18 231.96 18.15
765 5.7640 278.23 231.90 16.83
766 5.7650 277.93 231.84 16.76
767 5.7660 259.52 231.78 16.06
768 5.7670 293.52 231.71 17.22
769 5.7680 258.65 231.65 16.17
770 5.7690 242.70 231.59 15.66
771 5.7700 271.89 231.53 16.54
772 5.7710 299.46 231.47 17.42
773 5.7720 287.87 231.41 17.15
774 5.7730 263.55 231.34 16.47
775 5.7740 275.37 231.28 16.68
776 5.7750 276.12 231.22 16.68
777 5.7760 257.03 231.16 16.02
778 5.7770 297.05 231.10 17.24
779 5.7780 276.46 231.04 16.72
780 5.7790 284.20 230.98 16.90
781 5.7800 272.24 230.91 16.49
782 5.7810 297.80 230.85 17.38
783 5.7820 256.82 230.79 16.22
784 5.7830 275.99 230.73 16.90
785 5.7840 280.60 230.67 16.85
786 5.7850 262.83 230.61 16.26
787 5.7860 287.69 230.54 16.98
788 5.7870 284.40 230.48 16.89
789 5.7880 262.01 230.42 16.22
790 5.7890 254.69 230.36 16.02
791 5.7900 275.55 230.30 16.65
792 5.7910 279.62 230.24 16.84
793 5.7920 297.49 230.18 17.43
794 5.7930 279.14 230.12 17.01
795 5.7940 264.62 230.05 16.51
796 5.7950 257.20 229.99 16.17
797 5.7960 240.03 229.93 15.49
798 5.7970 261.33 229.87 16.21
799 5.7980 266.76 229.81 16.39
800 5.7990 280.94 229.75 16.77
801 5.8000 265.86 229.69 16.25
802 5.8010 256.82 229.62 16.06
803 5.8020 234.47 229.56 15.51
804 5.8030 280.21 229.50 17.03
805 5.8040 282.55 229.44 16.94
806 5.8050 260.89 229.38 16.22
807 5.8060 281.26 229.32 16.79
808 5.8070 266.33 229.26 16.36
809 5.8080 296.32 229.20 17.35
810 5.8090 259.89 229.14 16.13
811 5.8100 314.74 229.07 17.75
812 5.8110 263.20 229.01 16.34
813 5.8120 255.79 228.95 16.20
814 5.8130 253.29 228.89 16.17
815 5.8140 275.96 228.83 16.76
816 5.8150 272.40 228.77 16.58
817 5.8160 291.03 228.71 17.12
818 5.8170 253.73 228.65 15.99
819 5.8180 271.39 228.59 16.62
820 5.8190 297.97 228.53 17.37
821 5.8200 250.35 228.47 15.91
822 5.8210 261.14 228.40 16.23
823 5.8220 289.28 228.34 17.20
824 5.8230 256.99 228.28 16.22
825 5.8240 262.50 228.22 16.29
826 5.8250 268.25 228.16 16.38
827 5.8260 270.30 228.10 16.46
828 5.8270 270.57 228.04 16.51
829 5.8280 275.39 227.98 16.74
830 5.8290 270.42 227.92 16.54
831 5.8300 277.76 227.86 16.74
832 5.8310 256.39 227.80 16.11
833 5.8320 272.72 227.74 16.69
834 5.8330 291.11 227.68 17.31
835 5.8340 262.90 227.62 16.34
836 5.8350 289.12 227.55 17.10
837 5.8360 288.20 227.49 16.97
838 5.8370 254.56 227.43 16.00
839 5.8380 288.85 227.37 17.10
840 5.8390 258.31 227.31 16.15
841 5.8400 270.69 227.25 16.50
842 5.8410 248.69 227.19 15.85
843 5.8420 270.07 227.13 16.66
844 5.8430 247.93 227.07 16.04
845 5.8440 261.71 227.01 16.31
846 5.8450 281.02 226.95 16.86
847 5.8460 263.85 226.89 16.21
848 5.8470 278.62 226.83 16.68
849 5.8480 274.48 226.77 16.63
850 5.8490 259.84 226.71 16.15
851 5.8500 234.26 226.65 15.35
852 5.8510 277.37 226.59 16.80
853 5.8520 266.95 226.53 16.56
854 5.8530 241.33 226.47 15.76
855 5.8540 269.70 226.41 16.58
856 5.8550 236.50 226.35 15.42
857 5.8560 307.95 226.29 17.50
858 5.8570 269.09 226.23 16.43
859 5.8580 285.08 226.17 16.98
860 5.8590 276.23 226.11 16.68
861 5.8600 267.71 226.05 16.45
862 5.8610 263.08 225.99 16.26
863 5.8620 253.34 225.93 16.18
864 5.8630 264.79 225.87 16.57
865 5.8640 255.86 225.80 16.10
866 5.8650 263.93 225.74 16.27
867 5.8660 263.78 225.68 16.24
868 5.8670 284.66 225.62 16.90
869 5.8680 269.98 225.57 16.58
870 5.8690 252.94 225.51 16.00
871 5.8700 259.95 225.45 16.17
872 5.8710 261.97 225.38 16.25
873 5.8720 280.52 225.32 16.91
874 5.8730 258.43 225.26 16.28
875 5.8740 238.04 225.21 15.54
876 5.8750 254.72 225.15 16.06
877 5.8760 254.53 225.09 15.97
878 5.8770 255.05 225.02 16.06
879 5.8780 276.92 224.96 16.70
880 5.8790 274.07 224.90 16.61
881 5.8800 270.86 224.85 16.48
882 5.8810 298.38 224.79 17.38
883 5.8820 258.87 224.73 16.30
884 5.8830 270.76 224.67 16.71
885 5.8840 281.05 224.61 16.92
886 5.8850 260.52 224.55 16.21
887 5.8860 257.40 224.49 16.08
888 5.8870 289.98 224.43 17.08
889 5.8880 270.14 224.37 16.54
890 5.8890 249.74 224.31 15.84
891 5.8900 279.93 224.25 16.75
892 5.8910 271.90 224.19 16.63
893 5.8920 272.88 224.13 16.73
894 5.8930 248.39 224.07 16.05
895 5.8940 256.42 224.01 16.16
896 5.8950 246.75 223.95 15.76
897 5.8960 257.30 223.89 16.01
898 5.8970 257.27 223.83 16.01
899 5.8980 242.77 223.77 15.63
900 5.8990 264.44 223.71 16.33
901 5.9000 260.70 223.65 16.21
902 5.9010 263.09 223.59 16.34
903 5.9020 274.31 223.53 16.76
904 5.9030 270.23 223.47 16.67
905 5.9040 257.81 223.41 16.17
906 5.9050 281.84 223.35 16.80
907 5.9060 285.84 223.30 16.85
908 5.9070 244.55 223.24 15.70
909 5.9080 247.86 223.18 15.85
910 5.9090 252.63 223.12 15.97
911 5.9100 261.75 223.06 16.19
912 5.9110 269.66 223.00 16.52
913 5.9120 288.78 222.94 17.16
914 5.9130 244.48 222.88 15.89
915 5.9140 271.15 222.82 16.63
916 5.9150 250.41 222.76 15.86
917 5.9160 267.70 222.70 16.37
918 5.9170 278.63 222.64 16.73
919 5.9180 286.16 222.58 17.03
920 5.9190 263.30 222.52 16.26
921 5.9200 272.42 222.47 16.53
922 5.9210 271.62 222.41 16.51
923 5.9220 263.70 222.35 16.38
924 5.9230 272.05 222.29 16.75
925 5.9240 302.26 222.23 17.50
926 5.9250 263.95 222.17 16.34
927 5.9260 245.65 222.11 15.65
928 5.9270 239.49 222.05 15.52
929 5.9280 277.25 221.99 16.71
930 5.9290 280.48 221.93 16.80
931 5.9300 261.33 221.88 16.16
932 5.9310 264.58 221.82 16.35
933 5.9320 268.91 221.76 16.60
934 5.9330 264.48 221.70 16.57
935 5.9340 263.71 221.64 16.38
936 5.9350 266.38 221.58 16.37
937 5.9360 256.59 221.52 16.03
938 5.9370 255.97 221.46 16.00
939 5.9380 265.90 221.40 16.39
940 5.9390 253.68 221.35 15.97
941 5.9400 269.93 221.29 16.44
942 5.9410 249.14 221.23 15.88
943 5.9420 260.92 221.17 16.39
944 5.9430 256.05 221.11 16.27
945 5.9440 279.31 221.05 16.86
946 5.9450 267.21 220.99 16.38
947 5.9460 241.96 220.93 15.48
948 5.9470 261.82 220.88 16.15
949 5.9480 259.72 220.82 16.14
950 5.9490 281.95 220.76 16.87
951 5.9500 288.61 220.70 17.02
952 5.9510 245.18 220.64 15.79
953 5.9520 261.74 220.58 16.39
954 5.9530 261.21 220.52 16.38
955 5.9540 275.58 220.46 16.72
956 5.9550 290.26 220.40 17.04
957 5.9560 270.27 220.35 16.38
958 5.9570 247.66 220.29 15.76
959 5.9580 259.51 220.23 16.18
960 5.9590 248.04 220.17 15.80
961 5.9600 268.35 220.11 16.46
962 5.9610 291.04 220.05 17.13
963 5.9620 273.15 220.00 16.79
964 5.9630 255.61 219.94 16.22
965 5.9640 257.96 219.88 16.23
966 5.9650 253.89 219.82 16.03
967 5.9660 263.43 219.76 16.22
968 5.9670 280.90 219.70 16.87
969 5.9680 231.60 219.65 15.31
970 5.9690 279.68 219.59 16.70
971 5.9700 268.69 219.53 16.38
972 5.9710 262.38 219.47 16.25
973 5.9720 275.13 219.41 16.80
974 5.9730 241.98 219.35 15.79
975 5.9740 243.74 219.29 15.75
976 5.9750 267.26 219.24 16.36
977 5.9760 252.44 219.18 15.90
978 5.9770 263.04 219.12 16.20
979 5.9780 272.72 219.06 16.59
980 5.9790 281.23 219.00 16.74
981 5.9800 267.22 218.95 16.43
982 5.9810 248.63 218.89 15.84
983 5.9820 294.49 218.83 17.38
984 5.9830 277.53 218.77 16.88
985 5.9840 275.29 218.71 16.78
986 5.9850 274.30 218.66 16.66
987 5.9860 269.66 218.60 16.41
988 5.9870 255.97 218.54 16.06
989 5.9880 266.14 218.48 16.41
990 5.9890 287.42 218.42 17.05
991 5.9900 271.42 218.37 16.50
992 5.9910 261.86 218.31 16.35
993 5.9920 262.38 218.25 16.42
994 5.9930 279.01 218.19 17.01
995 5.9940 251.57 218.13 15.95
996 5.9950 273.21 218.08 16.57
997 5.9960 241.20 218.02 15.52
998 5.9970 254.57 217.96 15.99
999 5.9980 252.45 217.90 15.97
1000 5.9990 247.52 217.84 15.75
1001 6.0000 240.66 217.79 15.61
1002 6.0010 249.05 217.73 15.79
1003 6.0020 259.62 217.67 16.29
1004 6.0030 252.95 217.61 16.10
1005 6.0040 237.66 217.55 15.56
1006 6.0050 251.96 217.50 15.88
1007 6.0060 259.38 217.44 16.09
1008 6.0070 233.50 217.38 15.30
1009 6.0080 295.77 217.32 17.37
1010 6.0090 246.80 217.27 15.78
1011 6.0100 232.99 217.21 15.33
1012 6.0110 253.32 217.43 16.00
1013 6.0120 253.24 217.87 16.17
1014 6.0130 251.40 217.82 16.13
1015 6.0140 250.87 217.77 16.04
1016 6.0150 258.41 217.72 16.14
1017 6.0160 254.69 217.68 16.06
1018 6.0170 255.12 217.63 16.00
1019 6.0180 292.15 217.58 17.23
1020 6.0190 270.64 217.53 16.48
1021 6.0200 273.81 217.49 16.57
1022 6.0210 284.70 217.44 16.96
1023 6.0220 276.42 217.39 16.78
1024 6.0230 221.92 217.35 15.15
1025 6.0240 264.99 217.30 16.48
1026 6.0250 275.83 217.25 16.68
1027 6.0260 258.07 217.21 16.03
1028 6.0270 263.18 217.16 16.27
1029 6.0280 273.66 217.12 16.66
1030 6.0290 255.01 217.07 16.02
1031 6.0300 239.24 217.03 15.46
1032 6.0310 264.68 216.98 16.39
1033 6.0320 278.27 216.94 16.99
1034 6.0330 252.48 216.90 16.18
1035 6.0340 252.02 216.85 16.05
1036 6.0350 267.07 216.81 16.41
1037 6.0360 251.79 216.76 15.96
1038 6.0370 278.54 216.72 16.77
1039 6.0380 237.60 216.68 15.55
1040 6.0390 246.30 216.64 15.78
1041 6.0400 253.26 216.60 16.05
1042 6.0410 248.61 216.55 15.86
1043 6.0420 256.66 216.51 16.22
1044 6.0430 223.47 216.47 15.12
1045 6.0440 253.40 216.43 16.04
1046 6.0450 267.74 216.39 16.35
1047 6.0460 262.51 216.35 16.20
1048 6.0470 239.62 216.32 15.46
1049 6.0480 255.35 216.28 16.09
1050 6.0490 226.10 216.24 15.14
1051 6.0500 238.17 216.20 15.42
1052 6.0510 246.83 216.16 15.82
1053 6.0520 248.85 216.13 16.03
1054 6.0530 250.12 216.09 16.09
1055 6.0540 252.28 216.05 15.97
1056 6.0550 244.92 216.02 15.64
1057 6.0560 250.38 215.98 15.87
1058 6.0570 248.77 215.95 15.82
1059 6.0580 216.23 215.92 14.83
1060 6.0590 247.68 215.88 15.79
1061 6.0600 227.29 215.85 15.16
1062 6.0610 257.51 215.82 16.09
1063 6.0620 256.61 215.79 16.31
1064 6.0630 237.28 215.76 15.62
1065 6.0640 243.52 215.73 15.83
1066 6.0650 273.18 215.70 16.60
1067 6.0660 233.58 215.67 15.25
1068 6.0670 250.55 215.64 15.84
1069 6.0680 257.51 215.62 16.12
1070 6.0690 263.69 215.59 16.27
1071 6.0700 246.90 215.57 15.68
1072 6.0710 245.31 215.54 15.70
1073 6.0720 270.73 215.52 16.73
1074 6.0730 249.23 215.49 16.02
1075 6.0740 254.95 215.47 16.15
1076 6.0750 237.04 215.45 15.43
1077 6.0760 242.14 215.43 15.55
1078 6.0770 269.97 215.42 16.43
1079 6.0780 241.49 215.40 15.63
1080 6.0790 266.34 215.38 16.31
1081 6.0800 258.07 215.37 16.19
1082 6.0810 271.37 215.35 16.55
1083 6.0820 259.55 215.34 16.29
1084 6.0830 248.12 215.33 15.97
1085 6.0840 254.15 215.32 16.11
1086 6.0850 270.80 215.32 16.43
1087 6.0860 252.94 215.31 15.88
1088 6.0870 272.60 215.30 16.55
1089 6.0880 273.93 215.30 16.70
1090 6.0890 241.86 215.30 15.58
1091 6.0900 238.96 215.30 15.49
1092 6.0910 261.14 215.30 16.23
1093 6.0920 249.31 215.31 15.97
1094 6.0930 244.28 215.31 15.78
1095 6.0940 265.47 215.32 16.39
1096 6.0950 244.57 215.33 15.66
1097 6.0960 239.79 215.35 15.45
1098 6.0970 242.77 215.36 15.58
1099 6.0980 254.50 215.38 16.04
1100 6.0990 254.21 215.40 15.94
1101 6.1000 237.14 215.43 15.43
1102 6.1010 267.87 215.45 16.41
1103 6.1020 246.83 215.49 15.83
1104 6.1030 242.84 215.52 15.80
1105 6.1040 252.17 215.56 15.98
1106 6.1050 261.28 215.60 16.20
1107 6.1060 226.85 215.64 14.99
1108 6.1070 266.34 215.69 16.31
1109 6.1080 270.20 215.74 16.48
1110 6.1090 244.47 215.80 15.62
1111 6.1100 268.11 215.86 16.41
1112 6.1110 253.33 215.93 16.03
1113 6.1120 259.63 216.01 16.35
1114 6.1130 253.78 216.08 16.20
1115 6.1140 231.16 216.17 15.30
1116 6.1150 235.74 216.26 15.39
1117 6.1160 232.15 216.36 15.19
1118 6.1170 235.21 216.46 15.28
1119 6.1180 246.24 216.58 15.64
1120 6.1190 255.96 216.70 16.03
1121 6.1200 240.48 216.83 15.55
1122 6.1210 241.25 216.97 15.57
1123 6.1220 251.06 217.12 16.02
1124 6.1230 239.12 217.27 15.66
1125 6.1240 272.27 217.45 16.64
1126 6.1250 240.16 217.63 15.49
1127 6.1260 220.46 217.82 14.75
1128 6.1270 255.21 218.03 16.01
1129 6.1280 233.99 218.26 15.35
1130 6.1290 237.38 218.50 15.42
1131 6.1300 237.34 218.76 15.40
1132 6.1310 253.60 219.04 15.97
1133 6.1320 281.71 219.33 17.02
1134 6.1330 219.86 219.65 15.00
1135 6.1340 236.26 219.99 15.44
1136 6.1350 258.38 220.37 16.11
1137 6.1360 230.40 220.76 15.25
1138 6.1370 265.92 221.19 16.33
1139 6.1380 272.59 221.65 16.59
1140 6.1390 260.65 222.15 16.19
1141 6.1400 248.54 222.69 15.78
1142 6.1410 246.28 223.27 15.74
1143 6.1420 250.80 223.90 15.96
1144 6.1430 278.88 224.59 16.89
1145 6.1440 270.92 225.34 16.58
1146 6.1450 245.53 226.15 15.66
1147 6.1460 260.95 227.03 16.10
1148 6.1470 249.60 228.00 15.81
1149 6.1480 233.16 229.06 15.34
1150 6.1490 243.96 230.22 15.61
1151 6.1500 243.59 231.50 15.59
1152 6.1510 286.66 232.91 16.95
1153 6.1520 249.70 234.48 16.03
1154 6.1530 263.58 236.21 16.40
1155 6.1540 277.98 238.14 16.77
1156 6.1550 272.01 240.29 16.46
1157 6.1560 263.15 242.71 16.24
1158 6.1570 266.86 245.43 16.33
1159 6.1580 261.19 248.51 16.23
1160 6.1590 280.13 252.00 16.80
1161 6.1600 267.93 255.99 16.46
1162 6.1610 298.00 260.58 17.40
1163 6.1620 288.82 265.88 17.22
1164 6.1630 290.69 272.04 17.28
1165 6.1640 313.94 279.27 17.91
1166 6.1650 290.81 287.82 17.04
1167 6.1660 350.86 298.02 18.71
1168 6.1670 369.36 310.32 19.14
1169 6.1680 394.03 325.34 19.94
1170 6.1690 377.66 343.91 19.39
1171 6.1700 420.02 367.32 20.49
1172 6.1710 495.39 397.68 22.35
1173 6.1720 532.24 439.41 23.38
1174 6.1730 664.44 503.13 26.10
1175 6.1740 899.04 614.57 30.26
1176 6.1750 1152.41 829.94 34.07
1177 6.1760 1502.37 1248.59 38.79
1178 6.1770 2278.38 2004.06 47.81
1179 6.1780 3275.79 3203.22 57.86
1180 6.1790 4604.13 4807.23 68.39
1181 6.1800 6356.04 6501.11 81.18
1182 6.1810 7906.53 7680.82 91.16
1183 6.1820 8003.29 7779.20 92.66
1184 6.1830 6465.73 6705.89 82.64
1185 6.1840 4446.34 5006.40 68.13
1186 6.1850 3015.60 3349.07 55.53
1187 6.1860 1990.63 2090.23 44.99
1188 6.1870 1367.03 1291.03 37.17
1189 6.1880 1081.56 848.34 33.25
1190 6.1890 809.14 623.00 28.44
1191 6.1900 677.83 507.64 26.10
1192 6.1910 546.36 442.23 23.44
1193 6.1920 463.11 399.50 21.77
1194 6.1930 432.09 368.39 21.05
1195 6.1940 401.31 344.41 20.15
1196 6.1950 342.56 325.37 18.52
1197 6.1960 327.40 309.97 18.12
1198 6.1970 319.46 297.35 17.85
1199 6.1980 309.76 286.86 17.71
1200 6.1990 319.46 278.08 17.89
1201 6.2000 273.45 270.63 16.53
1202 6.2010 298.95 264.27 17.34
1203 6.2020 260.55 258.79 16.32
1204 6.2030 267.89 254.03 16.57
1205 6.2040 251.03 249.88 16.02
1206 6.2050 269.64 246.24 16.51
1207 6.2060 267.19 243.01 16.35
1208 6.2070 254.84 240.15 16.05
1209 6.2080 289.20 237.60 17.22
1210 6.2090 246.59 235.32 15.81
1211 6.2100 246.82 233.26 15.81
1212 6.2110 242.61 231.40 15.69
1213 6.2120 261.36 229.71 16.43
1214 6.2130 254.79 228.18 16.22
1215 6.2140 285.42 226.77 17.07
1216 6.2150 275.49 225.49 16.58
1217 6.2160 252.00 224.31 15.89
1218 6.2170 248.57 223.23 15.78
1219 6.2180 235.18 222.22 15.34
1220 6.2190 244.36 221.30 15.67
1221 6.2200 230.03 220.43 15.20
1222 6.2210 254.49 219.63 16.03
1223 6.2220 224.61 218.89 15.15
1224 6.2230 228.32 218.19 15.30
1225 6.2240 227.54 217.54 15.21
1226 6.2250 245.86 216.93 15.67
1227 6.2260 245.40 216.35 15.62
1228 6.2270 231.62 215.81 15.18
1229 6.2280 220.16 215.30 14.95
1230 6.2290 240.97 214.82 15.54
1231 6.2300 249.90 214.36 15.84
1232 6.2310 256.10 213.93 16.07
1233 6.2320 247.40 213.52 15.98
1234 6.2330 242.61 213.13 15.83
1235 6.2340 231.19 212.76 15.34
1236 6.2350 238.46 212.41 15.54
1237 6.2360 227.95 212.08 15.21
1238 6.2370 210.36 211.76 14.58
1239 6.2380 237.71 211.45 15.50
1240 6.2390 212.55 211.15 14.56
1241 6.2400 231.30 210.87 15.28
1242 6.2410 241.78 210.60 15.56
1243 6.2420 238.34 210.34 15.62
1244 6.2430 218.29 210.09 14.95
1245 6.2440 235.95 209.85 15.47
1246 6.2450 231.01 209.62 15.18
1247 6.2460 232.57 209.40 15.23
1248 6.2470 206.45 209.18 14.40
1249 6.2480 243.85 208.97 15.70
1250 6.2490 214.88 208.77 14.69
1251 6.2500 229.95 208.58 15.17
1252 6.2510 224.47 208.39 14.96
1253 6.2520 232.35 208.20 15.43
1254 6.2530 217.92 208.03 14.93
1255 6.2540 241.07 207.85 15.60
1256 6.2550 239.73 207.68 15.54
1257 6.2560 224.41 207.52 15.01
1258 6.2570 252.12 207.36 15.98
1259 6.2580 235.67 207.21 15.47
1260 6.2590 245.79 207.06 15.77
1261 6.2600 238.13 206.91 15.52
1262 6.2610 224.92 206.76 15.04
1263 6.2620 241.23 206.62 15.73
1264 6.2630 229.65 206.49 15.31
1265 6.2640 189.97 206.35 13.93
1266 6.2650 206.05 206.22 14.32
1267 6.2660 236.24 206.09 15.34
1268 6.2670 245.74 205.97 15.60
1269 6.2680 239.53 205.84 15.53
1270 6.2690 228.79 205.72 15.08
1271 6.2700 240.88 205.60 15.51
1272 6.2710 245.93 205.49 15.76
1273 6.2720 234.37 205.37 15.49
1274 6.2730 242.53 205.26 15.69
1275 6.2740 211.36 205.15 14.61
1276 6.2750 222.22 205.04 14.89
1277 6.2760 223.91 204.93 14.92
1278 6.2770 217.27 204.83 14.76
1279 6.2780 207.11 204.73 14.44
1280 6.2790 251.71 204.62 15.95
1281 6.2800 224.30 204.52 15.07
1282 6.2810 233.58 204.42 15.33
1283 6.2820 211.65 204.32 14.74
1284 6.2830 202.93 204.23 14.48
1285 6.2840 229.99 204.13 15.29
1286 6.2850 233.46 204.04 15.33
1287 6.2860 235.78 203.95 15.27
1288 6.2870 218.48 203.85 14.84
1289 6.2880 218.24 203.76 14.85
1290 6.2890 232.33 203.68 15.22
1291 6.2900 216.81 203.59 14.72
1292 6.2910 236.82 203.50 15.43
1293 6.2920 243.27 203.41 15.74
1294 6.2930 223.25 203.33 15.13
1295 6.2940 217.42 203.24 14.83
1296 6.2950 237.61 203.16 15.43
1297 6.2960 208.61 203.07 14.40
1298 6.2970 236.40 202.99 15.38
1299 6.2980 244.69 202.91 15.68
1300 6.2990 233.84 202.83 15.28
1301 6.3000 233.99 202.75 15.30
1302 6.3010 230.99 202.67 15.28
1303 6.3020 217.36 202.59 14.93
1304 6.3030 241.25 202.51 15.75
1305 6.3040 208.08 202.44 14.54
1306 6.3050 218.30 202.36 14.77
1307 6.3060 228.52 202.28 15.12
1308 6.3070 213.20 202.21 14.65
1309 6.3080 252.54 202.13 16.03
1310 6.3090 223.81 202.06 15.01
1311 6.3100 228.78 201.98 15.20
1312 6.3110 211.14 201.91 14.60
1313 6.3120 239.26 201.84 15.64
1314 6.3130 236.24 201.76 15.57
1315 6.3140 217.43 201.69 14.78
1316 6.3150 212.63 201.62 14.63
1317 6.3160 204.28 201.55 14.27
1318 6.3170 222.03 201.48 14.88
1319 6.3180 230.79 201.41 15.18
1320 6.3190 226.89 201.34 15.08
1321 6.3200 189.16 201.27 13.76
1322 6.3210 232.82 201.20 15.33
1323 6.3220 230.09 201.13 15.33
1324 6.3230 206.12 201.06 14.52
1325 6.3240 178.00 200.99 13.41
1326 6.3250 228.96 200.93 15.12
1327 6.3260 225.91 200.86 14.97
1328 6.3270 231.90 200.79 15.24
1329 6.3280 223.00 200.72 15.00
1330 6.3290 193.25 200.66 13.93
1331 6.3300 214.91 200.59 14.73
1332 6.3310 221.19 200.52 15.00
1333 6.3320 207.79 200.46 14.59
1334 6.3330 215.19 200.39 14.93
1335 6.3340 215.58 200.33 14.84
1336 6.3350 216.01 200.26 14.72
1337 6.3360 194.73 200.20 13.90
1338 6.3370 210.95 200.13 14.49
1339 6.3380 229.59 200.07 15.14
1340 6.3390 224.35 200.01 14.97
1341 6.3400 213.71 199.94 14.65
1342 6.3410 228.58 199.88 15.16
1343 6.3420 246.57 199.82 15.87
1344 6.3430 235.57 199.75 15.55
1345 6.3440 236.94 199.69 15.49
1346 6.3450 239.54 199.63 15.49
1347 6.3460 246.01 199.57 15.66
1348 6.3470 225.08 199.50 14.99
1349 6.3480 212.99 199.44 14.61
1350 6.3490 203.59 199.38 14.27
1351 6.3500 215.33 199.32 14.64
1352 6.3510 199.54 198.98 14.19
1353 6.3520 210.76 198.92 14.73
1354 6.3530 216.46 198.38 14.90
1355 6.3540 223.82 198.33 15.12
1356 6.3550 240.92 198.27 15.57
1357 6.3560 190.97 198.22 13.85
1358 6.3570 216.49 198.17 14.72
1359 6.3580 225.24 198.12 15.17
1360 6.3590 200.13 198.07 14.18
1361 6.3600 203.21 198.01 14.30
1362 6.3610 255.20 197.96 16.04
1363 6.3620 196.16 197.91 14.13
1364 6.3630 230.91 197.86 15.38
1365 6.3640 221.82 197.80 14.96
1366 6.3650 205.50 197.75 14.34
1367 6.3660 217.72 197.70 14.65
1368 6.3670 224.98 197.65 14.98
1369 6.3680 215.13 197.60 14.72
1370 6.3690 216.69 197.54 14.68
1371 6.3700 217.30 197.49 14.75
1372 6.3710 219.54 197.44 14.83
1373 6.3720 204.43 197.39 14.44
1374 6.3730 221.78 197.34 15.02
1375 6.3740 175.73 197.29 13.29
1376 6.3750 217.00 197.23 14.71
1377 6.3760 218.47 197.18 14.73
1378 6.3770 196.14 197.13 13.97
1379 6.3780 236.84 197.08 15.38
1380 6.3790 202.68 197.03 14.30
1381 6.3800 212.48 196.97 14.63
1382 6.3810 205.38 196.92 14.38
1383 6.3820 205.76 196.87 14.54
1384 6.3830 205.50 196.82 14.58
1385 6.3840 195.74 196.77 14.11
1386 6.3850 201.12 196.72 14.17
1387 6.3860 216.72 196.66 14.64
1388 6.3870 219.25 196.61 14.79
1389 6.3880 212.36 196.56 14.58
1390 6.3890 205.03 196.51 14.29
1391 6.3900 201.33 196.46 14.16
1392 6.3910 224.64 196.41 15.03
1393 6.3920 214.51 196.35 14.79
1394 6.3930 212.10 196.30 14.74
1395 6.3940 213.62 196.25 14.67
1396 6.3950 220.52 196.20 14.84
1397 6.3960 214.12 196.15 14.55
1398 6.3970 193.31 196.10 13.76
1399 6.3980 207.15 196.04 14.38
1400 6.3990 205.20 195.99 14.29
1401 6.4000 212.04 195.94 14.57
1402 6.4010 225.80 195.89 15.03
1403 6.4020 233.37 195.84 15.46
1404 6.4030 216.74 195.79 15.00
1405 6.4040 206.27 195.74 14.49
1406 6.4050 196.02 195.68 14.04
1407 6.4060 170.51 195.63 13.10
1408 6.4070 206.42 195.58 14.38
1409 6.4080 220.82 195.53 14.93
1410 6.4090 200.54 195.48 14.17
1411 6.4100 184.37 195.43 13.54
1412 6.4110 216.95 195.38 14.77
1413 6.4120 186.66 195.33 13.78
1414 6.4130 224.47 195.27 15.10
1415 6.4140 189.68 195.22 13.86
1416 6.4150 209.05 195.17 14.42
1417 6.4160 203.30 195.12 14.20
1418 6.4170 213.72 195.07 14.56
1419 6.4180 235.64 195.02 15.38
1420 6.4190 205.55 194.97 14.34
1421 6.4200 230.38 194.92 15.14
1422 6.4210 243.35 194.87 15.59
1423 6.4220 248.97 194.81 15.83
1424 6.4230 199.23 194.76 14.23
1425 6.4240 212.82 194.71 14.69
1426 6.4250 212.89 194.66 14.57
1427 6.4260 222.62 194.61 14.89
1428 6.4270 187.16 194.56 13.73
1429 6.4280 229.35 194.51 15.23
1430 6.4290 189.64 194.46 13.80
1431 6.4300 215.54 194.40 14.74
1432 6.4310 240.24 194.35 15.62
1433 6.4320 231.63 194.30 15.47
1434 6.4330 208.66 194.25 14.63
1435 6.4340 240.44 194.20 15.58
1436 6.4350 221.14 194.15 14.88
1437 6.4360 207.91 194.10 14.35
1438 6.4370 210.50 194.05 14.46
1439 6.4380 195.11 194.00 13.98
1440 6.4390 226.63 193.95 15.07
1441 6.4400 221.53 193.90 14.89
1442 6.4410 209.48 193.85 14.49
1443 6.4420 208.38 193.79 14.56
1444 6.4430 207.25 193.74 14.54
1445 6.4440 227.40 193.69 15.17
1446 6.4450 214.38 193.64 14.63
1447 6.4460 233.92 193.59 15.20
1448 6.4470 192.98 193.54 13.85
1449 6.4480 209.05 193.49 14.49
1450 6.4490 185.37 193.44 13.62
1451 6.4500 213.70 193.39 14.61
1452 6.4510 239.98 193.34 15.55
1453 6.4520 205.98 193.29 14.61
1454 6.4530 205.53 193.24 14.56
1455 6.4540 218.11 193.19 14.90
1456 6.4550 217.76 193.13 14.80
1457 6.4560 201.79 193.08 14.20
1458 6.4570 182.65 193.03 13.53
1459 6.4580 207.82 192.98 14.43
1460 6.4590 207.57 192.93 14.43
1461 6.4600 187.74 192.88 13.70
1462 6.4610 230.32 192.83 15.22
1463 6.4620 181.14 192.78 13.58
1464 6.4630 194.53 192.73 14.09
1465 6.4640 181.13 192.68 13.54
1466 6.4650 198.85 192.63 14.04
1467 6.4660 201.99 192.58 14.13
1468 6.4670 205.56 192.53 14.31
1469 6.4680 218.01 192.48 14.85
1470 6.4690 195.17 192.43 14.00
1471 6.4700 204.48 192.38 14.29
1472 6.4710 211.18 192.33 14.54
1473 6.4720 205.37 192.28 14.49
1474 6.4730 203.32 192.23 14.42
1475 6.4740 194.53 192.18 14.04
1476 6.4750 194.69 192.13 13.95
1477 6.4760 194.20 192.07 13.94
1478 6.4770 190.98 192.02 13.89
1479 6.4780 199.63 191.98 14.25
1480 6.4790 197.93 191.92 14.17
1481 6.4800 215.21 191.87 14.72
1482 6.4810 221.77 191.82 14.97
1483 6.4820 181.08 191.77 13.63
1484 6.4830 191.45 191.72 14.00
1485 6.4840 228.02 191.67 15.26
1486 6.4850 210.07 191.62 14.50
1487 6.4860 194.03 191.57 13.90
1488 6.4870 201.74 191.52 14.22
1489 6.4880 194.99 191.47 14.00
1490 6.4890 200.59 191.42 14.18
1491 6.4900 175.24 191.37 13.25
1492 6.4910 201.26 191.32 14.26
1493 6.4920 209.29 191.27 14.65
1494 6.4930 184.63 191.22 13.81
1495 6.4940 204.67 191.17 14.38
1496 6.4950 218.79 191.12 14.85
1497 6.4960 182.67 191.07 13.48
1498 6.4970 184.52 191.02 13.62
1499 6.4980 197.18 190.97 14.08
1500 6.4990 207.73 190.92 14.52
1501 6.5000 205.69 190.87 14.40
1502 6.5010 210.73 190.82 14.61
1503 6.5020 163.83 190.77 13.04
1504 6.5030 189.37 190.72 14.03
1505 6.5040 217.66 190.67 14.89
1506 6.5050 218.20 190.62 14.79
1507 6.5060 193.78 190.57 13.95
1508 6.5070 191.86 190.52 13.92
1509 6.5080 218.74 190.47 14.93
1510 6.5090 207.09 190.42 14.39
1511 6.5100 208.77 190.37 14.51
1512 6.5110 221.57 190.32 14.96
1513 6.5120 194.39 190.27 14.11
1514 6.5130 186.59 190.23 13.83
1515 6.5140 187.06 190.18 13.79
1516 6.5150 217.79 190.12 14.78
1517 6.5160 213.28 190.07 14.58
1518 6.5170 191.21 190.03 13.78
1519 6.5180 211.35 189.98 14.56
1520 6.5190 190.18 189.93 13.81
1521 6.5200 196.18 189.88 14.00
1522 6.5210 201.20 189.83 14.23
1523 6.5220 192.41 189.78 14.03
1524 6.5230 204.19 189.73 14.53
1525 6.5240 184.62 189.68 13.74
1526 6.5250 215.38 189.63 14.73
1527 6.5260 194.85 189.58 14.02
1528 6.5270 190.46 189.53 13.91
1529 6.5280 193.94 189.48 14.07
1530 6.5290 212.73 189.43 14.69
1531 6.5300 174.22 189.38 13.26
1532 6.5310 198.33 189.33 14.20
1533 6.5320 189.04 189.28 13.98
1534 6.5330 185.90 189.23 13.88
1535 6.5340 204.18 189.18 14.40
1536 6.5350 203.54 189.13 14.29
1537 6.5360 189.97 189.09 13.83
1538 6.5370 190.63 189.04 13.81
1539 6.5380 204.79 188.99 14.41
1540 6.5390 200.53 188.94 14.15
1541 6.5400 200.89 188.89 14.23
1542 6.5410 178.03 188.84 13.35
1543 6.5420 182.84 188.79 13.66
1544 6.5430 187.57 188.74 13.88
1545 6.5440 215.65 188.69 14.80
1546 6.5450 202.02 188.64 14.22
1547 6.5460 196.27 188.59 13.97
1548 6.5470 218.28 188.54 14.84
1549 6.5480 221.41 188.49 15.01
1550 6.5490 200.08 188.44 14.19
1551 6.5500 178.99 188.39 13.46
1552 6.5510 200.71 188.35 14.29
1553 6.5520 199.32 188.30 14.42
1554 6.5530 190.19 188.25 14.08
1555 6.5540 193.55 188.20 14.06
1556 6.5550 181.75 188.15 13.57
1557 6.5560 176.59 188.10 13.32
1558 6.5570 200.44 188.05 14.24
1559 6.5580 186.69 188.00 13.74
1560 6.5590 201.11 187.95 14.27
1561 6.5600 192.02 187.90 13.92
1562 6.5610 185.84 187.85 13.69
1563 6.5620 207.90 187.80 14.55
1564 6.5630 182.02 187.76 13.70
1565 6.5640 176.64 187.71 13.42
1566 6.5650 181.94 187.66 13.50
1567 6.5660 179.54 187.61 13.36
1568 6.5670 207.01 187.56 14.42
1569 6.5680 200.28 187.51 14.27
1570 6.5690 206.60 187.46 14.37
1571 6.5700 174.82 187.41 13.20
1572 6.5710 211.85 187.37 14.60
1573 6.5720 204.86 187.32 14.54
1574 6.5730 182.58 187.27 13.75
1575 6.5740 211.17 187.22 14.68
1576 6.5750 218.38 187.17 14.95
1577 6.5760 187.95 187.12 13.82
1578 6.5770 194.43 187.07 14.06
1579 6.5780 169.14 187.02 13.12
1580 6.5790 188.07 186.97 13.79
1581 6.5800 197.02 186.93 14.12
1582 6.5810 203.03 186.88 14.36
1583 6.5820 186.07 186.83 13.79
1584 6.5830 191.27 186.78 14.01
1585 6.5840 198.96 186.73 14.27
1586 6.5850 182.35 186.68 13.55
1587 6.5860 185.74 186.63 13.60
1588 6.5870 202.25 186.59 14.26
1589 6.5880 187.28 186.54 13.74
1590 6.5890 159.28 186.49 12.62
1591 6.5900 184.76 186.44 13.63
1592 6.5910 200.32 186.39 14.23
1593 6.5920 176.40 186.34 13.43
1594 6.5930 210.95 186.29 14.73
1595 6.5940 183.73 186.24 13.63
1596 6.5950 187.89 186.20 13.73
1597 6.5960 190.46 186.15 13.77
1598 6.5970 176.47 186.10 13.35
1599 6.5980 179.34 186.05 13.44
1600 6.5990 183.22 186.00 13.61
1601 6.6000 196.30 185.95 14.12
1602 6.6010 182.88 185.91 13.68
1603 6.6020 180.88 185.86 13.63
1604 6.6030 182.21 185.81 13.77
1605 6.6040 177.89 185.76 13.47
1606 6.6050 186.48 185.71 13.71
1607 6.6060 198.10 185.66 14.12
1608 6.6070 190.45 185.62 13.83
1609 6.6080 187.56 185.57 13.79
1610 6.6090 174.45 185.52 13.23
1611 6.6100 180.53 185.47 13.47
1612 6.6110 191.51 185.42 13.88
1613 6.6120 176.38 185.37 13.45
1614 6.6130 180.73 185.33 13.55
1615 6.6140 199.97 185.28 14.25
1616 6.6150 226.12 185.23 15.06
1617 6.6160 186.05 185.18 13.62
1618 6.6170 202.59 185.13 14.22
1619 6.6180 179.21 185.09 13.46
1620 6.6190 188.82 185.04 13.72
1621 6.6200 211.88 184.99 14.60
1622 6.6210 185.58 184.94 13.69
1623 6.6220 173.27 184.89 13.35
1624 6.6230 186.55 184.84 13.87
1625 6.6240 183.92 184.80 13.75
1626 6.6250 190.36 184.75 13.87
1627 6.6260 180.01 184.70 13.46
1628 6.6270 202.88 184.65 14.33
1629 6.6280 187.80 184.60 13.79
1630 6.6290 195.19 184.56 14.01
1631 6.6300 163.91 184.51 12.84
1632 6.6310 190.05 184.46 13.88
1633 6.6320 178.71 184.41 13.57
1634 6.6330 200.65 184.36 14.33
1635 6.6340 191.10 184.32 13.94
1636 6.6350 196.71 184.27 14.02
1637 6.6360 186.62 184.22 13.64
1638 6.6370 192.12 184.17 13.84
1639 6.6380 217.75 184.12 14.78
1640 6.6390 169.51 184.08 13.03
1641 6.6400 176.46 184.03 13.31
1642 6.6410 195.69 183.98 14.03
1643 6.6420 177.11 183.93 13.45
1644 6.6430 185.14 183.88 13.78
1645 6.6440 219.99 183.84 14.94
1646 6.6450 172.70 183.79 13.14
1647 6.6460 191.64 183.74 13.81
1648 6.6470 176.83 183.69 13.36
1649 6.6480 183.57 183.65 13.67
1650 6.6490 171.33 183.60 13.17
1651 6.6500 181.13 183.55 13.55
1652 6.6510 173.92 183.50 13.34
1653 6.6520 183.60 183.46 13.76
1654 6.6530 186.78 183.41 13.89
1655 6.6540 189.31 183.36 13.86
1656 6.6550 160.68 183.31 12.71
1657 6.6560 180.56 183.26 13.49
1658 6.6570 202.26 183.22 14.23
1659 6.6580 180.60 183.17 13.46
1660 6.6590 151.01 183.12 12.32
1661 6.6600 153.38 183.07 12.40
1662 6.6610 184.12 183.03 13.59
1663 6.6620 166.37 182.98 12.99
1664 6.6630 177.66 182.93 13.49
1665 6.6640 177.79 182.88 13.41
1666 6.6650 182.97 182.84 13.52
1667 6.6660 207.40 182.79 14.36
1668 6.6670 187.81 182.74 13.69
1669 6.6680 180.05 182.69 13.49
1670 6.6690 163.76 182.65 12.82
1671 6.6700 187.36 182.60 13.69
1672 6.6710 189.47 182.55 13.84
1673 6.6720 191.76 182.51 14.07
1674 6.6730 166.94 182.46 13.13
1675 6.6740 161.62 182.41 12.84
1676 6.6750 182.13 182.36 13.59
1677 6.6760 208.01 182.32 14.44
1678 6.6770 200.48 182.27 14.19
1679 6.6780 184.03 182.22 13.66
1680 6.6790 201.01 182.17 14.23
1681 6.6800 204.76 182.13 14.37
1682 6.6810 190.95 182.08 13.87
1683 6.6820 172.07 182.03 13.29
1684 6.6830 183.06 181.99 13.69
1685 6.6840 189.61 181.94 13.90
1686 6.6850 189.35 181.89 13.75
1687 6.6860 198.40 181.84 14.00
1688 6.6870 168.17 181.80 12.95
1689 6.6880 174.41 181.75 13.28
1690 6.6890 162.15 181.70 12.71
1691 6.6900 164.27 181.65 12.81
1692 6.6910 167.55 181.61 13.02
1693 6.6920 175.56 181.56 13.38
1694 6.6930 154.04 181.51 12.59
1695 6.6940 190.33 181.47 13.84
1696 6.6950 196.92 181.42 14.09
1697 6.6960 187.86 181.37 13.74
1698 6.6970 198.21 181.32 14.07
1699 6.6980 163.02 181.28 12.87
1700 6.6990 177.72 181.23 13.47
1701 6.7000 193.95 181.18 14.03
1702 6.7010 187.51 181.14 13.81
1703 6.7020 183.58 181.09 13.74
1704 6.7030 159.78 181.04 12.86
1705 6.7040 174.33 181.00 13.34
1706 6.7050 182.48 180.95 13.52
1707 6.7060 149.66 180.90 12.22
1708 6.7070 176.93 180.86 13.35
1709 6.7080 192.80 180.81 13.93
1710 6.7090 177.87 180.76 13.37
1711 6.7100 193.08 180.71 13.92
1712 6.7110 189.13 180.67 13.80
1713 6.7120 164.98 180.62 12.97
1714 6.7130 182.44 180.57 13.68
1715 6.7140 181.51 180.53 13.56
1716 6.7150 186.96 180.48 13.67
1717 6.7160 172.49 180.43 13.15
1718 6.7170 183.05 180.39 13.50
1719 6.7180 176.92 180.34 13.35
1720 6.7190 183.22 180.29 13.56
1721 6.7200 199.04 180.25 14.15
1722 6.7210 154.07 180.20 12.48
1723 6.7220 175.51 180.15 13.42
1724 6.7230 180.83 180.11 13.70
1725 6.7240 187.43 180.06 13.83
1726 6.7250 187.12 180.01 13.75
1727 6.7260 173.12 179.97 13.16
1728 6.7270 175.92 179.92 13.32
1729 6.7280 183.68 179.88 13.65
1730 6.7290 152.09 179.83 12.38
1731 6.7300 197.64 179.78 14.15
1732 6.7310 191.95 179.74 13.94
1733 6.7320 157.32 179.69 12.71
1734 6.7330 174.48 179.64 13.34
1735 6.7340 184.04 179.60 13.67
1736 6.7350 164.34 179.55 12.81
1737 6.7360 179.90 179.50 13.38
1738 6.7370 179.20 179.46 13.41
1739 6.7380 198.20 179.41 14.12
1740 6.7390 174.37 179.36 13.19
1741 6.7400 181.22 179.32 13.47
1742 6.7410 187.44 179.27 13.73
1743 6.7420 178.21 179.22 13.51
1744 6.7430 215.05 179.18 14.82
1745 6.7440 211.23 179.13 14.63
1746 6.7450 186.38 179.09 13.68
1747 6.7460 192.90 179.04 13.93
1748 6.7470 184.32 178.99 13.65
1749 6.7480 165.69 178.95 13.01
1750 6.7490 165.18 178.90 12.92
1751 6.7500 180.30 178.85 13.47
1752 6.7510 186.80 178.81 13.77
1753 6.7520 175.20 178.76 13.44
1754 6.7530 150.46 178.71 12.45
1755 6.7540 214.26 178.67 14.82
1756 6.7550 179.72 178.62 13.49
1757 6.7560 176.75 178.58 13.33
1758 6.7570 161.98 178.53 12.74
1759 6.7580 196.38 178.49 14.06
1760 6.7590 180.57 178.44 13.43
1761 6.7600 185.41 178.39 13.63
1762 6.7610 195.87 178.35 14.06
1763 6.7620 168.24 178.30 13.10
1764 6.7630 163.97 178.25 12.99
1765 6.7640 191.98 178.21 13.94
1766 6.7650 180.81 178.16 13.44
1767 6.7660 177.24 178.12 13.27
1768 6.7670 176.65 178.07 13.26
1769 6.7680 174.59 178.02 13.23
1770 6.7690 173.26 177.98 13.17
1771 6.7700 158.97 177.93 12.69
1772 6.7710 165.31 177.89 12.98
1773 6.7720 200.23 177.84 14.38
1774 6.7730 196.85 177.79 14.31
1775 6.7740 192.58 177.75 14.01
1776 6.7750 176.27 177.70 13.31
1777 6.7760 191.87 177.66 13.90
1778 6.7770 164.32 177.61 12.86
1779 6.7780 194.29 177.57 13.99
1780 6.7790 161.32 177.52 12.79
1781 6.7800 161.15 177.47 12.72
1782 6.7810 184.22 177.43 13.65
1783 6.7820 164.03 177.38 12.92
1784 6.7830 183.83 177.34 13.72
1785 6.7840 188.11 177.29 13.75
1786 6.7850 189.41 177.24 13.73
1787 6.7860 181.13 177.20 13.40
1788 6.7870 186.68 177.15 13.65
1789 6.7880 163.22 177.11 12.86
1790 6.7890 169.77 177.06 13.00
1791 6.7900 197.87 177.02 14.06
1792 6.7910 177.50 176.97 13.37
1793 6.7920 176.10 176.93 13.38
1794 6.7930 216.02 176.88 14.82
1795 6.7940 160.34 176.83 12.76
1796 6.7950 160.89 176.79 12.75
1797 6.7960 162.04 176.74 12.77
1798 6.7970 179.54 176.70 13.48
1799 6.7980 160.16 176.65 12.76
1800 6.7990 157.87 176.60 12.64
1801 6.8000 174.68 176.56 13.26
1802 6.8010 143.18 176.51 11.99
1803 6.8020 172.12 176.47 13.32
1804 6.8030 189.46 176.42 14.04
1805 6.8040 169.21 176.38 13.15
1806 6.8050 175.47 176.33 13.25
1807 6.8060 178.83 176.29 13.35
1808 6.8070 181.95 176.24 13.46
1809 6.8080 173.23 176.20 13.21
1810 6.8090 170.40 176.15 13.03
1811 6.8100 168.09 176.10 12.93
1812 6.8110 158.47 176.06 12.60
1813 6.8120 172.38 176.01 13.31
1814 6.8130 177.55 175.97 13.46
1815 6.8140 162.71 175.92 12.79
1816 6.8150 180.16 175.88 13.43
1817 6.8160 170.30 175.83 12.98
1818 6.8170 172.62 175.79 13.10
1819 6.8180 161.74 175.74 12.74
1820 6.8190 167.08 175.70 13.01
1821 6.8200 185.01 175.65 13.67
1822 6.8210 179.49 175.61 13.48
1823 6.8220 175.20 175.56 13.43
1824 6.8230 190.40 175.52 14.02
1825 6.8240 196.96 175.47 14.13
1826 6.8250 188.93 175.43 13.74
1827 6.8260 156.21 175.38 12.48
1828 6.8270 165.80 175.34 12.89
1829 6.8280 168.35 175.29 13.03
1830 6.8290 168.67 175.25 13.02
1831 6.8300 172.92 175.20 13.11
1832 6.8310 171.86 175.16 13.14
1833 6.8320 176.32 175.11 13.41
1834 6.8330 172.02 175.07 13.22
1835 6.8340 163.18 175.02 12.79
1836 6.8350 171.26 174.98 13.05
1837 6.8360 163.74 174.93 12.68
1838 6.8370 194.43 174.89 13.92
1839 6.8380 174.18 174.84 13.18
1840 6.8390 174.96 174.80 13.18
1841 6.8400 179.33 174.75 13.37
1842 6.8410 155.02 174.71 12.46
1843 6.8420 150.79 174.66 12.45
1844 6.8430 182.12 174.62 13.68
1845 6.8440 172.27 174.57 13.22
1846 6.8450 167.93 174.53 12.99
1847 6.8460 165.14 174.48 12.84
1848 6.8470 198.93 174.44 14.14
1849 6.8480 181.11 174.39 13.49
1850 6.8490 161.51 174.35 12.75
1851 6.8500 151.70 174.30 12.35
1852 6.8510 156.66 174.26 12.61
1853 6.8520 174.85 174.21 13.40
1854 6.8530 148.07 174.17 12.31
1855 6.8540 157.95 174.12 12.64
1856 6.8550 168.87 174.08 12.95
1857 6.8560 188.43 174.03 13.65
1858 6.8570 173.48 173.99 13.13
1859 6.8580 162.49 173.94 12.75
1860 6.8590 150.89 173.90 12.26
1861 6.8600 178.08 173.85 13.28
1862 6.8610 157.45 173.81 12.53
1863 6.8620 178.73 173.76 13.44
1864 6.8630 165.51 173.72 13.02
1865 6.8640 166.48 173.68 12.95
1866 6.8650 163.34 173.63 12.76
1867 6.8660 170.54 173.59 13.08
1868 6.8670 177.87 173.54 13.35
1869 6.8680 156.79 173.50 12.55
1870 6.8690 156.79 173.45 12.56
1871 6.8700 138.14 173.41 11.80
1872 6.8710 141.72 173.36 11.96
1873 6.8720 157.47 173.32 12.70
1874 6.8730 171.81 173.27 13.30
1875 6.8740 165.40 173.23 13.02
1876 6.8750 167.25 173.19 12.94
1877 6.8760 179.06 173.14 13.33
1878 6.8770 165.34 173.10 12.87
1879 6.8780 158.41 173.05 12.66
1880 6.8790 141.48 173.01 11.91
1881 6.8800 149.22 172.96 12.19
1882 6.8810 157.73 172.92 12.58
1883 6.8820 176.83 172.88 13.41
1884 6.8830 166.54 172.83 13.05
1885 6.8840 176.18 172.79 13.24
1886 6.8850 163.53 172.74 12.72
1887 6.8860 159.10 172.70 12.51
1888 6.8870 164.27 172.65 12.76
1889 6.8880 169.80 172.61 13.01
1890 6.8890 163.24 172.57 12.74
1891 6.8900 190.59 172.52 13.78
1892 6.8910 191.44 172.48 13.88
1893 6.8920 154.34 172.43 12.56
1894 6.8930 171.38 172.39 13.32
1895 6.8940 170.67 172.34 13.18
1896 6.8950 157.57 172.30 12.56
1897 6.8960 165.40 172.26 12.84
1898 6.8970 166.48 172.21 12.92
1899 6.8980 149.20 172.17 12.32
1900 6.8990 150.97 172.12 12.32
1901 6.9000 168.46 172.08 13.04
1902 6.9010 159.30 172.04 12.66
1903 6.9020 154.42 171.99 12.61
1904 6.9030 167.04 171.95 13.10
1905 6.9040 158.91 171.90 12.68
1906 6.9050 164.35 171.86 12.82
1907 6.9060 160.72 171.82 12.59
1908 6.9070 175.43 171.77 13.24
1909 6.9080 163.43 171.73 12.78
1910 6.9090 158.45 171.68 12.54
1911 6.9100 177.46 171.64 13.29
1912 6.9110 178.54 171.60 13.39
1913 6.9120 156.34 171.55 12.62
1914 6.9130 156.56 171.51 12.65
1915 6.9140 180.31 171.46 13.49
1916 6.9150 168.61 171.42 13.00
1917 6.9160 156.32 171.38 12.48
1918 6.9170 164.86 171.33 12.89
1919 6.9180 193.47 171.29 14.04
1920 6.9190 154.85 171.24 12.50
1921 6.9200 170.91 171.20 13.07
1922 6.9210 140.56 171.16 11.92
1923 6.9220 156.46 171.11 12.70
1924 6.9230 164.37 171.07 13.04
1925 6.9240 164.84 171.02 13.00
1926 6.9250 151.98 170.98 12.39
1927 6.9260 140.34 170.94 11.89
1928 6.9270 172.61 170.89 13.19
1929 6.9280 165.05 170.85 12.90
1930 6.9290 150.50 170.81 12.25
1931 6.9300 169.37 170.76 13.01
1932 6.9310 159.39 170.72 12.66
1933 6.9320 156.05 170.68 12.64
1934 6.9330 156.14 170.63 12.65
1935 6.9340 170.14 170.59 13.11
1936 6.9350 152.85 170.54 12.33
1937 6.9360 170.04 170.50 12.99
1938 6.9370 179.02 170.46 13.32
1939 6.9380 148.04 170.41 12.22
1940 6.9390 155.35 170.37 12.49
1941 6.9400 154.59 170.33 12.47
1942 6.9410 153.53 170.28 12.47
1943 6.9420 179.34 170.24 13.63
1944 6.9430 168.61 170.20 13.25
1945 6.9440 146.76 170.15 12.27
1946 6.9450 162.49 170.11 12.78
1947 6.9460 152.25 170.07 12.33
1948 6.9470 136.08 170.02 11.73
1949 6.9480 168.48 169.98 13.09
1950 6.9490 159.41 169.93 12.65
1951 6.9500 148.27 169.89 12.25
1952 6.9510 169.30 169.85 13.10
1953 6.9520 142.77 169.80 12.09
1954 6.9530 184.05 169.76 13.77
1955 6.9540 171.07 169.72 13.16
1956 6.9550 163.48 169.68 12.79
1957 6.9560 172.20 169.63 13.09
1958 6.9570 159.26 169.59 12.60
1959 6.9580 168.68 169.54 13.04
1960 6.9590 156.49 169.50 12.50
1961 6.9600 170.70 169.46 13.02
1962 6.9610 165.93 169.41 12.90
1963 6.9620 182.63 169.37 13.61
1964 6.9630 158.34 169.33 12.75
1965 6.9640 165.44 169.29 12.91
1966 6.9650 133.61 169.24 11.59
1967 6.9660 168.91 169.20 13.04
1968 6.9670 179.10 169.16 13.42
1969 6.9680 143.43 169.11 12.11
1970 6.9690 159.72 169.07 12.69
1971 6.9700 156.64 169.03 12.57
1972 6.9710 175.98 168.98 13.33
1973 6.9720 169.20 168.94 13.20
1974 6.9730 178.25 168.90 13.57
1975 6.9740 150.78 168.85 12.42
1976 6.9750 163.95 168.81 12.88
1977 6.9760 152.82 168.77 12.35
1978 6.9770 167.38 168.73 12.98
1979 6.9780 164.99 168.68 12.89
1980 6.9790 172.55 168.64 13.17
1981 6.9800 178.22 168.60 13.34
1982 6.9810 147.48 168.55 12.19
1983 6.9820 141.15 168.51 11.98
1984 6.9830 182.57 168.47 13.70
1985 6.9840 157.68 168.42 12.63
1986 6.9850 150.71 168.38 12.25
1987 6.9860 170.85 168.34 13.05
1988 6.9870 169.48 168.29 13.01
1989 6.9880 153.21 168.25 12.44
1990 6.9890 150.19 168.21 12.26
1991 6.9900 149.96 168.17 12.28
1992 6.9910 142.00 168.12 12.03
1993 6.9920 147.46 168.08 12.29
1994 6.9930 174.08 168.04 13.49
1995 6.9940 178.04 167.99 13.46
1996 6.9950 152.28 167.95 12.43
1997 6.9960 175.50 167.91 13.22
1998 6.9970 145.34 167.87 12.13
1999 6.9980 161.11 167.82 12.78
2000 6.9990 151.57 167.78 12.38
2001 7.0000 149.56 167.74 12.25
2002 7.0010 155.73 167.70 12.54
2003 7.0020 142.39 167.65 12.11
2004 7.0030 174.29 167.61 13.36
2005 7.0040 158.96 167.57 12.64
2006 7.0050 165.27 167.52 12.84
2007 7.0060 204.64 167.48 14.20
2008 7.0070 175.98 167.44 13.21
2009 7.0080 164.17 167.40 12.78
2010 7.0090 164.54 167.35 12.84
2011 7.0100 143.04 167.31 11.89
2012 7.0110 155.40 167.27 12.47
2013 7.0120 155.74 167.23 12.56
2014 7.0130 162.26 167.18 12.91
2015 7.0140 152.03 167.14 12.39
2016 7.0150 163.51 167.10 12.84
2017 7.0160 142.18 167.06 11.94
2018 7.0170 145.23 167.01 12.12
2019 7.0180 157.88 166.97 12.64
2020 7.0190 162.06 166.93 12.80
2021 7.0200 159.83 166.89 12.67
2022 7.0210 138.55 166.85 11.83
2023 7.0220 152.55 166.80 12.52
2024 7.0230 153.12 166.76 12.57
2025 7.0240 168.38 166.72 13.08
2026 7.0250 160.35 166.68 12.67
2027 7.0260 141.91 166.63 11.85
2028 7.0270 163.16 166.59 12.70
2029 7.0280 132.37 166.55 11.51
2030 7.0290 166.22 166.51 12.91
2031 7.0300 146.13 166.46 12.07
2032 7.0310 171.41 166.42 13.12
2033 7.0320 148.98 166.38 12.29
2034 7.0330 141.68 166.34 12.04
2035 7.0340 180.04 166.29 13.43
2036 7.0350 164.70 166.25 12.78
2037 7.0360 144.31 166.21 11.98
2038 7.0370 172.07 166.17 13.16
2039 7.0380 159.72 166.13 12.76
2040 7.0390 149.54 166.08 12.28
2041 7.0400 158.82 166.04 12.65
2042 7.0410 160.02 166.00 12.74
2043 7.0420 152.54 165.96 12.47
2044 7.0430 150.23 165.91 12.43
2045 7.0440 147.31 165.87 12.23
2046 7.0450 169.81 165.83 13.04
2047 7.0460 155.84 165.79 12.44
2048 7.0470 157.31 165.75 12.58
2049 7.0480 160.00 165.71 12.71
2050 7.0490 171.29 165.66 13.13
2051 7.0500 159.45 165.62 12.65
2052 7.0510 169.80 165.58 13.06
2053 7.0520 142.63 165.54 12.06
2054 7.0530 157.50 165.49 12.67
2055 7.0540 146.82 165.45 12.15
2056 7.0550 143.55 165.41 11.92
2057 7.0560 146.12 165.37 11.99
2058 7.0570 141.16 165.33 11.84
2059 7.0580 153.50 165.29 12.41
2060 7.0590 164.77 165.24 12.80
2061 7.0600 161.18 165.20 12.71
2062 7.0610 144.78 165.16 12.06
2063 7.0620 153.75 165.12 12.56
2064 7.0630 144.57 165.08 12.20
2065 7.0640 145.47 165.03 12.14
2066 7.0650 153.64 164.99 12.42
2067 7.0660 165.46 164.95 12.85
2068 7.0670 136.34 164.91 11.69
2069 7.0680 160.32 164.87 12.71
2070 7.0690 168.16 164.82 12.99
2071 7.0700 158.70 164.78 12.63
2072 7.0710 153.55 164.74 12.45
2073 7.0720 174.87 164.70 13.39
2074 7.0730 160.32 164.66 12.84
2075 7.0740 148.99 164.62 12.33
2076 7.0750 152.06 164.57 12.31
2077 7.0760 145.46 164.53 12.03
2078 7.0770 155.54 164.49 12.43
2079 7.0780 153.91 164.45 12.43
2080 7.0790 164.52 164.41 12.79
2081 7.0800 157.00 164.37 12.49
2082 7.0810 131.82 164.32 11.49
2083 7.0820 151.35 164.28 12.44
2084 7.0830 161.95 164.24 12.87
2085 7.0840 164.03 164.20 12.85
2086 7.0850 153.95 164.16 12.38
2087 7.0860 170.63 164.12 13.04
2088 7.0870 150.13 164.07 12.28
2089 7.0880 139.41 164.03 11.90
2090 7.0890 169.88 163.99 13.03
2091 7.0900 155.01 163.95 12.51
2092 7.0910 160.61 163.91 12.73
2093 7.0920 155.74 163.87 12.64
2094 7.0930 163.56 163.83 12.93
2095 7.0940 144.26 163.79 12.14
2096 7.0950 141.07 163.74 11.92
2097 7.0960 165.09 163.70 12.86
2098 7.0970 167.28 163.66 12.93
2099 7.0980 160.33 163.62 12.71
2100 7.0990 147.21 163.58 12.13
2101 7.1000 153.52 163.54 12.39
2102 7.1010 143.53 163.49 11.99
2103 7.1020 147.00 163.45 12.23
2104 7.1030 135.04 163.41 11.75
2105 7.1040 142.76 163.37 11.97
2106 7.1050 151.67 163.33 12.24
2107 7.1060 154.51 163.29 12.35
2108 7.1070 137.12 163.25 11.63
2109 7.1080 147.61 163.21 12.18
2110 7.1090 147.66 163.16 12.12
2111 7.1100 148.37 163.12 12.18
2112 7.1110 165.56 163.08 12.98
2113 7.1120 147.79 163.04 12.34
2114 7.1130 152.50 163.00 12.52
2115 7.1140 153.42 162.96 12.46
2116 7.1150 131.46 162.92 11.50
2117 7.1160 144.70 162.88 12.03
2118 7.1170 137.25 162.84 11.72
2119 7.1180 144.79 162.79 12.12
2120 7.1190 147.96 162.75 12.26
2121 7.1200 153.02 162.71 12.43
2122 7.1210 142.79 162.67 12.02
2123 7.1220 146.92 162.63 12.27
2124 7.1230 155.68 162.59 12.62
2125 7.1240 156.59 162.55 12.60
2126 7.1250 144.60 162.51 12.00
2127 7.1260 121.84 162.47 11.02
2128 7.1270 152.53 162.43 12.33
2129 7.1280 158.21 162.38 12.59
2130 7.1290 162.50 162.34 12.69
2131 7.1300 181.18 162.30 13.41
2132 7.1310 155.20 162.26 12.44
2133 7.1320 158.32 162.22 12.66
2134 7.1330 129.70 162.18 11.50
2135 7.1340 140.54 162.14 11.91
2136 7.1350 152.21 162.10 12.37
2137 7.1360 154.00 162.06 12.42
2138 7.1370 138.91 162.02 11.82
2139 7.1380 152.89 161.98 12.44
2140 7.1390 150.40 161.93 12.29
2141 7.1400 136.41 161.89 11.70
2142 7.1410 149.78 161.85 12.31
2143 7.1420 167.14 161.81 13.09
2144 7.1430 151.05 161.77 12.50
2145 7.1440 156.74 161.73 12.66
2146 7.1450 159.93 161.69 12.68
2147 7.1460 158.49 161.65 12.57
2148 7.1470 145.88 161.61 12.10
2149 7.1480 139.10 161.57 11.84
2150 7.1490 149.06 161.53 12.24
2151 7.1500 142.22 161.49 11.95
2152 7.1510 156.94 161.45 12.52
2153 7.1520 147.88 161.40 12.28
2154 7.1530 167.03 161.37 13.04
2155 7.1540 152.85 161.32 12.35
2156 7.1550 144.27 161.28 11.91
2157 7.1560 134.29 161.24 11.51
2158 7.1570 143.09 161.20 11.90
2159 7.1580 150.16 161.16 12.27
2160 7.1590 155.73 161.12 12.51
2161 7.1600 131.03 161.08 11.47
2162 7.1610 175.55 161.04 13.33
2163 7.1620 169.93 161.00 13.20
2164 7.1630 180.28 160.96 13.60
2165 7.1640 154.71 160.92 12.53
2166 7.1650 161.42 160.88 12.76
2167 7.1660 132.41 160.84 11.48
2168 7.1670 145.97 160.80 12.13
2169 7.1680 143.47 160.76 12.09
2170 7.1690 163.51 160.72 12.87
2171 7.1700 148.76 160.68 12.26
2172 7.1710 160.71 160.63 12.72
2173 7.1720 145.73 160.60 12.21
2174 7.1730 146.03 160.55 12.26
2175 7.1740 137.30 160.51 11.81
2176 7.1750 134.12 160.47 11.54
2177 7.1760 143.84 160.43 11.93
2178 7.1770 154.80 160.39 12.43
2179 7.1780 134.88 160.35 11.62
2180 7.1790 132.69 160.31 11.49
2181 7.1800 143.23 160.27 11.91
2182 7.1810 149.88 160.23 12.22
2183 7.1820 167.64 160.19 13.04
2184 7.1830 139.00 160.15 11.90
2185 7.1840 144.39 160.11 12.11
2186 7.1850 139.78 160.07 11.88
2187 7.1860 163.61 160.03 12.83
2188 7.1870 162.52 159.99 12.76
2189 7.1880 142.02 159.95 12.00
2190 7.1890 131.76 159.91 11.54
2191 7.1900 144.67 159.87 12.03
2192 7.1910 154.33 159.83 12.46
2193 7.1920 167.48 159.79 13.14
2194 7.1930 140.24 159.75 12.03
2195 7.1940 145.59 159.71 12.23
2196 7.1950 151.69 159.67 12.40
2197 7.1960 160.01 159.63 12.65
2198 7.1970 163.16 159.59 12.79
2199 7.1980 128.40 159.55 11.37
2200 7.1990 143.36 159.51 11.97
2201 7.2000 149.35 159.47 12.21
2202 7.2010 142.83 159.43 11.96
2203 7.2020 152.30 159.39 12.45
2204 7.2030 137.01 159.35 11.84
2205 7.2040 163.53 159.31 12.80
2206 7.2050 160.68 159.27 12.62
2207 7.2060 161.22 159.23 12.65
2208 7.2070 144.85 159.19 12.01
2209 7.2080 137.03 159.15 11.76
2210 7.2090 142.01 159.11 11.95
2211 7.2100 132.81 159.07 11.62
2212 7.2110 142.93 159.03 12.00
2213 7.2120 150.05 158.99 12.43
2214 7.2130 144.30 158.95 12.14
2215 7.2140 149.85 158.91 12.32
2216 7.2150 136.51 158.87 11.72
2217 7.2160 140.43 158.83 11.85
2218 7.2170 160.83 158.79 12.74
2219 7.2180 144.13 158.75 12.14
2220 7.2190 157.35 158.71 12.61
2221 7.2200 166.42 158.67 12.98
2222 7.2210 134.98 158.63 11.69
2223 7.2220 145.58 158.59 12.15
2224 7.2230 149.44 158.55 12.37
2225 7.2240 144.15 158.51 12.07
2226 7.2250 140.27 158.47 11.80
2227 7.2260 142.61 158.43 11.87
2228 7.2270 126.83 158.40 11.23
2229 7.2280 144.86 158.35 12.02
2230 7.2290 152.16 158.32 12.31
2231 7.2300 153.98 158.28 12.32
2232 7.2310 131.11 158.24 11.43
2233 7.2320 148.42 158.20 12.31
2234 7.2330 144.19 158.16 12.15
2235 7.2340 134.84 158.12 11.74
2236 7.2350 144.44 158.08 12.03
2237 7.2360 139.55 158.04 11.83
2238 7.2370 143.80 158.00 11.97
2239 7.2380 135.27 157.96 11.70
2240 7.2390 143.56 157.92 12.07
2241 7.2400 133.18 157.88 11.59
2242 7.2410 127.23 157.84 11.35
2243 7.2420 114.91 157.80 10.87
2244 7.2430 145.48 157.76 12.28
2245 7.2440 142.79 157.72 12.07
2246 7.2450 146.98 157.68 12.16
2247 7.2460 144.50 157.64 11.99
2248 7.2470 145.93 157.60 12.07
2249 7.2480 144.47 157.57 12.08
2250 7.2490 145.52 157.53 12.07
2251 7.2500 146.09 157.49 12.07
2252 7.2510 146.92 157.45 12.13
2253 7.2520 149.91 157.41 12.35
2254 7.2530 138.69 157.37 11.90
2255 7.2540 144.04 157.33 12.02
2256 7.2550 143.91 157.29 11.99
2257 7.2560 152.53 157.25 12.37
2258 7.2570 156.72 157.21 12.58
2259 7.2580 166.51 157.17 13.05
2260 7.2590 140.69 157.13 11.92
2261 7.2600 158.05 157.09 12.62
2262 7.2610 158.18 157.05 12.65
2263 7.2620 159.92 157.01 12.81
2264 7.2630 127.12 156.98 11.43
2265 7.2640 136.12 156.94 11.78
2266 7.2650 139.80 156.90 11.91
2267 7.2660 156.79 156.86 12.52
2268 7.2670 137.86 156.82 11.82
2269 7.2680 151.32 156.78 12.40
2270 7.2690 132.43 156.74 11.57
2271 7.2700 156.63 156.70 12.54
2272 7.2710 152.31 156.66 12.42
2273 7.2720 136.59 156.62 11.86
2274 7.2730 129.68 156.59 11.56
2275 7.2740 138.35 156.55 11.86
2276 7.2750 134.51 156.51 11.58
2277 7.2760 127.96 156.47 11.23
2278 7.2770 142.63 156.43 11.96
2279 7.2780 136.89 156.39 11.67
2280 7.2790 152.95 156.35 12.39
2281 7.2800 153.04 156.31 12.37
2282 7.2810 132.98 156.27 11.58
2283 7.2820 152.91 156.24 12.54
2284 7.2830 143.52 156.20 12.18
2285 7.2840 138.69 156.16 11.91
2286 7.2850 126.50 156.12 11.28
2287 7.2860 125.27 156.08 11.19
2288 7.2870 147.45 156.04 12.14
2289 7.2880 141.24 156.00 11.99
2290 7.2890 155.95 155.96 12.52
2291 7.2900 145.70 155.92 12.13
2292 7.2910 123.18 155.88 11.18
2293 7.2920 154.81 155.85 12.68
2294 7.2930 142.73 155.81 12.16
2295 7.2940 150.41 155.77 12.34
2296 7.2950 132.09 155.73 11.50
2297 7.2960 146.06 155.69 12.05
2298 7.2970 142.08 155.65 11.93
2299 7.2980 147.09 155.61 12.16
2300 7.2990 142.88 155.57 11.94
2301 7.3000 137.48 155.54 11.73
2302 7.3010 145.29 155.50 12.06
2303 7.3020 145.42 155.46 12.14
2304 7.3030 142.01 155.42 12.06
2305 7.3040 154.68 155.38 12.53
2306 7.3050 136.02 155.34 11.69
2307 7.3060 152.52 155.30 12.35
2308 7.3070 127.14 155.27 11.33
2309 7.3080 122.86 155.23 11.20
2310 7.3090 159.24 155.19 12.62
2311 7.3100 150.22 155.15 12.27
2312 7.3110 140.59 155.11 11.88
2313 7.3120 123.78 155.07 11.24
2314 7.3130 139.99 155.03 11.99
2315 7.3140 127.65 155.00 11.39
2316 7.3150 153.25 154.96 12.47
2317 7.3160 133.71 154.92 11.59
2318 7.3170 135.40 154.88 11.71
2319 7.3180 165.85 154.84 12.95
2320 7.3190 158.22 154.80 12.61
2321 7.3200 120.54 154.76 11.00
2322 7.3210 132.02 154.73 11.56
2323 7.3220 134.28 154.69 11.74
2324 7.3230 146.29 154.65 12.25
2325 7.3240 140.59 154.61 11.91
2326 7.3250 140.93 154.57 11.85
2327 7.3260 132.42 154.54 11.42
2328 7.3270 139.95 154.50 11.78
2329 7.3280 129.27 154.46 11.41
2330 7.3290 135.84 154.42 11.70
2331 7.3300 150.24 154.38 12.29
2332 7.3310 137.47 154.34 11.83
2333 7.3320 132.82 154.30 11.76
2334 7.3330 121.98 154.27 11.28
2335 7.3340 148.18 154.23 12.27
2336 7.3350 149.27 154.19 12.25
2337 7.3360 143.61 154.15 11.96
2338 7.3370 141.13 154.11 11.91
2339 7.3380 143.05 154.08 12.09
2340 7.3390 138.12 154.04 11.86
2341 7.3400 131.89 154.00 11.57
2342 7.3410 143.70 153.96 12.11
2343 7.3420 121.18 153.92 11.22
2344 7.3430 145.33 153.88 12.25
2345 7.3440 136.56 153.85 11.81
2346 7.3450 145.78 153.81 12.11
2347 7.3460 163.84 153.77 12.79
2348 7.3470 146.32 153.73 12.15
2349 7.3480 135.19 153.69 11.69
2350 7.3490 139.14 153.66 11.79
2351 7.3500 138.07 153.62 11.72
2352 7.3510 123.72 153.58 11.11
2353 7.3520 155.02 153.54 12.57
2354 7.3530 139.94 153.50 11.95
2355 7.3540 116.50 153.47 10.91
2356 7.3550 116.83 153.43 10.89
2357 7.3560 152.67 153.39 12.41
2358 7.3570 148.30 153.35 12.28
2359 7.3580 140.60 153.31 11.96
2360 7.3590 144.80 153.28 12.11
2361 7.3600 133.50 153.24 11.57
2362 7.3610 121.00 153.20 11.05
2363 7.3620 154.05 153.16 12.56
2364 7.3630 143.69 153.12 12.23
2365 7.3640 118.73 153.09 11.08
2366 7.3650 136.30 153.05 11.80
2367 7.3660 120.80 153.01 11.05
2368 7.3670 124.92 152.97 11.21
2369 7.3680 130.25 152.94 11.51
2370 7.3690 143.35 152.90 12.02
2371 7.3700 119.27 152.86 10.96
2372 7.3710 128.91 152.82 11.39
2373 7.3720 128.92 152.79 11.50
2374 7.3730 136.96 152.75 11.88
2375 7.3740 143.92 152.71 12.06
2376 7.3750 144.47 152.67 11.98
2377 7.3760 137.08 152.63 11.64
2378 7.3770 134.08 152.60 11.56
2379 7.3780 135.29 152.56 11.70
2380 7.3790 128.42 152.52 11.37
2381 7.3800 139.83 152.48 11.90
2382 7.3810 128.75 152.45 11.46
2383 7.3820 122.91 152.41 11.29
2384 7.3830 128.56 152.37 11.55
2385 7.3840 125.57 152.33 11.29
2386 7.3850 111.32 152.29 10.58
2387 7.3860 150.95 152.26 12.24
2388 7.3870 163.51 152.22 12.85
2389 7.3880 145.88 152.18 12.21
2390 7.3890 126.08 152.15 11.33
2391 7.3900 125.17 152.11 11.27
2392 7.3910 133.01 152.07 11.65
2393 7.3920 151.18 152.03 12.51
2394 7.3930 140.01 151.99 12.02
2395 7.3940 154.83 151.96 12.55
2396 7.3950 138.04 151.92 11.79
2397 7.3960 145.88 151.88 12.06
2398 7.3970 122.34 151.85 11.06
2399 7.3980 123.10 151.81 11.18
2400 7.3990 132.11 151.77 11.50
2401 7.4000 141.54 151.73 11.91
2402 7.4010 123.36 151.70 11.12
2403 7.4020 114.71 151.66 10.82
2404 7.4030 130.20 151.62 11.61
2405 7.4040 126.43 151.58 11.35
2406 7.4050 151.54 151.55 12.41
2407 7.4060 127.18 151.51 11.33
2408 7.4070 105.24 151.47 10.35
2409 7.4080 132.18 151.43 11.60
2410 7.4090 132.74 151.40 11.55
2411 7.4100 144.94 151.36 12.07
2412 7.4110 149.36 151.32 12.26
2413 7.4120 135.86 151.29 11.84
2414 7.4130 133.96 151.25 11.80
2415 7.4140 131.98 151.21 11.63
2416 7.4150 145.20 151.17 12.14
2417 7.4160 130.02 151.14 11.40
2418 7.4170 127.59 151.10 11.37
2419 7.4180 124.00 151.06 11.23
2420 7.4190 133.91 151.02 11.61
2421 7.4200 111.38 150.99 10.58
2422 7.4210 148.91 150.95 12.24
2423 7.4220 131.62 150.91 11.62
2424 7.4230 127.32 150.88 11.41
2425 7.4240 136.90 150.84 11.73
2426 7.4250 149.44 150.80 12.18
2427 7.4260 139.77 150.76 11.75
2428 7.4270 149.38 150.73 12.23
2429 7.4280 139.18 150.69 11.87
2430 7.4290 116.53 150.65 10.88
2431 7.4300 131.29 150.62 11.55
2432 7.4310 121.36 150.58 11.12
2433 7.4320 143.48 150.54 12.19
2434 7.4330 118.63 150.51 11.10
2435 7.4340 126.54 150.47 11.33
2436 7.4350 150.96 150.43 12.29
2437 7.4360 151.80 150.40 12.28
2438 7.4370 137.87 150.36 11.76
2439 7.4380 137.19 150.32 11.84
2440 7.4390 136.05 150.28 11.74
2441 7.4400 151.20 150.25 12.37
2442 7.4410 150.88 150.21 12.40
2443 7.4420 133.41 150.17 11.73
2444 7.4430 126.64 150.14 11.44
2445 7.4440 149.24 150.10 12.29
2446 7.4450 147.76 150.06 12.17
2447 7.4460 131.65 150.03 11.42
2448 7.4470 113.02 149.99 10.65
2449 7.4480 128.23 149.95 11.34
2450 7.4490 141.21 149.92 11.83
2451 7.4500 148.93 149.88 12.16
2452 7.4510 124.71 149.84 11.24
2453 7.4520 118.09 149.81 10.98
2454 7.4530 128.83 149.77 11.52
2455 7.4540 137.71 149.73 11.85
2456 7.4550 149.27 149.70 12.30
2457 7.4560 149.25 149.66 12.27
2458 7.4570 144.39 149.62 12.05
2459 7.4580 139.59 149.59 11.84
2460 7.4590 134.27 149.55 11.58
2461 7.4600 121.60 149.51 11.03
2462 7.4610 134.88 149.48 11.65
2463 7.4620 126.81 149.44 11.41
2464 7.4630 123.62 149.40 11.34
2465 7.4640 136.13 149.37 11.80
2466 7.4650 130.84 149.33 11.49
2467 7.4660 100.11 149.29 10.01
2468 7.4670 128.90 149.26 11.39
2469 7.4680 145.86 149.22 12.15
2470 7.4690 153.54 149.18 12.41
2471 7.4700 132.33 149.15 11.51
2472 7.4710 140.75 149.11 11.90
2473 7.4720 131.94 149.07 11.62
2474 7.4730 133.93 149.04 11.71
2475 7.4740 152.04 149.00 12.39
2476 7.4750 136.44 148.96 11.64
2477 7.4760 126.99 148.93 11.23
2478 7.4770 136.80 148.89 11.72
2479 7.4780 143.77 148.85 12.09
2480 7.4790 138.07 148.82 11.86
2481 7.4800 148.99 148.78 12.28
2482 7.4810 130.40 148.75 11.53
2483 7.4820 135.00 148.71 11.75
2484 7.4830 130.82 148.67 11.63
2485 7.4840 113.32 148.64 10.74
2486 7.4850 133.40 148.60 11.57
2487 7.4860 136.69 148.56 11.70
2488 7.4870 119.78 148.53 11.02
2489 7.4880 140.08 148.49 11.93
2490 7.4890 128.35 148.46 11.39
2491 7.4900 126.16 148.42 11.27
2492 7.4910 137.02 148.38 11.80
2493 7.4920 129.36 148.35 11.53
2494 7.4930 135.73 148.31 11.83
2495 7.4940 131.51 148.27 11.54
2496 7.4950 135.06 148.24 11.61
2497 7.4960 124.99 148.20 11.12
2498 7.4970 144.19 148.17 12.00
2499 7.4980 149.32 148.13 12.20
2500 7.4990 135.74 148.09 11.63
2501 7.5000 126.83 148.06 11.22
2502 7.5010 136.46 148.02 11.71
2503 7.5020 134.37 147.99 11.75
2504 7.5030 130.81 147.95 11.68
2505 7.5040 146.98 147.91 12.24
2506 7.5050 123.95 147.88 11.21
2507 7.5060 120.40 147.84 10.99
2508 7.5070 150.73 147.80 12.31
2509 7.5080 137.66 147.77 11.78
2510 7.5090 122.21 147.73 11.08
2511 7.5100 115.42 147.70 10.76
2512 7.5110 119.65 147.66 11.04
2513 7.5120 143.99 147.62 12.17
2514 7.5130 141.47 147.59 12.14
2515 7.5140 124.49 147.55 11.27
2516 7.5150 116.13 147.52 10.83
2517 7.5160 126.38 147.48 11.23
2518 7.5170 120.74 147.45 11.02
2519 7.5180 126.50 147.41 11.30
2520 7.5190 137.40 147.37 11.76
2521 7.5200 122.29 147.34 11.07
2522 7.5210 139.10 147.30 11.81
2523 7.5220 130.97 147.27 11.54
2524 7.5230 123.83 147.23 11.25
2525 7.5240 130.81 147.19 11.48
2526 7.5250 131.54 147.16 11.48
2527 7.5260 139.81 147.12 11.81
2528 7.5270 125.87 147.09 11.29
2529 7.5280 130.10 147.05 11.51
2530 7.5290 123.39 147.01 11.17
2531 7.5300 138.59 146.98 11.81
2532 7.5310 131.86 146.94 11.53
2533 7.5320 149.16 146.91 12.36
2534 7.5330 145.92 146.87 12.27
2535 7.5340 120.47 146.84 11.05
2536 7.5350 145.41 146.80 12.14
2537 7.5360 139.31 146.76 11.80
2538 7.5370 130.49 146.73 11.51
2539 7.5380 131.53 146.69 11.57
2540 7.5390 133.52 146.66 11.60
2541 7.5400 133.12 146.62 11.59
2542 7.5410 132.89 146.59 11.59
2543 7.5420 136.92 146.55 11.86
2544 7.5430 131.95 146.52 11.66
2545 7.5440 131.60 146.48 11.53
2546 7.5450 132.84 146.44 11.55
2547 7.5460 130.53 146.41 11.36
2548 7.5470 131.99 146.37 11.50
2549 7.5480 138.83 146.34 11.80
2550 7.5490 134.85 146.30 11.58
2551 7.5500 141.25 146.27 11.90
2552 7.5510 117.40 146.23 10.93
2553 7.5520 132.59 146.20 11.73
2554 7.5530 122.38 146.16 11.28
2555 7.5540 135.87 146.12 11.81
2556 7.5550 135.39 146.09 11.68
2557 7.5560 125.27 146.05 11.18
2558 7.5570 134.83 146.02 11.64
2559 7.5580 127.76 145.98 11.34
2560 7.5590 129.86 145.95 11.45
2561 7.5600 110.85 145.91 10.59
2562 7.5610 122.75 145.88 11.19
2563 7.5620 135.64 145.84 11.86
2564 7.5630 138.96 145.81 12.03
2565 7.5640 123.32 145.77 11.23
2566 7.5650 132.56 145.74 11.56
2567 7.5660 134.93 145.70 11.61
2568 7.5670 143.13 145.66 12.03
2569 7.5680 131.85 145.63 11.54
2570 7.5690 128.82 145.60 11.38
2571 7.5700 125.75 145.56 11.22
2572 7.5710 120.56 145.52 11.01
2573 7.5720 132.08 145.49 11.59
2574 7.5730 122.41 145.45 11.17
2575 7.5740 130.48 145.42 11.48
2576 7.5750 141.12 145.38 11.94
2577 7.5760 137.80 145.35 11.77
2578 7.5770 131.35 145.31 11.54
2579 7.5780 130.65 145.28 11.59
2580 7.5790 141.85 145.24 12.02
2581 7.5800 123.16 145.21 11.10
2582 7.5810 120.43 145.17 11.03
2583 7.5820 142.71 145.14 12.07
2584 7.5830 107.73 145.10 10.55
2585 7.5840 126.82 145.07 11.41
2586 7.5850 120.79 145.03 11.06
2587 7.5860 126.00 145.00 11.27
2588 7.5870 127.15 144.96 11.37
2589 7.5880 140.62 144.93 11.97
2590 7.5890 127.94 144.89 11.38
2591 7.5900 133.12 144.86 11.54
2592 7.5910 121.84 144.82 11.16
2593 7.5920 151.20 144.79 12.43
2594 7.5930 134.02 144.75 11.74
2595 7.5940 128.39 144.72 11.40
2596 7.5950 111.85 144.68 10.58
2597 7.5960 128.10 144.65 11.26
2598 7.5970 141.90 144.61 11.92
2599 7.5980 119.59 144.58 10.98
2600 7.5990 146.45 144.54 12.15
2601 7.6000 135.70 144.51 11.68
2602 7.6010 132.23 144.47 11.63
2603 7.6020 124.13 144.44 11.37
2604 7.6030 130.71 144.40 11.67
2605 7.6040 123.12 144.37 11.22
2606 7.6050 145.35 144.33 12.10
2607 7.6060 117.38 144.30 10.86
2608 7.6070 129.51 144.26 11.37
2609 7.6080 129.06 144.23 11.45
2610 7.6090 124.87 144.19 11.23
2611 7.6100 125.88 144.16 11.25
2612 7.6110 115.67 144.12 10.87
2613 7.6120 131.24 144.09 11.64
2614 7.6130 126.34 144.05 11.43
2615 7.6140 125.38 144.02 11.32
2616 7.6150 136.61 143.99 11.73
2617 7.6160 143.60 143.95 11.95
2618 7.6170 140.38 143.92 11.82
2619 7.6180 123.79 143.88 11.14
2620 7.6190 119.06 143.85 10.91
2621 7.6200 127.70 143.81 11.26
2622 7.6210 113.54 143.78 10.71
2623 7.6220 131.26 143.74 11.58
2624 7.6230 134.40 143.71 11.75
2625 7.6240 130.84 143.67 11.53
2626 7.6250 129.76 143.64 11.44
2627 7.6260 129.86 143.60 11.41
2628 7.6270 132.62 143.57 11.58
2629 7.6280 125.24 143.54 11.31
2630 7.6290 124.63 143.50 11.21
2631 7.6300 103.02 143.47 10.20
2632 7.6310 128.51 143.43 11.39
2633 7.6320 125.27 143.40 11.33
2634 7.6330 131.85 143.36 11.65
2635 7.6340 129.86 143.33 11.50
2636 7.6350 117.64 143.29 10.89
2637 7.6360 115.21 143.26 10.75
2638 7.6370 124.05 143.23 11.20
2639 7.6380 118.06 143.19 10.97
2640 7.6390 120.11 143.16 11.01
2641 7.6400 124.06 143.12 11.17
2642 7.6410 114.64 143.09 10.75
2643 7.6420 118.27 143.05 10.99
2644 7.6430 138.99 143.02 11.94
2645 7.6440 137.42 142.98 11.78
2646 7.6450 140.61 142.95 11.86
2647 7.6460 141.80 142.92 11.86
2648 7.6470 135.79 142.88 11.67
2649 7.6480 120.35 142.85 11.00
2650 7.6490 138.36 142.81 11.81
2651 7.6500 132.61 142.78 11.53
2652 7.6510 108.31 142.74 10.52
2653 7.6520 108.23 142.71 10.58
2654 7.6530 146.04 142.68 12.30
2655 7.6540 127.76 142.64 11.43
2656 7.6550 130.97 142.61 11.50
2657 7.6560 115.82 142.57 10.74
2658 7.6570 123.07 142.54 11.12
2659 7.6580 139.71 142.51 11.91
2660 7.6590 123.82 142.47 11.13
2661 7.6600 135.59 142.44 11.67
2662 7.6610 131.93 142.40 11.54
2663 7.6620 144.71 142.37 12.20
2664 7.6630 111.22 142.33 10.73
2665 7.6640 117.08 142.30 10.91
2666 7.6650 111.00 142.27 10.54
2667 7.6660 105.59 142.23 10.24
2668 7.6670 127.69 142.20 11.28
2669 7.6680 127.26 142.16 11.33
2670 7.6690 142.00 142.13 11.92
2671 7.6700 119.02 142.10 10.90
2672 7.6710 139.25 142.06 11.79
2673 7.6720 123.34 142.03 11.21
2674 7.6730 115.04 141.99 10.85
2675 7.6740 113.42 141.96 10.72
2676 7.6750 108.15 141.93 10.44
2677 7.6760 127.73 141.89 11.35
2678 7.6770 118.61 141.86 10.95
2679 7.6780 132.64 141.82 11.63
2680 7.6790 143.40 141.79 12.01
2681 7.6800 129.37 141.76 11.38
2682 7.6810 126.01 141.72 11.28
2683 7.6820 123.46 141.69 11.23
2684 7.6830 147.94 141.65 12.34
2685 7.6840 118.76 141.62 10.96
2686 7.6850 113.68 141.59 10.70
2687 7.6860 120.61 141.55 10.99
2688 7.6870 122.37 141.52 11.13
2689 7.6880 124.99 141.49 11.24
2690 7.6890 146.02 141.45 12.13
2691 7.6900 147.72 141.42 12.20
2692 7.6910 127.19 141.38 11.31
2693 7.6920 123.86 141.35 11.21
2694 7.6930 118.81 141.32 11.03
2695 7.6940 130.42 141.28 11.47
2696 7.6950 103.09 141.25 10.11
2697 7.6960 126.78 141.21 11.24
2698 7.6970 120.40 141.18 11.00
2699 7.6980 123.11 141.15 11.17
2700 7.6990 133.43 141.11 11.63
2701 7.7000 123.31 141.08 11.15
2702 7.7010 129.87 141.05 11.52
2703 7.7020 133.92 141.01 11.73
2704 7.7030 117.70 140.98 11.04
2705 7.7040 134.54 140.95 11.73
2706 7.7050 122.74 140.91 11.09
2707 7.7060 139.54 140.88 11.81
2708 7.7070 121.55 140.85 11.06
2709 7.7080 116.04 140.81 10.82
2710 7.7090 134.99 140.78 11.63
2711 7.7100 130.81 140.74 11.46
2712 7.7110 116.17 140.71 10.87
2713 7.7120 120.21 140.68 11.12
2714 7.7130 125.65 140.64 11.43
2715 7.7140 131.12 140.61 11.57
2716 7.7150 114.86 140.58 10.76
2717 7.7160 120.89 140.54 10.95
2718 7.7170 132.35 140.51 11.47
2719 7.7180 112.72 140.48 10.63
2720 7.7190 129.68 140.44 11.35
2721 7.7200 132.34 140.41 11.52
2722 7.7210 127.96 140.38 11.36
2723 7.7220 128.33 140.34 11.52
2724 7.7230 122.56 140.31 11.27
2725 7.7240 124.99 140.28 11.32
2726 7.7250 131.45 140.24 11.53
2727 7.7260 116.64 140.21 10.85
2728 7.7270 110.14 140.18 10.51
2729 7.7280 125.19 140.14 11.28
2730 7.7290 136.07 140.11 11.72
2731 7.7300 131.18 140.08 11.52
2732 7.7310 128.16 140.04 11.37
2733 7.7320 128.06 140.01 11.51
2734 7.7330 128.81 139.98 11.56
2735 7.7340 121.64 139.94 11.13
2736 7.7350 126.34 139.91 11.30
2737 7.7360 118.59 139.88 10.93
2738 7.7370 104.76 139.84 10.28
2739 7.7380 105.88 139.81 10.39
2740 7.7390 123.32 139.78 11.16
2741 7.7400 145.58 139.74 12.06
2742 7.7410 124.57 139.71 11.20
2743 7.7420 130.68 139.68 11.54
2744 7.7430 123.36 139.64 11.22
2745 7.7440 116.62 139.61 10.87
2746 7.7450 132.79 139.58 11.53
2747 7.7460 121.96 139.54 11.05
2748 7.7470 119.62 139.51 10.98
2749 7.7480 130.54 139.48 11.51
2750 7.7490 125.17 139.45 11.29
2751 7.7500 128.68 139.41 11.38
2752 7.7510 125.12 139.38 11.27
2753 7.7520 140.95 139.35 12.06
2754 7.7530 119.54 139.31 11.11
2755 7.7540 103.15 139.28 10.26
2756 7.7550 129.61 139.25 11.43
2757 7.7560 120.97 139.21 11.02
2758 7.7570 124.79 139.18 11.19
2759 7.7580 127.69 139.15 11.41
2760 7.7590 121.77 139.12 11.12
2761 7.7600 127.56 139.08 11.36
2762 7.7610 125.76 139.05 11.29
2763 7.7620 121.81 139.02 11.26
2764 7.7630 123.78 138.98 11.33
2765 7.7640 145.06 138.95 12.14
2766 7.7650 133.20 138.92 11.58
2767 7.7660 123.23 138.88 11.08
2768 7.7670 120.22 138.85 10.98
2769 7.7680 103.85 138.82 10.25
2770 7.7690 119.91 138.79 10.96
2771 7.7700 117.14 138.75 10.87
2772 7.7710 125.12 138.72 11.26
2773 7.7720 125.83 138.69 11.40
2774 7.7730 108.93 138.65 10.63
2775 7.7740 140.42 138.62 11.98
2776 7.7750 125.60 138.59 11.26
2777 7.7760 120.92 138.56 11.05
2778 7.7770 124.52 138.52 11.22
2779 7.7780 121.48 138.49 11.13
2780 7.7790 130.55 138.46 11.47
2781 7.7800 115.71 138.43 10.78
2782 7.7810 129.17 138.39 11.44
2783 7.7820 106.06 138.36 10.46
2784 7.7830 116.31 138.33 10.98
2785 7.7840 131.10 138.29 11.61
2786 7.7850 136.94 138.26 11.78
2787 7.7860 126.16 138.23 11.27
2788 7.7870 118.32 138.20 10.92
2789 7.7880 106.03 138.16 10.39
2790 7.7890 126.57 138.13 11.25
2791 7.7900 135.65 138.10 11.68
2792 7.7910 122.09 138.07 11.09
2793 7.7920 127.82 138.03 11.42
2794 7.7930 124.60 138.00 11.31
2795 7.7940 119.70 137.97 11.05
2796 7.7950 123.16 137.94 11.13
2797 7.7960 114.36 137.90 10.71
2798 7.7970 110.39 137.87 10.58
2799 7.7980 122.11 137.84 11.16
2800 7.7990 135.59 137.81 11.74
2801 7.8000 142.13 137.77 11.98
2802 7.8010 115.29 137.74 10.85
2803 7.8020 116.50 137.71 10.94
2804 7.8030 113.57 137.68 10.84
2805 7.8040 121.15 137.64 11.11
2806 7.8050 119.70 137.61 10.99
2807 7.8060 112.20 137.58 10.62
2808 7.8070 110.69 137.55 10.59
2809 7.8080 118.28 137.51 10.99
2810 7.8090 114.22 137.48 10.75
2811 7.8100 108.99 137.45 10.52
2812 7.8110 121.65 137.42 11.11
2813 7.8120 114.87 137.38 10.86
2814 7.8130 128.91 137.35 11.50
2815 7.8140 100.88 137.32 10.12
2816 7.8150 126.41 137.29 11.26
2817 7.8160 127.67 137.26 11.28
2818 7.8170 125.75 137.22 11.25
2819 7.8180 135.14 137.19 11.73
2820 7.8190 129.45 137.16 11.42
2821 7.8200 105.02 137.13 10.28
2822 7.8210 116.49 137.09 10.86
2823 7.8220 122.98 137.06 11.26
2824 7.8230 122.42 137.03 11.25
2825 7.8240 109.14 137.00 10.61
2826 7.8250 118.23 136.97 10.94
2827 7.8260 124.30 136.93 11.18
2828 7.8270 104.39 136.90 10.29
2829 7.8280 130.47 136.87 11.52
2830 7.8290 128.77 136.84 11.39
2831 7.8300 127.46 136.80 11.34
2832 7.8310 115.62 136.77 10.83
2833 7.8320 106.62 136.74 10.49
2834 7.8330 141.59 136.71 12.10
2835 7.8340 129.50 136.68 11.54
2836 7.8350 125.03 136.65 11.27
2837 7.8360 133.28 136.61 11.56
2838 7.8370 121.80 136.58 11.06
2839 7.8380 114.00 136.55 10.76
2840 7.8390 115.44 136.52 10.75
2841 7.8400 120.66 136.48 10.95
2842 7.8410 131.66 136.45 11.52
2843 7.8420 111.51 136.42 10.73
2844 7.8430 115.92 136.39 11.00
2845 7.8440 116.52 136.36 10.87
2846 7.8450 118.40 136.32 10.93
2847 7.8460 120.11 136.29 11.00
2848 7.8470 120.52 136.26 11.04
2849 7.8480 105.33 136.23 10.33
2850 7.8490 133.03 136.20 11.62
2851 7.8500 108.20 136.16 10.47
2852 7.8510 120.84 136.13 11.12
2853 7.8520 118.25 136.10 11.05
2854 7.8530 112.80 136.07 10.81
2855 7.8540 118.98 136.04 11.03
2856 7.8550 122.73 136.01 11.13
2857 7.8560 130.65 135.97 11.44
2858 7.8570 116.88 135.94 10.89
2859 7.8580 124.49 135.91 11.25
2860 7.8590 117.25 135.88 10.89
2861 7.8600 98.22 135.85 9.97
2862 7.8610 105.07 135.82 10.33
2863 7.8620 99.23 135.78 10.08
2864 7.8630 125.47 135.75 11.38
2865 7.8640 107.46 135.72 10.42
2866 7.8650 114.93 135.69 10.73
2867 7.8660 109.42 135.66 10.45
2868 7.8670 127.25 135.62 11.31
2869 7.8680 119.48 135.59 11.00
2870 7.8690 127.68 135.56 11.35
2871 7.8700 116.95 135.53 10.82
2872 7.8710 129.29 135.50 11.48
2873 7.8720 117.05 135.47 10.98
2874 7.8730 126.14 135.43 11.41
2875 7.8740 117.47 135.40 11.00
2876 7.8750 152.11 135.37 12.44
2877 7.8760 128.03 135.34 11.36
2878 7.8770 122.01 135.31 11.11
2879 7.8780 125.05 135.28 11.26
2880 7.8790 119.06 135.24 10.99
2881 7.8800 125.89 135.21 11.25
2882 7.8810 125.30 135.18 11.27
2883 7.8820 129.16 135.15 11.51
2884 7.8830 114.89 135.12 10.89
2885 7.8840 103.45 135.09 10.28
2886 7.8850 151.07 135.06 12.32
2887 7.8860 105.95 135.02 10.26
2888 7.8870 121.67 134.99 11.06
2889 7.8880 129.78 134.96 11.49
2890 7.8890 139.84 134.93 11.85
2891 7.8900 137.27 134.90 11.69
2892 7.8910 118.85 134.87 10.93
2893 7.8920 121.50 134.84 11.13
2894 7.8930 122.97 134.80 11.18
2895 7.8940 107.01 134.77 10.43
2896 7.8950 116.90 134.74 10.86
2897 7.8960 124.76 134.71 11.22
2898 7.8970 123.33 134.68 11.16
2899 7.8980 117.07 134.65 10.94
2900 7.8990 133.80 134.62 11.63
2901 7.9000 111.84 134.59 10.67
2902 7.9010 122.70 134.55 11.17
2903 7.9020 138.49 134.52 11.91
2904 7.9030 134.06 134.49 11.75
2905 7.9040 106.49 134.46 10.43
2906 7.9050 111.82 134.43 10.58
2907 7.9060 126.49 134.40 11.25
2908 7.9070 126.94 134.37 11.29
2909 7.9080 121.28 134.34 11.09
2910 7.9090 131.50 134.30 11.51
2911 7.9100 102.62 134.27 10.16
2912 7.9110 129.52 134.24 11.47
2913 7.9120 124.77 134.21 11.35
2914 7.9130 125.98 134.18 11.37
2915 7.9140 126.27 134.15 11.31
2916 7.9150 120.41 134.12 10.96
2917 7.9160 120.85 134.09 10.98
2918 7.9170 114.46 134.05 10.71
2919 7.9180 114.65 134.02 10.79
2920 7.9190 123.77 133.99 11.14
2921 7.9200 140.98 133.96 11.93
2922 7.9210 130.58 133.93 11.53
2923 7.9220 113.91 133.90 10.84
2924 7.9230 126.14 133.87 11.44
2925 7.9240 125.19 133.84 11.30
2926 7.9250 134.72 133.81 11.68
2927 7.9260 118.01 133.78 10.91
2928 7.9270 114.59 133.74 10.75
2929 7.9280 124.46 133.71 11.23
2930 7.9290 114.79 133.68 10.76
2931 7.9300 133.60 133.65 11.59
2932 7.9310 114.68 133.62 10.78
2933 7.9320 117.04 133.59 10.97
2934 7.9330 123.79 133.56 11.33
2935 7.9340 130.01 133.53 11.53
2936 7.9350 112.29 133.50 10.64
2937 7.9360 120.63 133.47 10.98
2938 7.9370 117.79 133.43 10.89
2939 7.9380 119.10 133.40 11.00
2940 7.9390 130.87 133.37 11.46
2941 7.9400 114.38 133.34 10.68
2942 7.9410 120.63 133.31 11.05
2943 7.9420 110.26 133.28 10.61
2944 7.9430 110.98 133.25 10.70
2945 7.9440 110.47 133.22 10.62
2946 7.9450 114.95 133.19 10.78
2947 7.9460 114.94 133.16 10.72
2948 7.9470 126.12 133.13 11.28
2949 7.9480 108.07 133.10 10.55
2950 7.9490 120.39 133.07 11.06
2951 7.9500 114.79 133.04 10.79
2952 7.9510 132.10 133.00 11.58
2953 7.9520 122.28 132.97 11.24
2954 7.9530 129.75 132.94 11.56
2955 7.9540 122.99 132.91 11.18
2956 7.9550 103.81 132.88 10.23
2957 7.9560 116.29 132.85 10.80
2958 7.9570 95.63 132.82 9.83
2959 7.9580 128.03 132.79 11.44
2960 7.9590 132.84 132.76 11.61
2961 7.9600 125.87 132.73 11.25
2962 7.9610 115.19 132.70 10.77
2963 7.9620 103.94 132.67 10.33
2964 7.9630 124.61 132.64 11.33
2965 7.9640 137.12 132.61 11.81
2966 7.9650 117.86 132.57 10.84
2967 7.9660 108.09 132.54 10.41
2968 7.9670 133.21 132.51 11.58
2969 7.9680 113.10 132.48 10.69
2970 7.9690 124.98 132.45 11.23
2971 7.9700 118.73 132.42 10.99
2972 7.9710 117.17 132.39 10.90
2973 7.9720 108.92 132.36 10.62
2974 7.9730 105.34 132.33 10.47
2975 7.9740 103.94 132.30 10.33
2976 7.9750 118.24 132.27 10.96
2977 7.9760 117.56 132.24 10.87
2978 7.9770 114.62 132.21 10.72
2979 7.9780 124.69 132.18 11.26
2980 7.9790 122.96 132.15 11.15
2981 7.9800 115.94 132.12 10.80
2982 7.9810 106.10 132.09 10.34
2983 7.9820 134.21 132.06 11.79
2984 7.9830 124.62 132.03 11.35
2985 7.9840 123.51 132.00 11.26
2986 7.9850 126.75 131.97 11.29
2987 7.9860 120.57 131.94 10.97
2988 7.9870 119.21 131.91 10.97
2989 7.9880 124.74 131.88 11.24
2990 7.9890 124.30 131.85 11.18
2991 7.9900 130.92 131.82 11.47
2992 7.9910 127.96 131.79 11.38
2993 7.9920 113.55 131.75 10.79
2994 7.9930 125.12 131.72 11.37
2995 7.9940 129.53 131.69 11.51
2996 7.9950 132.02 131.66 11.58
2997 7.9960 134.21 131.63 11.65
2998 7.9970 122.16 131.60 11.11
2999 7.9980 98.22 131.57 10.03
3000 7.9990 90.03 131.54 9.56
3001 8.0000 116.69 131.51 10.88
3002 8.0010 117.43 131.48 10.91
3003 8.0020 125.04 131.45 11.34
3004 8.0030 110.73 131.42 10.68
3005 8.0040 128.03 131.39 11.43
3006 8.0050 112.11 131.36 10.68
3007 8.0060 121.28 131.33 11.00
3008 8.0070 138.35 131.30 11.82
3009 8.0080 110.95 131.27 10.67
3010 8.0090 104.04 131.24 10.29
3011 8.0100 141.12 131.21 11.93
3012 8.0110 121.29 131.18 11.08
3013 8.0120 119.27 131.15 11.08
3014 8.0130 106.31 131.12 10.46
3015 8.0140 102.60 131.09 10.22
3016 8.0150 115.09 131.06 10.75
3017 8.0160 123.29 131.03 11.13
3018 8.0170 139.31 131.00 11.86
3019 8.0180 143.26 130.97 12.09
3020 8.0190 107.91 130.94 10.44
3021 8.0200 121.99 130.91 11.13
3022 8.0210 126.11 130.88 11.34
3023 8.0220 107.07 130.85 10.54
3024 8.0230 103.88 130.82 10.38
3025 8.0240 118.06 130.79 11.00
3026 8.0250 125.58 130.76 11.29
3027 8.0260 110.21 130.73 10.52
3028 8.0270 127.03 130.70 11.29
3029 8.0280 126.24 130.67 11.32
3030 8.0290 110.32 130.64 10.60
3031 8.0300 129.73 130.61 11.45
3032 8.0310 139.34 130.58 11.86
3033 8.0320 116.78 130.55 10.98
3034 8.0330 129.24 130.52 11.55
3035 8.0340 114.98 130.49 10.87
3036 8.0350 99.64 130.46 10.01
3037 8.0360 120.59 130.43 10.99
3038 8.0370 123.90 130.40 11.18
3039 8.0380 124.46 130.38 11.25
3040 8.0390 131.57 130.35 11.51
3041 8.0400 103.53 130.32 10.17
3042 8.0410 98.87 130.29 10.04
3043 8.0420 114.62 130.26 10.82
3044 8.0430 117.48 130.23 11.01
3045 8.0440 127.39 130.20 11.42
3046 8.0450 111.85 130.17 10.64
3047 8.0460 113.99 130.14 10.72
3048 8.0470 131.16 130.11 11.56
3049 8.0480 106.74 130.08 10.45
3050 8.0490 108.02 130.05 10.47
3051 8.0500 113.20 130.02 10.72
3052 8.0510 116.72 129.99 10.86
3053 8.0520 111.08 129.96 10.65
3054 8.0530 116.71 129.93 11.00
3055 8.0540 125.72 129.90 11.30
3056 8.0550 121.09 129.87 11.04
3057 8.0560 141.68 129.84 11.91
3058 8.0570 115.60 129.81 10.80
3059 8.0580 129.08 129.78 11.48
3060 8.0590 110.43 129.75 10.57
3061 8.0600 117.45 129.72 10.88
3062 8.0610 128.95 129.69 11.42
3063 8.0620 115.33 129.66 10.88
3064 8.0630 104.56 129.63 10.36
3065 8.0640 111.72 129.61 10.61
3066 8.0650 113.70 129.58 10.70
3067 8.0660 127.65 129.55 11.30
3068 8.0670 104.08 129.52 10.25
3069 8.0680 127.07 129.49 11.35
3070 8.0690 122.43 129.46 11.13
3071 8.0700 130.16 129.43 11.46
3072 8.0710 130.65 129.40 11.53
3073 8.0720 109.39 129.37 10.62
3074 8.0730 104.62 129.34 10.45
3075 8.0740 115.41 129.31 10.88
3076 8.0750 108.24 129.28 10.47
3077 8.0760 121.39 129.25 11.00
3078 8.0770 119.03 129.22 10.96
3079 8.0780 120.43 129.20 11.05
3080 8.0790 146.29 129.17 12.13
3081 8.0800 113.79 129.14 10.65
3082 8.0810 114.19 129.11 10.79
3083 8.0820 110.06 129.08 10.64
3084 8.0830 109.68 129.05 10.68
3085 8.0840 121.57 129.02 11.12
3086 8.0850 133.64 128.99 11.58
3087 8.0860 124.63 128.96 11.14
3088 8.0870 137.67 128.93 11.73
3089 8.0880 119.50 128.90 10.97
3090 8.0890 135.00 128.87 11.61
3091 8.0900 115.07 128.84 10.74
3092 8.0910 120.81 128.82 11.05
3093 8.0920 139.83 128.79 11.98
3094 8.0930 99.31 128.76 10.12
3095 8.0940 112.65 128.73 10.72
3096 8.0950 109.01 128.70 10.50
3097 8.0960 129.15 128.67 11.37
3098 8.0970 111.18 128.64 10.58
3099 8.0980 121.52 128.61 11.12
3100 8.0990 108.70 128.58 10.51
3101 8.1000 114.00 128.55 10.73
3102 8.1010 109.43 128.52 10.51
3103 8.1020 110.81 128.50 10.65
3104 8.1030 122.02 128.47 11.18
3105 8.1040 126.88 128.44 11.33
3106 8.1050 118.89 128.41 10.94
3107 8.1060 105.94 128.38 10.25
3108 8.1070 98.99 128.35 9.96
3109 8.1080 121.51 128.32 11.11
3110 8.1090 108.38 128.29 10.45
3111 8.1100 109.48 128.26 10.48
3112 8.1110 107.11 128.24 10.39
3113 8.1120 123.46 128.21 11.25
3114 8.1130 118.16 128.18 11.00
3115 8.1140 105.61 128.15 10.35
3116 8.1150 101.74 128.12 10.09
3117 8.1160 105.77 128.09 10.27
3118 8.1170 103.54 128.06 10.23
3119 8.1180 107.73 128.03 10.47
3120 8.1190 114.13 128.00 10.71
3121 8.1200 109.22 127.97 10.51
3122 8.1210 110.85 127.95 10.63
3123 8.1220 125.42 127.92 11.36
3124 8.1230 106.52 127.89 10.55
3125 8.1240 110.82 127.86 10.64
3126 8.1250 103.64 127.83 10.22
3127 8.1260 106.34 127.80 10.31
3128 8.1270 132.25 127.77 11.49
3129 8.1280 140.52 127.75 11.93
3130 8.1290 122.04 127.72 11.05
3131 8.1300 125.75 127.69 11.23
3132 8.1310 133.32 127.66 11.58
3133 8.1320 121.18 127.63 11.15
3134 8.1330 137.40 127.60 11.89
3135 8.1340 115.59 127.57 10.83
3136 8.1350 118.59 127.54 10.91
3137 8.1360 106.43 127.52 10.31
3138 8.1370 122.52 127.49 11.09
3139 8.1380 105.95 127.46 10.33
3140 8.1390 124.26 127.43 11.15
3141 8.1400 110.84 127.40 10.52
3142 8.1410 114.47 127.37 10.78
3143 8.1420 141.61 127.34 12.06
3144 8.1430 117.65 127.32 11.00
3145 8.1440 117.48 127.29 10.94
3146 8.1450 130.54 127.26 11.52
3147 8.1460 113.27 127.23 10.70
3148 8.1470 119.78 127.20 10.98
3149 8.1480 133.89 127.17 11.69
3150 8.1490 100.90 127.14 10.11
3151 8.1500 128.09 127.12 11.32
3152 8.1510 115.97 127.09 10.84
3153 8.1520 130.66 127.06 11.54
3154 8.1530 115.03 127.03 10.88
3155 8.1540 119.01 127.00 11.01
3156 8.1550 118.34 126.97 10.90
3157 8.1560 123.17 126.94 11.10
3158 8.1570 107.62 126.92 10.41
3159 8.1580 109.33 126.89 10.49
3160 8.1590 118.44 126.86 10.90
3161 8.1600 119.69 126.83 10.95
3162 8.1610 119.22 126.80 10.99
3163 8.1620 130.64 126.78 11.55
3164 8.1630 116.00 126.75 10.91
3165 8.1640 130.52 126.72 11.50
3166 8.1650 121.71 126.69 11.06
3167 8.1660 128.52 126.66 11.34
3168 8.1670 129.09 126.63 11.40
3169 8.1680 105.97 126.61 10.40
3170 8.1690 113.58 126.58 10.73
3171 8.1700 105.15 126.55 10.30
3172 8.1710 101.20 126.52 10.12
3173 8.1720 118.70 126.49 11.08
3174 8.1730 120.81 126.46 11.22
3175 8.1740 127.36 126.43 11.41
3176 8.1750 119.57 126.41 10.97
3177 8.1760 130.25 126.38 11.38
3178 8.1770 118.60 126.35 10.91
3179 8.1780 116.51 126.32 10.84
3180 8.1790 101.55 126.29 10.08
3181 8.1800 107.75 126.27 10.39
3182 8.1810 122.30 126.24 11.11
3183 8.1820 111.60 126.21 10.70
3184 8.1830 111.46 126.18 10.74
3185 8.1840 106.21 126.15 10.42
3186 8.1850 145.50 126.13 12.11
3187 8.1860 108.18 126.10 10.41
3188 8.1870 133.28 126.07 11.55
3189 8.1880 116.41 126.04 10.82
3190 8.1890 121.57 126.01 11.05
3191 8.1900 140.66 125.99 11.89
3192 8.1910 120.87 125.96 11.09
3193 8.1920 132.29 125.93 11.67
3194 8.1930 92.15 125.90 9.79
3195 8.1940 110.86 125.87 10.68
3196 8.1950 127.36 125.85 11.38
3197 8.1960 145.90 125.82 12.13
3198 8.1970 118.72 125.79 10.98
3199 8.1980 116.55 125.76 10.90
3200 8.1990 129.07 125.73 11.40
3201 8.2000 123.61 125.71 11.14
3202 8.2010 132.09 125.68 11.57
3203 8.2020 127.95 125.65 11.48
3204 8.2030 118.26 125.62 11.02
3205 8.2040 114.48 125.59 10.78
3206 8.2050 111.48 125.57 10.62
3207 8.2060 98.96 125.54 9.97
3208 8.2070 115.47 125.51 10.77
3209 8.2080 102.82 125.48 10.24
3210 8.2090 109.06 125.45 10.50
3211 8.2100 115.42 125.43 10.78
3212 8.2110 109.18 125.40 10.50
3213 8.2120 126.31 125.37 11.36
3214 8.2130 112.06 125.34 10.77
3215 8.2140 113.06 125.32 10.70
3216 8.2150 141.29 125.29 11.95
3217 8.2160 139.15 125.26 11.82
3218 8.2170 125.49 125.23 11.28
3219 8.2180 133.01 125.20 11.65
3220 8.2190 111.74 125.18 10.66
3221 8.2200 120.98 125.15 11.04
3222 8.2210 109.88 125.12 10.59
3223 8.2220 123.34 125.09 11.25
3224 8.2230 117.23 125.07 11.00
3225 8.2240 114.17 125.04 10.79
3226 8.2250 110.99 125.01 10.58
3227 8.2260 112.15 124.98 10.58
3228 8.2270 107.39 124.96 10.37
3229 8.2280 103.77 124.93 10.24
3230 8.2290 113.80 124.90 10.73
3231 8.2300 121.98 124.87 11.03
3232 8.2310 137.88 124.85 11.79
3233 8.2320 133.38 124.82 11.71
3234 8.2330 122.79 124.79 11.30
3235 8.2340 123.46 124.76 11.25
3236 8.2350 120.82 124.73 11.02
3237 8.2360 122.66 124.71 11.04
3238 8.2370 124.25 124.68 11.18
3239 8.2380 124.13 124.65 11.20
3240 8.2390 128.25 124.62 11.41
3241 8.2400 125.27 124.60 11.21
3242 8.2410 112.54 124.57 10.70
3243 8.2420 108.68 124.54 10.57
3244 8.2430 115.92 124.51 10.92
3245 8.2440 124.99 124.49 11.30
3246 8.2450 141.75 124.46 12.00
3247 8.2460 121.98 124.43 11.09
3248 8.2470 119.58 124.40 11.01
3249 8.2480 111.67 124.38 10.62
3250 8.2490 101.43 124.35 10.10
3251 8.2500 119.66 124.32 10.92
3252 8.2510 114.91 124.29 10.74
3253 8.2520 128.76 124.27 11.45
3254 8.2530 120.81 124.24 11.12
3255 8.2540 118.83 124.21 10.97
3256 8.2550 102.93 124.18 10.13
3257 8.2560 119.03 124.16 10.88
3258 8.2570 126.31 124.13 11.31
3259 8.2580 108.87 124.10 10.52
3260 8.2590 106.94 124.08 10.39
3261 8.2600 126.43 124.05 11.29
3262 8.2610 127.80 124.02 11.37
3263 8.2620 127.71 123.99 11.42
3264 8.2630 133.92 123.97 11.72
3265 8.2640 129.04 123.94 11.41
3266 8.2650 113.90 123.91 10.71
3267 8.2660 115.01 123.89 10.72
3268 8.2670 109.52 123.86 10.47
3269 8.2680 125.38 126.38 11.31
3270 8.2690 133.47 127.62 11.65
3271 8.2700 116.81 127.63 10.89
3272 8.2710 107.90 127.65 10.49
3273 8.2720 130.59 127.67 11.58
3274 8.2730 119.58 127.69 11.11
3275 8.2740 122.43 127.71 11.16
3276 8.2750 114.46 127.73 10.71
3277 8.2760 102.01 127.75 10.06
3278 8.2770 150.35 127.77 12.27
3279 8.2780 142.23 127.80 11.98
3280 8.2790 136.35 127.82 11.70
3281 8.2800 110.60 127.85 10.53
3282 8.2810 109.73 127.87 10.59
3283 8.2820 119.00 127.90 11.05
3284 8.2830 116.22 127.93 10.95
3285 8.2840 133.50 127.96 11.65
3286 8.2850 105.95 127.99 10.33
3287 8.2860 126.62 128.02 11.17
3288 8.2870 116.27 128.05 10.79
3289 8.2880 119.17 128.08 10.92
3290 8.2890 124.18 128.12 11.17
3291 8.2900 131.85 128.15 11.51
3292 8.2910 112.91 128.19 10.69
3293 8.2920 123.38 128.23 11.28
3294 8.2930 102.56 128.27 10.34
3295 8.2940 116.85 128.31 10.95
3296 8.2950 127.11 128.35 11.30
3297 8.2960 124.96 128.40 11.23
3298 8.2970 122.02 128.44 11.07
3299 8.2980 120.49 128.49 11.07
3300 8.2990 129.04 128.54 11.36
3301 8.3000 122.25 128.59 11.06
3302 8.3010 121.22 128.64 11.08
3303 8.3020 128.36 128.70 11.51
3304 8.3030 125.03 128.75 11.34
3305 8.3040 106.55 128.81 10.39
3306 8.3050 105.07 128.87 10.31
3307 8.3060 134.01 128.93 11.55
3308 8.3070 106.70 128.99 10.31
3309 8.3080 124.21 129.05 11.24
3310 8.3090 145.91 129.12 12.10
3311 8.3100 110.15 129.19 10.49
3312 8.3110 114.45 129.26 10.70
3313 8.3120 104.57 129.33 10.35
3314 8.3130 133.68 129.41 11.73
3315 8.3140 144.81 129.49 12.10
3316 8.3150 138.18 129.57 11.75
3317 8.3160 137.07 129.65 11.70
3318 8.3170 124.22 129.73 11.21
3319 8.3180 114.10 129.82 10.76
3320 8.3190 127.11 129.91 11.31
3321 8.3200 120.98 130.01 11.08
3322 8.3210 125.43 130.10 11.30
3323 8.3220 124.17 130.20 11.28
3324 8.3230 110.76 130.30 10.68
3325 8.3240 139.11 130.41 11.87
3326 8.3250 131.37 130.52 11.54
3327 8.3260 137.14 130.63 11.65
3328 8.3270 131.19 130.75 11.44
3329 8.3280 150.94 130.87 12.33
3330 8.3290 117.83 130.99 10.86
3331 8.3300 137.94 131.12 11.74
3332 8.3310 121.37 131.25 11.06
3333 8.3320 127.01 131.39 11.40
3334 8.3330 126.06 131.53 11.42
3335 8.3340 119.93 131.67 11.04
3336 8.3350 136.04 131.82 11.65
3337 8.3360 128.69 131.98 11.30
3338 8.3370 118.91 132.13 10.91
3339 8.3380 122.93 132.30 11.12
3340 8.3390 138.70 132.47 11.77
3341 8.3400 133.44 132.65 11.60
3342 8.3410 115.02 132.83 10.80
3343 8.3420 132.83 133.02 11.71
3344 8.3430 132.16 133.21 11.65
3345 8.3440 130.46 133.41 11.52
3346 8.3450 140.07 133.62 11.89
3347 8.3460 131.45 133.84 11.50
3348 8.3470 108.78 134.06 10.44
3349 8.3480 120.56 134.29 11.01
3350 8.3490 178.49 134.53 13.35
3351 8.3500 131.49 134.77 11.45
3352 8.3510 124.25 135.03 11.14
3353 8.3520 118.56 135.29 10.99
3354 8.3530 122.97 135.57 11.20
3355 8.3540 131.40 135.85 11.52
3356 8.3550 131.68 136.15 11.50
3357 8.3560 140.02 136.45 11.86
3358 8.3570 124.83 136.77 11.21
3359 8.3580 126.25 137.10 11.28
3360 8.3590 125.49 137.44 11.22
3361 8.3600 134.10 137.80 11.57
3362 8.3610 136.43 138.17 11.72
3363 8.3620 146.23 138.55 12.19
3364 8.3630 135.51 138.95 11.77
3365 8.3640 156.17 139.36 12.57
3366 8.3650 134.03 139.79 11.66
3367 8.3660 132.00 140.24 11.49
3368 8.3670 145.15 140.71 12.07
3369 8.3680 118.52 141.20 11.00
3370 8.3690 150.12 141.70 12.33
3371 8.3700 131.39 142.23 11.54
3372 8.3710 116.49 142.78 10.84
3373 8.3720 115.43 143.36 10.86
3374 8.3730 129.54 143.96 11.53
3375 8.3740 138.46 144.59 11.82
3376 8.3750 150.54 145.24 12.24
3377 8.3760 147.75 145.93 12.10
3378 8.3770 142.01 146.64 11.93
3379 8.3780 128.20 147.40 11.36
3380 8.3790 139.22 148.18 11.83
3381 8.3800 129.03 149.01 11.40
3382 8.3810 130.89 149.87 11.52
3383 8.3820 134.78 150.78 11.75
3384 8.3830 139.46 151.74 12.01
3385 8.3840 160.13 152.74 12.73
3386 8.3850 154.23 153.79 12.41
3387 8.3860 126.52 154.90 11.20
3388 8.3870 138.62 156.07 11.77
3389 8.3880 139.76 157.31 11.90
3390 8.3890 140.63 158.61 11.91
3391 8.3900 144.02 159.99 12.02
3392 8.3910 162.40 161.44 12.80
3393 8.3920 145.17 162.98 12.24
3394 8.3930 141.97 164.61 12.11
3395 8.3940 149.50 166.34 12.32
3396 8.3950 136.15 168.18 11.72
3397 8.3960 155.68 170.13 12.50
3398 8.3970 164.90 172.21 12.86
3399 8.3980 160.87 174.43 12.70
3400 8.3990 152.94 176.79 12.34
3401 8.4000 154.11 179.32 12.42
3402 8.4010 170.69 182.02 13.13
3403 8.4020 169.28 184.91 13.12
3404 8.4030 174.93 188.02 13.34
3405 8.4040 142.11 191.36 12.03
3406 8.4050 165.23 194.96 12.90
3407 8.4060 163.96 198.84 12.80
3408 8.4070 164.28 203.04 12.82
3409 8.4080 180.92 207.58 13.51
3410 8.4090 165.98 212.51 12.86
3411 8.4100 183.32 217.88 13.50
3412 8.4110 188.01 223.73 13.73
3413 8.4120 208.26 230.12 14.57
3414 8.4130 196.85 237.13 14.21
3415 8.4140 195.86 244.82 14.08
3416 8.4150 206.21 253.31 14.39
3417 8.4160 205.86 262.70 14.35
3418 8.4170 229.68 273.12 15.22
3419 8.4180 231.58 284.71 15.31
3420 8.4190 236.66 297.68 15.40
3421 8.4200 241.98 312.25 15.62
3422 8.4210 246.46 328.65 15.75
3423 8.4220 278.83 347.27 16.83
3424 8.4230 293.49 368.50 17.25
3425 8.4240 341.71 392.77 18.56
3426 8.4250 312.75 420.82 17.67
3427 8.4260 361.72 453.36 18.93
3428 8.4270 358.25 491.46 18.88
3429 8.4280 429.19 536.38 20.87
3430 8.4290 493.12 589.87 22.30
3431 8.4300 536.76 654.27 23.21
3432 8.4310 632.66 732.52 25.28
3433 8.4320 785.94 829.20 28.35
3434 8.4330 917.47 950.33 30.76
3435 8.4340 1144.61 1105.98 33.95
3436 8.4350 1411.48 1314.77 37.64
3437 8.4360 1827.54 1615.67 42.93
3438 8.4370 2464.34 2096.49 49.85
3439 8.4380 3403.41 2934.10 59.03
3440 8.4390 4791.50 4439.82 70.00
3441 8.4400 7137.72 7020.77 86.31
3442 8.4410 10518.10 11023.50 105.95
3443 8.4420 15024.30 16410.70 129.35
3444 8.4430 21321.20 22283.70 155.86
3445 8.4440 27444.90 26508.90 178.85
3446 8.4450 28390.20 26692.20 180.99
3447 8.4460 22997.20 22772.80 160.06
3448 8.4470 16200.70 17003.70 132.34
3449 8.4480 10650.90 11535.30 106.02
3450 8.4490 7059.52 7386.18 85.68
3451 8.4500 4925.21 4671.68 70.88
3452 8.4510 3517.67 3069.87 59.77
3453 8.4520 2523.00 2172.32 51.07
3454 8.4530 1900.26 1659.85 44.41
3455 8.4540 1536.94 1342.90 39.61
3456 8.4550 1171.98 1125.79 34.39
3457 8.4560 981.47 964.99 31.29
3458 8.4570 828.66 840.60 28.89
3459 8.4580 671.05 741.49 26.02
3460 8.4590 585.91 661.34 24.15
3461 8.4600 491.72 595.51 22.20
3462 8.4610 457.35 540.91 21.48
3463 8.4620 414.11 495.09 20.52
3464 8.4630 369.60 456.26 19.54
3465 8.4640 325.59 423.15 18.17
3466 8.4650 307.31 394.60 17.63
3467 8.4660 310.50 369.88 17.72
3468 8.4670 265.91 348.31 16.42
3469 8.4680 249.15 329.37 15.94
3470 8.4690 239.67 312.68 15.57
3471 8.4700 232.77 297.88 15.31
3472 8.4710 250.80 284.71 15.91
3473 8.4720 224.49 272.91 15.15
3474 8.4730 216.76 262.33 14.87
3475 8.4740 211.89 252.79 14.62
3476 8.4750 210.30 244.15 14.52
3477 8.4760 172.43 236.32 13.11
3478 8.4770 163.45 229.20 12.83
3479 8.4780 182.54 222.69 13.61
3480 8.4790 171.39 216.73 13.16
3481 8.4800 186.97 211.27 13.76
3482 8.4810 160.05 206.24 12.75
3483 8.4820 156.26 201.61 12.65
3484 8.4830 156.00 197.33 12.69
3485 8.4840 164.89 193.36 12.93
3486 8.4850 174.26 189.68 13.21
3487 8.4860 176.97 186.26 13.30
3488 8.4870 164.42 183.08 12.84
3489 8.4880 142.57 180.12 12.04
3490 8.4890 165.55 177.34 12.93
3491 8.4900 136.36 174.75 11.75
3492 8.4910 137.59 172.32 11.86
3493 8.4920 134.05 170.04 11.80
3494 8.4930 131.81 167.89 11.69
3495 8.4940 154.66 165.87 12.58
3496 8.4950 172.43 163.98 13.15
3497 8.4960 146.88 162.18 12.08
3498 8.4970 144.27 160.49 12.04
3499 8.4980 166.35 158.89 12.94
3500 8.4990 157.66 157.38 12.55
3501 8.5000 152.47 155.94 12.39
3502 8.5010 140.93 154.58 11.95
3503 8.5020 141.62 153.29 12.09
3504 8.5030 136.00 152.06 11.86
3505 8.5040 131.02 150.89 11.58
3506 8.5050 139.53 149.78 11.85
3507 8.5060 145.37 148.72 12.07
3508 8.5070 128.81 147.71 11.36
3509 8.5080 154.40 146.75 12.47
3510 8.5090 157.53 145.83 12.58
3511 8.5100 141.99 144.95 11.95
3512 8.5110 115.88 144.11 10.87
3513 8.5120 108.40 143.30 10.63
3514 8.5130 130.58 142.53 11.69
3515 8.5140 148.56 141.79 12.36
3516 8.5150 134.96 141.08 11.73
3517 8.5160 127.60 140.40 11.33
3518 8.5170 116.75 139.75 10.94
3519 8.5180 130.60 139.12 11.52
3520 8.5190 129.39 138.51 11.42
3521 8.5200 130.51 137.93 11.47
3522 8.5210 119.94 137.37 11.04
3523 8.5220 154.56 136.83 12.59
3524 8.5230 137.37 136.31 11.94
3525 8.5240 137.79 135.81 11.86
3526 8.5250 119.55 135.33 10.96
3527 8.5260 124.99 134.86 11.19
3528 8.5270 134.57 134.41 11.64
3529 8.5280 129.33 133.98 11.48
3530 8.5290 146.18 133.55 12.16
3531 8.5300 143.10 133.15 12.01
3532 8.5310 133.88 132.75 11.67
3533 8.5320 134.03 132.37 11.73
3534 8.5330 120.32 132.00 11.15
3535 8.5340 100.85 131.64 10.13
3536 8.5350 124.18 131.30 11.20
3537 8.5360 114.58 130.96 10.72
3538 8.5370 121.57 130.63 11.10
3539 8.5380 129.47 130.32 11.49
3540 8.5390 143.72 130.01 12.07
3541 8.5400 136.69 129.71 11.77
3542 8.5410 120.55 129.42 11.12
3543 8.5420 120.54 129.14 11.17
3544 8.5430 103.74 128.87 10.37
3545 8.5440 128.90 128.60 11.49
3546 8.5450 134.37 128.34 11.64
3547 8.5460 130.59 128.09 11.43
3548 8.5470 114.22 127.84 10.70
3549 8.5480 116.55 127.60 10.90
3550 8.5490 119.74 127.37 10.97
3551 8.5500 128.49 127.14 11.37
3552 8.5510 122.39 126.92 11.11
3553 8.5520 114.79 126.70 10.86
3554 8.5530 139.54 126.49 12.02
3555 8.5540 126.89 126.29 11.40
3556 8.5550 113.96 126.09 10.73
3557 8.5560 131.29 125.89 11.52
3558 8.5570 149.71 125.70 12.28
3559 8.5580 135.85 125.51 11.75
3560 8.5590 125.76 125.33 11.25
3561 8.5600 119.55 125.15 10.94
3562 8.5610 114.19 124.97 10.77
3563 8.5620 109.45 124.80 10.63
3564 8.5630 118.29 124.64 11.11
3565 8.5640 134.27 124.47 11.72
3566 8.5650 111.72 124.31 10.68
3567 8.5660 118.79 124.16 10.93
3568 8.5670 126.14 124.00 11.33
3569 8.5680 131.30 123.85 11.56
3570 8.5690 137.37 123.70 11.75
3571 8.5700 113.39 123.56 10.67
3572 8.5710 126.05 123.42 11.29
3573 8.5720 128.08 123.28 11.46
3574 8.5730 124.48 123.14 11.32
3575 8.5740 115.54 123.01 10.83
3576 8.5750 112.43 122.88 10.63
3577 8.5760 128.65 122.75 11.34
3578 8.5770 123.86 122.62 11.17
3579 8.5780 136.49 122.50 11.80
3580 8.5790 98.98 122.38 9.97
3581 8.5800 120.33 122.26 11.05
3582 8.5810 137.57 122.14 11.80
3583 8.5820 132.10 122.03 11.65
3584 8.5830 132.62 121.91 11.71
3585 8.5840 99.80 121.80 10.08
3586 8.5850 124.68 121.69 11.18
3587 8.5860 136.07 121.58 11.64
3588 8.5870 107.50 121.48 10.41
3589 8.5880 135.46 121.37 11.74
3590 8.5890 120.66 121.27 11.10
3591 8.5900 140.80 121.17 11.97
3592 8.5910 133.08 121.07 11.63
3593 8.5920 141.63 120.97 12.11
3594 8.5930 129.50 120.88 11.59
3595 8.5940 104.24 120.78 10.29
3596 8.5950 90.73 120.69 9.54
3597 8.5960 118.98 120.60 10.90
3598 8.5970 106.02 120.50 10.35
3599 8.5980 102.22 120.41 10.16
3600 8.5990 114.74 120.33 10.74
3601 8.6000 113.85 120.24 10.72
3602 8.6010 116.34 120.15 10.87
3603 8.6020 131.41 120.07 11.65
3604 8.6030 129.92 119.99 11.62
3605 8.6040 134.28 119.90 11.70
3606 8.6050 117.18 119.82 10.85
3607 8.6060 109.58 119.74 10.47
3608 8.6070 124.68 119.66 11.18
3609 8.6080 85.31 119.58 9.29
3610 8.6090 121.50 119.51 11.09
3611 8.6100 116.17 119.43 10.82
3612 8.6110 114.76 119.36 10.78
3613 8.6120 114.15 119.28 10.84
3614 8.6130 117.42 119.21 11.04
3615 8.6140 106.69 119.14 10.45
3616 8.6150 112.00 119.07 10.64
3617 8.6160 112.98 119.00 10.68
3618 8.6170 106.91 118.93 10.38
3619 8.6180 115.33 118.86 10.85
3620 8.6190 118.57 118.79 10.92
3621 8.6200 101.25 118.72 10.08
3622 8.6210 126.61 118.65 11.32
3623 8.6220 125.85 116.08 11.37
3624 8.6230 116.60 114.83 10.94
3625 8.6240 119.31 114.81 11.03
3626 8.6250 107.25 114.79 10.41
3627 8.6260 131.62 114.76 11.49
3628 8.6270 133.49 114.74 11.59
3629 8.6280 106.00 114.71 10.37
3630 8.6290 124.69 114.69 11.26
3631 8.6300 116.76 114.67 10.80
3632 8.6310 93.89 114.64 9.79
3633 8.6320 119.05 114.62 11.03
3634 8.6330 108.56 114.60 10.58
3635 8.6340 116.80 114.57 10.89
3636 8.6350 108.10 114.55 10.40
3637 8.6360 117.47 114.53 10.85
3638 8.6370 116.64 114.50 10.89
3639 8.6380 121.67 114.48 11.15
3640 8.6390 96.38 114.46 9.89
3641 8.6400 116.95 114.43 10.90
3642 8.6410 114.45 114.41 10.79
3643 8.6420 128.44 114.39 11.50
3644 8.6430 128.91 114.36 11.52
3645 8.6440 119.00 114.34 10.98
3646 8.6450 122.11 114.32 11.04
3647 8.6460 127.59 114.29 11.32
3648 8.6470 132.77 114.27 11.54
3649 8.6480 118.89 114.25 10.96
3650 8.6490 130.76 114.22 11.49
3651 8.6500 118.17 114.20 10.89
3652 8.6510 123.90 114.18 11.22
3653 8.6520 107.31 114.15 10.50
3654 8.6530 113.75 114.13 10.84
3655 8.6540 105.45 114.11 10.37
3656 8.6550 112.20 114.08 10.63
3657 8.6560 115.19 114.06 10.72
3658 8.6570 104.95 114.04 10.26
3659 8.6580 112.26 114.01 10.64
3660 8.6590 111.60 113.99 10.59
3661 8.6600 97.28 113.97 9.88
3662 8.6610 108.56 113.94 10.49
3663 8.6620 118.96 113.92 11.09
3664 8.6630 122.46 113.90 11.27
3665 8.6640 91.69 113.88 9.70
3666 8.6650 119.12 113.85 10.96
3667 8.6660 133.20 113.83 11.58
3668 8.6670 113.41 113.81 10.68
3669 8.6680 127.69 113.78 11.33
3670 8.6690 123.24 113.76 11.11
3671 8.6700 115.49 113.74 10.75
3672 8.6710 128.13 113.71 11.39
3673 8.6720 110.43 113.69 10.64
3674 8.6730 106.97 113.67 10.51
3675 8.6740 119.09 113.64 11.01
3676 8.6750 123.93 113.62 11.16
3677 8.6760 111.67 113.60 10.56
3678 8.6770 94.98 113.57 9.78
3679 8.6780 115.03 113.55 10.80
3680 8.6790 115.54 113.53 10.79
3681 8.6800 99.76 113.51 10.05
3682 8.6810 115.11 113.48 10.78
3683 8.6820 109.50 113.46 10.59
3684 8.6830 122.52 113.44 11.21
3685 8.6840 119.27 113.42 11.04
3686 8.6850 113.04 113.39 10.64
3687 8.6860 122.52 113.37 11.09
3688 8.6870 86.41 113.35 9.34
3689 8.6880 96.85 113.32 9.96
3690 8.6890 98.28 113.30 9.96
3691 8.6900 112.43 113.28 10.67
3692 8.6910 118.64 113.25 10.98
3693 8.6920 139.63 113.23 11.98
3694 8.6930 112.18 113.21 10.78
3695 8.6940 106.12 113.19 10.39
3696 8.6950 102.54 113.16 10.18
3697 8.6960 101.96 113.14 10.10
3698 8.6970 125.73 113.12 11.27
3699 8.6980 102.40 113.09 10.16
3700 8.6990 114.85 113.07 10.77
3701 8.7000 103.26 113.05 10.23
3702 8.7010 124.74 113.03 11.25
3703 8.7020 119.96 113.00 11.13
3704 8.7030 110.30 112.98 10.67
3705 8.7040 102.90 112.96 10.25
3706 8.7050 113.92 112.93 10.71
3707 8.7060 124.34 112.91 11.14
3708 8.7070 99.61 112.89 9.97
3709 8.7080 122.72 112.87 11.15
3710 8.7090 125.03 112.84 11.20
3711 8.7100 101.69 112.82 10.13
3712 8.7110 105.24 112.80 10.33
3713 8.7120 113.73 112.78 10.87
3714 8.7130 100.33 112.75 10.22
3715 8.7140 119.25 112.73 11.07
3716 8.7150 122.07 112.71 11.11
3717 8.7160 96.78 112.69 9.85
3718 8.7170 123.33 112.66 11.14
3719 8.7180 108.64 112.64 10.47
3720 8.7190 121.45 112.62 11.01
3721 8.7200 94.42 112.60 9.73
3722 8.7210 102.95 112.57 10.24
3723 8.7220 122.08 112.55 11.21
3724 8.7230 100.11 112.53 10.14
3725 8.7240 92.47 112.50 9.71
3726 8.7250 102.98 112.48 10.20
3727 8.7260 115.75 112.46 10.75
3728 8.7270 124.43 112.44 11.15
3729 8.7280 134.27 112.42 11.66
3730 8.7290 107.05 112.39 10.41
3731 8.7300 108.61 112.37 10.47
3732 8.7310 111.72 112.35 10.62
3733 8.7320 101.75 112.32 10.23
3734 8.7330 91.61 112.30 9.75
3735 8.7340 96.60 112.28 9.92
3736 8.7350 111.67 112.26 10.62
3737 8.7360 110.70 112.24 10.54
3738 8.7370 108.29 112.21 10.50
3739 8.7380 119.64 112.19 11.05
3740 8.7390 114.39 112.17 10.77
3741 8.7400 102.95 112.14 10.19
3742 8.7410 106.16 112.12 10.39
3743 8.7420 112.87 112.10 10.77
3744 8.7430 106.81 112.08 10.46
3745 8.7440 125.51 112.06 11.28
3746 8.7450 109.29 112.03 10.51
3747 8.7460 107.10 112.01 10.37
3748 8.7470 115.82 111.99 10.78
3749 8.7480 87.07 111.97 9.40
3750 8.7490 98.50 111.94 9.94
3751 8.7500 117.50 111.92 10.89
3752 8.7510 89.25 111.90 9.48
3753 8.7520 109.97 111.88 10.64
3754 8.7530 101.40 111.86 10.25
3755 8.7540 109.17 111.83 10.55
3756 8.7550 99.66 111.81 10.01
3757 8.7560 113.46 111.79 10.65
3758 8.7570 95.40 111.77 9.76
3759 8.7580 95.88 111.74 9.84
3760 8.7590 100.67 111.72 10.05
3761 8.7600 124.96 111.70 11.24
3762 8.7610 104.89 111.68 10.34
3763 8.7620 107.32 111.65 10.60
3764 8.7630 113.97 111.63 10.86
3765 8.7640 89.97 111.61 9.56
3766 8.7650 92.79 111.59 9.68
3767 8.7660 112.45 111.57 10.59
3768 8.7670 86.93 111.54 9.33
3769 8.7680 94.31 111.52 9.75
3770 8.7690 97.76 111.50 9.89
3771 8.7700 104.34 111.48 10.21
3772 8.7710 107.57 111.46 10.42
3773 8.7720 118.10 111.43 11.03
3774 8.7730 125.64 111.41 11.33
3775 8.7740 108.71 111.39 10.47
3776 8.7750 113.09 111.37 10.67
3777 8.7760 98.38 111.35 9.92
3778 8.7770 113.56 111.32 10.72
3779 8.7780 102.64 111.30 10.24
3780 8.7790 110.85 111.28 10.57
3781 8.7800 109.60 111.26 10.51
3782 8.7810 106.29 111.24 10.39
3783 8.7820 97.17 111.21 9.93
3784 8.7830 102.18 111.19 10.25
3785 8.7840 103.73 111.17 10.27
3786 8.7850 119.30 111.15 10.97
3787 8.7860 111.74 111.12 10.61
3788 8.7870 111.29 111.10 10.63
3789 8.7880 121.13 111.08 11.12
3790 8.7890 117.87 111.06 10.90
3791 8.7900 112.07 111.04 10.61
3792 8.7910 106.13 111.01 10.34
3793 8.7920 113.86 110.99 10.75
3794 8.7930 114.32 110.97 10.83
3795 8.7940 110.42 110.95 10.57
3796 8.7950 94.42 110.93 9.75
3797 8.7960 108.43 110.91 10.43
3798 8.7970 106.09 110.88 10.33
3799 8.7980 118.21 110.86 10.91
3800 8.7990 98.71 110.84 9.99
3801 8.8000 89.91 110.82 9.52
3802 8.8010 104.50 110.80 10.33
3803 8.8020 124.86 110.78 11.32
3804 8.8030 112.42 110.75 10.76
3805 8.8040 103.09 110.73 10.22
3806 8.8050 108.43 110.71 10.42
3807 8.8060 102.04 110.69 10.06
3808 8.8070 113.59 110.67 10.60
3809 8.8080 104.85 110.64 10.26
3810 8.8090 103.33 110.62 10.23
3811 8.8100 120.39 110.60 11.03
3812 8.8110 123.44 110.58 11.22
3813 8.8120 99.94 110.56 10.20
3814 8.8130 107.60 110.54 10.57
3815 8.8140 122.43 110.51 11.15
3816 8.8150 105.00 110.49 10.25
3817 8.8160 117.97 110.47 10.85
3818 8.8170 107.93 110.45 10.38
3819 8.8180 114.82 110.43 10.78
3820 8.8190 98.22 110.41 9.94
3821 8.8200 109.57 110.38 10.50
3822 8.8210 110.96 110.36 10.60
3823 8.8220 127.16 110.34 11.39
3824 8.8230 96.77 110.32 9.97
3825 8.8240 121.52 110.30 11.09
3826 8.8250 103.58 110.28 10.19
3827 8.8260 91.01 110.25 9.55
3828 8.8270 123.00 110.23 11.10
3829 8.8280 118.04 110.21 10.95
3830 8.8290 95.46 110.19 9.78
3831 8.8300 95.64 110.17 9.76
3832 8.8310 97.62 110.15 9.90
3833 8.8320 121.65 110.12 11.16
3834 8.8330 121.17 110.10 11.18
3835 8.8340 126.45 110.08 11.35
3836 8.8350 110.27 110.06 10.55
3837 8.8360 119.17 110.04 10.97
3838 8.8370 122.50 110.02 11.14
3839 8.8380 119.83 110.00 10.99
3840 8.8390 126.60 109.97 11.27
3841 8.8400 109.63 109.95 10.49
3842 8.8410 117.40 109.93 10.89
3843 8.8420 119.31 109.91 11.04
3844 8.8430 110.47 109.89 10.63
3845 8.8440 111.30 109.87 10.61
3846 8.8450 115.93 109.85 10.80
3847 8.8460 117.24 109.82 10.82
3848 8.8470 126.00 109.80 11.20
3849 8.8480 112.15 109.78 10.64
3850 8.8490 109.48 109.76 10.46
3851 8.8500 104.89 109.74 10.31
3852 8.8510 98.54 109.72 9.99
3853 8.8520 103.78 109.70 10.31
3854 8.8530 116.36 109.68 10.95
3855 8.8540 101.60 109.65 10.11
3856 8.8550 106.31 109.63 10.27
3857 8.8560 116.47 109.61 10.77
3858 8.8570 110.00 109.59 10.49
3859 8.8580 89.25 109.57 9.51
3860 8.8590 117.83 111.50 10.91
3861 8.8600 103.52 112.48 10.23
3862 8.8610 80.16 112.49 9.04
3863 8.8620 117.13 112.50 10.98
3864 8.8630 122.89 112.52 11.24
3865 8.8640 95.69 112.53 9.83
3866 8.8650 106.41 112.54 10.30
3867 8.8660 98.63 112.56 9.90
3868 8.8670 90.80 112.58 9.52
3869 8.8680 95.50 112.59 9.83
3870 8.8690 87.32 112.61 9.34
3871 8.8700 97.86 112.63 9.90
3872 8.8710 99.49 112.65 9.97
3873 8.8720 104.24 112.67 10.33
3874 8.8730 98.80 112.69 10.06
3875 8.8740 130.91 112.71 11.52
3876 8.8750 117.10 112.73 10.85
3877 8.8760 108.14 112.75 10.45
3878 8.8770 111.72 112.77 10.59
3879 8.8780 106.03 112.80 10.35
3880 8.8790 108.81 112.82 10.41
3881 8.8800 112.31 112.85 10.59
3882 8.8810 108.29 112.88 10.44
3883 8.8820 95.35 112.90 9.86
3884 8.8830 102.86 112.93 10.31
3885 8.8840 120.18 112.96 11.06
3886 8.8850 106.54 112.99 10.37
3887 8.8860 115.03 113.03 10.76
3888 8.8870 118.15 113.06 10.90
3889 8.8880 121.69 113.09 11.09
3890 8.8890 111.28 113.13 10.55
3891 8.8900 123.93 113.16 11.13
3892 8.8910 112.59 113.20 10.67
3893 8.8920 100.32 113.24 10.15
3894 8.8930 102.92 113.28 10.30
3895 8.8940 113.87 113.32 10.72
3896 8.8950 110.64 113.36 10.52
3897 8.8960 140.51 113.40 11.79
3898 8.8970 117.31 113.45 10.85
3899 8.8980 124.28 113.50 11.19
3900 8.8990 115.46 113.54 10.83
3901 8.9000 108.15 113.59 10.43
3902 8.9010 111.14 113.64 10.66
3903 8.9020 120.05 113.70 11.14
3904 8.9030 119.44 113.75 11.09
3905 8.9040 116.82 113.81 10.84
3906 8.9050 102.06 113.86 10.11
3907 8.9060 115.67 113.93 10.73
3908 8.9070 115.63 113.99 10.75
3909 8.9080 98.01 114.05 10.00
3910 8.9090 120.89 114.11 11.06
3911 8.9100 96.70 114.18 9.90
3912 8.9110 91.03 114.25 9.63
3913 8.9120 92.30 114.32 9.73
3914 8.9130 104.38 114.40 10.39
3915 8.9140 113.55 114.47 10.74
3916 8.9150 124.69 114.55 11.18
3917 8.9160 118.95 114.63 10.90
3918 8.9170 116.64 114.71 10.85
3919 8.9180 109.67 114.80 10.54
3920 8.9190 100.50 114.89 10.03
3921 8.9200 119.12 114.98 10.92
3922 8.9210 103.33 115.08 10.21
3923 8.9220 108.86 115.17 10.55
3924 8.9230 114.76 115.27 10.90
3925 8.9240 95.64 115.38 9.88
3926 8.9250 118.26 115.49 10.93
3927 8.9260 120.02 115.60 10.98
3928 8.9270 125.96 115.71 11.28
3929 8.9280 94.49 115.83 9.77
3930 8.9290 113.78 115.95 10.71
3931 8.9300 127.36 116.07 11.30
3932 8.9310 126.12 116.20 11.31
3933 8.9320 110.96 116.34 10.68
3934 8.9330 109.44 116.48 10.68
3935 8.9340 111.03 116.62 10.68
3936 8.9350 117.67 116.77 10.89
3937 8.9360 97.68 116.92 9.89
3938 8.9370 120.84 117.08 11.06
3939 8.9380 119.45 117.24 11.01
3940 8.9390 130.46 117.41 11.45
3941 8.9400 121.26 117.59 11.09
3942 8.9410 109.59 117.77 10.55
3943 8.9420 145.31 117.95 12.21
3944 8.9430 101.29 118.15 10.22
3945 8.9440 108.40 118.35 10.46
3946 8.9450 111.67 118.56 10.57
3947 8.9460 99.25 118.77 9.93
3948 8.9470 129.47 119.00 11.41
3949 8.9480 113.59 119.23 10.73
3950 8.9490 110.45 119.47 10.64
3951 8.9500 124.90 119.71 11.26
3952 8.9510 115.20 119.97 10.83
3953 8.9520 107.03 120.24 10.48
3954 8.9530 105.46 120.52 10.42
3955 8.9540 109.43 120.81 10.55
3956 8.9550 102.39 121.11 10.11
3957 8.9560 136.76 121.42 11.67
3958 8.9570 125.09 121.74 11.26
3959 8.9580 110.62 122.08 10.60
3960 8.9590 109.16 122.43 10.54
3961 8.9600 116.79 122.80 10.87
3962 8.9610 114.44 123.18 10.80
3963 8.9620 117.26 123.57 10.97
3964 8.9630 131.33 123.99 11.68
3965 8.9640 116.92 124.42 10.86
3966 8.9650 102.48 124.86 10.18
3967 8.9660 105.65 125.33 10.28
3968 8.9670 116.71 125.82 10.84
3969 8.9680 123.82 126.33 11.20
3970 8.9690 130.85 126.87 11.46
3971 8.9700 105.30 127.43 10.27
3972 8.9710 121.69 128.01 11.08
3973 8.9720 133.20 128.63 11.68
3974 8.9730 109.54 129.27 10.63
3975 8.9740 115.65 129.94 10.86
3976 8.9750 115.40 130.65 10.80
3977 8.9760 116.26 131.39 10.82
3978 8.9770 143.76 132.17 12.02
3979 8.9780 114.39 132.99 10.75
3980 8.9790 142.16 133.85 11.94
3981 8.9800 116.95 134.76 10.84
3982 8.9810 126.27 135.72 11.31
3983 8.9820 129.91 136.73 11.56
3984 8.9830 116.51 137.80 11.01
3985 8.9840 117.85 138.93 10.96
3986 8.9850 121.78 140.12 11.09
3987 8.9860 109.21 141.38 10.45
3988 8.9870 120.74 142.72 11.03
3989 8.9880 144.68 144.14 12.07
3990 8.9890 127.25 145.65 11.28
3991 8.9900 120.38 147.26 11.02
3992 8.9910 141.57 148.97 11.94
3993 8.9920 132.47 150.79 11.67
3994 8.9930 130.79 152.74 11.61
3995 8.9940 151.40 154.82 12.36
3996 8.9950 134.89 157.05 11.60
3997 8.9960 145.96 159.44 12.06
3998 8.9970 124.15 162.01 11.16
3999 8.9980 139.86 164.77 11.90
4000 8.9990 134.65 167.75 11.67
4001 9.0000 149.76 170.97 12.32
4002 9.0010 157.67 174.45 12.62
4003 9.0020 148.33 178.22 12.32
4004 9.0030 144.90 182.32 12.14
4005 9.0040 170.25 186.78 13.08
4006 9.0050 161.57 191.65 12.70
4007 9.0060 169.55 196.99 13.02
4008 9.0070 166.67 202.84 12.91
4009 9.0080 143.87 209.28 12.09
4010 9.0090 182.05 216.40 13.59
4011 9.0100 166.77 224.28 12.96
4012 9.0110 174.27 233.03 13.29
4013 9.0120 223.76 242.81 15.13
4014 9.0130 175.82 253.76 13.42
4015 9.0140 229.76 266.07 15.25
4016 9.0150 226.93 280.01 15.05
4017 9.0160 219.81 295.84 14.80
4018 9.0170 231.09 313.92 15.24
4019 9.0180 255.84 334.71 16.04
4020 9.0190 247.35 358.78 15.74
4021 9.0200 319.19 386.84 17.90
4022 9.0210 319.52 419.75 17.98
4023 9.0220 386.87 458.81 19.94
4024 9.0230 397.39 505.52 20.24
4025 9.0240 471.76 562.03 21.88
4026 9.0250 600.13 631.24 24.47
4027 9.0260 617.93 717.34 24.80
4028 9.0270 815.38 826.41 28.50
4029 9.0280 1048.09 969.16 32.43
4030 9.0290 1271.92 1166.70 35.82
4031 9.0300 1645.01 1463.34 40.83
4032 9.0310 2219.81 1953.85 47.65
4033 9.0320 3224.35 2809.27 58.21
4034 9.0330 4339.56 4287.85 67.76
4035 9.0340 6381.43 6663.64 81.69
4036 9.0350 9493.60 10067.50 99.92
4037 9.0360 13377.60 14216.00 119.04
4038 9.0370 18223.10 18029.10 141.02
4039 9.0380 20291.70 19698.00 150.18
4040 9.0390 18892.90 18183.90 144.35
4041 9.0400 14181.80 14478.10 123.36
4042 9.0410 9557.08 10335.20 100.84
4043 9.0420 6560.06 6877.13 83.02
4044 9.0430 4325.21 4433.46 67.23
4045 9.0440 3078.58 2901.86 55.98
4046 9.0450 2344.46 2007.32 48.61
4047 9.0460 1684.02 1494.63 40.97
4048 9.0470 1274.63 1185.62 35.80
4049 9.0480 1059.04 981.75 32.80
4050 9.0490 831.74 835.47 28.99
4051 9.0500 690.95 724.16 26.27
4052 9.0510 538.49 636.57 23.32
4053 9.0520 473.99 566.15 21.91
4054 9.0530 402.93 508.76 20.27
4055 9.0540 400.10 461.36 20.09
4056 9.0550 348.20 421.74 18.71
4057 9.0560 305.41 388.38 17.50
4058 9.0570 277.74 359.95 16.77
4059 9.0580 245.88 335.59 15.77
4060 9.0590 253.35 314.52 15.95
4061 9.0600 233.08 296.22 15.27
4062 9.0610 223.21 280.20 14.96
4063 9.0620 202.38 266.09 14.44
4064 9.0630 213.20 253.64 14.81
4065 9.0640 172.32 242.55 13.25
4066 9.0650 218.12 232.65 14.77
4067 9.0660 175.96 223.79 13.22
4068 9.0670 145.41 215.80 12.05
4069 9.0680 133.59 208.60 11.57
4070 9.0690 149.79 202.07 12.20
4071 9.0700 145.77 196.14 12.06
4072 9.0710 144.78 190.73 12.11
4073 9.0720 136.35 185.79 11.85
4074 9.0730 170.82 181.26 13.24
4075 9.0740 145.20 177.09 12.13
4076 9.0750 131.02 173.26 11.46
4077 9.0760 149.94 169.72 12.17
4078 9.0770 129.60 166.45 11.34
4079 9.0780 141.62 163.41 11.90
4080 9.0790 135.52 160.59 11.67
4081 9.0800 110.63 157.97 10.59
4082 9.0810 125.57 155.53 11.30
4083 9.0820 140.55 153.25 12.01
4084 9.0830 147.43 151.12 12.33
4085 9.0840 135.22 149.12 11.72
4086 9.0850 120.00 147.25 10.96
4087 9.0860 117.13 145.49 10.82
4088 9.0870 122.14 143.84 11.03
4089 9.0880 119.24 142.29 11.02
4090 9.0890 137.22 140.82 11.75
4091 9.0900 129.59 139.44 11.37
4092 9.0910 134.96 138.13 11.64
4093 9.0920 126.38 136.89 11.33
4094 9.0930 114.75 135.72 10.80
4095 9.0940 95.17 134.61 9.81
4096 9.0950 111.02 133.55 10.50
4097 9.0960 101.36 132.55 10.06
4098 9.0970 120.98 131.60 11.05
4099 9.0980 118.87 130.70 10.96
4100 9.0990 114.18 129.84 10.71
4101 9.1000 102.31 129.01 10.11
4102 9.1010 120.12 128.23 10.98
4103 9.1020 108.01 127.48 10.49
4104 9.1030 106.81 126.77 10.47
4105 9.1040 120.41 126.08 11.06
4106 9.1050 114.78 125.43 10.77
4107 9.1060 102.75 124.80 10.13
4108 9.1070 107.60 124.20 10.44
4109 9.1080 110.61 123.62 10.56
4110 9.1090 94.13 123.07 9.75
4111 9.1100 108.80 122.54 10.44
4112 9.1110 127.24 122.03 11.35
4113 9.1120 129.73 121.54 11.57
4114 9.1130 126.85 121.07 11.42
4115 9.1140 130.34 120.62 11.48
4116 9.1150 106.62 120.18 10.32
4117 9.1160 111.46 119.76 10.53
4118 9.1170 124.09 119.36 11.12
4119 9.1180 119.39 118.96 10.94
4120 9.1190 102.07 118.59 10.11
4121 9.1200 107.93 118.22 10.45
4122 9.1210 111.48 117.87 10.68
4123 9.1220 113.56 117.53 10.81
4124 9.1230 113.06 117.20 10.78
4125 9.1240 114.79 116.89 10.78
4126 9.1250 103.64 116.58 10.19
4127 9.1260 102.26 116.28 10.07
4128 9.1270 112.10 115.99 10.59
4129 9.1280 108.18 115.71 10.45
4130 9.1290 106.98 115.44 10.40
4131 9.1300 109.73 115.18 10.55
4132 9.1310 107.81 114.92 10.47
4133 9.1320 119.21 114.67 11.07
4134 9.1330 101.90 114.43 10.26
4135 9.1340 87.98 114.20 9.47
4136 9.1350 100.28 113.97 10.04
4137 9.1360 96.51 113.75 9.84
4138 9.1370 122.99 113.54 11.14
4139 9.1380 99.75 113.33 10.07
4140 9.1390 101.78 113.13 10.11
4141 9.1400 106.80 112.93 10.36
4142 9.1410 112.45 112.74 10.66
4143 9.1420 114.77 112.55 10.82
4144 9.1430 118.27 112.37 11.00
4145 9.1440 120.02 112.19 11.03
4146 9.1450 106.63 112.01 10.38
4147 9.1460 122.60 111.85 11.09
4148 9.1470 119.76 111.68 10.95
4149 9.1480 104.68 111.52 10.30
4150 9.1490 98.36 111.36 9.93
4151 9.1500 106.33 111.21 10.31
4152 9.1510 113.33 111.06 10.67
4153 9.1520 104.34 110.91 10.33
4154 9.1530 105.82 110.77 10.43
4155 9.1540 107.20 110.63 10.45
4156 9.1550 115.07 110.49 10.77
4157 9.1560 112.73 110.36 10.66
4158 9.1570 94.92 110.23 9.80
4159 9.1580 115.12 110.10 10.80
4160 9.1590 112.75 109.97 10.68
4161 9.1600 103.32 109.85 10.20
4162 9.1610 116.91 109.73 10.89
4163 9.1620 118.26 109.61 11.06
4164 9.1630 112.46 109.50 10.76
4165 9.1640 99.58 109.38 10.05
4166 9.1650 106.35 109.27 10.29
4167 9.1660 98.56 109.16 9.88
4168 9.1670 106.37 109.06 10.33
4169 9.1680 100.38 108.95 10.05
4170 9.1690 108.34 108.85 10.41
4171 9.1700 98.60 108.75 10.02
4172 9.1710 99.40 108.65 10.03
4173 9.1720 90.06 108.55 9.65
4174 9.1730 106.09 108.46 10.43
4175 9.1740 110.05 108.36 10.57
4176 9.1750 105.87 108.27 10.34
4177 9.1760 105.52 108.18 10.24
4178 9.1770 105.99 108.09 10.30
4179 9.1780 113.49 108.00 10.70
4180 9.1790 94.08 107.92 9.73
4181 9.1800 97.82 107.83 9.94
4182 9.1810 116.33 107.75 10.87
4183 9.1820 90.27 107.67 9.65
4184 9.1830 93.79 107.59 9.85
4185 9.1840 88.84 107.51 9.55
4186 9.1850 113.76 107.43 10.66
4187 9.1860 89.52 107.36 9.47
4188 9.1870 114.26 107.28 10.76
4189 9.1880 95.90 107.21 9.86
4190 9.1890 88.19 107.13 9.41
4191 9.1900 111.47 107.06 10.60
4192 9.1910 106.89 106.99 10.38
4193 9.1920 113.31 106.92 10.75
4194 9.1930 105.58 106.85 10.41
4195 9.1940 90.45 106.78 9.59
4196 9.1950 103.27 106.71 10.25
4197 9.1960 91.33 106.65 9.59
4198 9.1970 103.79 106.58 10.26
4199 9.1980 115.11 106.52 10.81
4200 9.1990 93.81 106.46 9.72
4201 9.2000 126.27 106.39 11.25
4202 9.2010 90.09 106.33 9.53
4203 9.2020 109.04 106.27 10.57
4204 9.2030 96.17 106.21 9.95
4205 9.2040 91.26 106.15 9.65
4206 9.2050 88.40 106.09 9.45
4207 9.2060 96.15 106.03 9.82
4208 9.2070 103.84 105.98 10.22
4209 9.2080 117.29 105.92 10.90
4210 9.2090 103.91 105.86 10.23
4211 9.2100 97.63 105.81 9.93
4212 9.2110 103.33 105.75 10.20
4213 9.2120 129.78 105.70 11.51
4214 9.2130 108.05 105.65 10.56
4215 9.2140 98.80 105.60 9.99
4216 9.2150 99.34 105.54 9.97
4217 9.2160 106.26 105.49 10.23
4218 9.2170 107.23 105.44 10.34
4219 9.2180 97.94 103.48 9.93
4220 9.2190 99.55 102.48 10.01
4221 9.2200 94.58 102.46 9.78
4222 9.2210 101.27 102.45 10.15
4223 9.2220 87.08 102.43 9.48
4224 9.2230 86.58 102.41 9.45
4225 9.2240 80.99 102.39 9.06
4226 9.2250 109.44 102.38 10.41
4227 9.2260 109.56 102.36 10.42
4228 9.2270 110.23 102.34 10.50
4229 9.2280 98.69 102.32 10.02
4230 9.2290 95.92 102.30 9.82
4231 9.2300 98.27 102.29 10.01
4232 9.2310 104.85 102.27 10.33
4233 9.2320 94.42 102.25 9.87
4234 9.2330 109.61 102.23 10.65
4235 9.2340 97.08 102.21 9.92
4236 9.2350 93.22 102.20 9.71
4237 9.2360 105.62 102.18 10.27
4238 9.2370 107.17 102.16 10.37
4239 9.2380 107.33 102.14 10.43
4240 9.2390 112.86 102.12 10.63
4241 9.2400 88.69 102.11 9.44
4242 9.2410 104.23 102.09 10.24
4243 9.2420 113.50 102.07 10.76
4244 9.2430 102.91 102.05 10.30
4245 9.2440 114.68 102.04 10.77
4246 9.2450 104.92 102.02 10.29
4247 9.2460 101.88 102.00 10.10
4248 9.2470 98.95 101.98 9.94
4249 9.2480 103.99 101.96 10.24
4250 9.2490 105.06 101.95 10.26
4251 9.2500 112.86 101.93 10.62
4252 9.2510 114.42 101.91 10.80
4253 9.2520 127.22 101.89 11.46
4254 9.2530 102.42 101.88 10.31
4255 9.2540 97.62 101.86 10.00
4256 9.2550 123.07 101.84 11.18
4257 9.2560 97.35 101.82 9.87
4258 9.2570 116.05 101.80 10.80
4259 9.2580 128.98 101.79 11.48
4260 9.2590 106.44 101.77 10.35
4261 9.2600 101.86 101.75 10.13
4262 9.2610 97.59 101.73 9.95
4263 9.2620 103.86 101.72 10.32
4264 9.2630 88.18 101.70 9.50
4265 9.2640 95.24 101.68 9.82
4266 9.2650 104.07 101.66 10.23
4267 9.2660 111.51 101.64 10.52
4268 9.2670 108.62 101.63 10.44
4269 9.2680 102.32 101.61 10.19
4270 9.2690 103.75 101.59 10.24
4271 9.2700 93.93 101.57 9.78
4272 9.2710 95.35 101.56 9.83
4273 9.2720 90.52 101.54 9.63
4274 9.2730 104.05 101.52 10.31
4275 9.2740 99.00 101.50 10.03
4276 9.2750 95.82 101.49 9.82
4277 9.2760 107.03 101.47 10.32
4278 9.2770 80.91 101.45 9.03
4279 9.2780 115.94 101.43 10.85
4280 9.2790 119.47 101.42 11.00
4281 9.2800 114.57 101.40 10.77
4282 9.2810 95.85 101.38 9.89
4283 9.2820 100.77 101.36 10.23
4284 9.2830 101.18 101.35 10.25
4285 9.2840 105.26 101.33 10.37
4286 9.2850 80.90 101.31 9.00
4287 9.2860 105.06 101.29 10.27
4288 9.2870 91.95 101.28 9.59
4289 9.2880 99.54 101.26 10.04
4290 9.2890 89.80 101.24 9.51
4291 9.2900 102.25 101.22 10.12
4292 9.2910 94.52 101.21 9.80
4293 9.2920 89.60 101.19 9.60
4294 9.2930 101.17 101.17 10.22
4295 9.2940 103.73 101.15 10.30
4296 9.2950 102.42 101.14 10.17
4297 9.2960 99.63 101.12 9.97
4298 9.2970 113.54 101.10 10.70
4299 9.2980 114.75 101.09 10.78
4300 9.2990 100.50 101.07 10.03
4301 9.3000 110.31 101.05 10.57
4302 9.3010 112.46 101.03 10.70
4303 9.3020 99.68 101.02 10.15
4304 9.3030 94.91 101.00 9.95
4305 9.3040 93.32 100.98 9.76
4306 9.3050 95.64 100.96 9.84
4307 9.3060 76.48 100.95 8.77
4308 9.3070 113.77 100.93 10.71
4309 9.3080 89.81 100.91 9.56
4310 9.3090 103.66 100.89 10.27
4311 9.3100 91.25 100.88 9.64
4312 9.3110 99.74 100.86 10.08
4313 9.3120 99.30 100.84 10.09
4314 9.3130 109.59 100.83 10.65
4315 9.3140 97.73 100.81 9.92
4316 9.3150 93.59 100.79 9.69
4317 9.3160 97.01 100.78 9.85
4318 9.3170 96.53 100.76 9.87
4319 9.3180 85.00 100.74 9.31
4320 9.3190 97.95 100.72 9.97
4321 9.3200 100.51 100.71 10.10
4322 9.3210 105.33 100.69 10.35
4323 9.3220 79.66 100.67 9.06
4324 9.3230 95.02 100.65 9.88
4325 9.3240 73.58 100.64 8.63
4326 9.3250 119.66 100.62 10.97
4327 9.3260 80.62 100.60 9.05
4328 9.3270 99.27 100.59 10.02
4329 9.3280 95.21 100.57 9.85
4330 9.3290 84.83 100.55 9.26
4331 9.3300 102.82 100.54 10.25
4332 9.3310 91.35 100.52 9.68
4333 9.3320 89.41 100.50 9.65
4334 9.3330 94.52 100.48 9.91
4335 9.3340 97.56 100.47 9.97
4336 9.3350 82.68 100.45 9.17
4337 9.3360 100.00 100.43 10.01
4338 9.3370 103.20 100.42 10.18
4339 9.3380 106.67 100.40 10.41
4340 9.3390 82.31 100.38 9.09
4341 9.3400 110.71 100.36 10.54
4342 9.3410 101.83 100.35 10.18
4343 9.3420 110.18 100.33 10.71
4344 9.3430 104.26 100.31 10.40
4345 9.3440 106.12 100.30 10.42
4346 9.3450 92.07 100.28 9.66
4347 9.3460 92.93 100.26 9.67
4348 9.3470 83.73 100.25 9.18
4349 9.3480 92.79 100.23 9.71
4350 9.3490 83.15 100.21 9.15
4351 9.3500 91.79 100.19 9.66
4352 9.3510 91.08 100.18 9.63
4353 9.3520 87.02 100.16 9.48
4354 9.3530 99.31 100.14 10.19
4355 9.3540 97.11 100.13 10.01
4356 9.3550 69.60 100.11 8.41
4357 9.3560 83.28 100.09 9.19
4358 9.3570 88.46 100.08 9.48
4359 9.3580 90.13 100.06 9.58
4360 9.3590 84.05 100.04 9.23
4361 9.3600 89.25 100.03 9.50
4362 9.3610 94.22 100.01 9.78
4363 9.3620 105.56 99.99 10.46
4364 9.3630 77.14 99.98 8.93
4365 9.3640 87.23 99.96 9.39
4366 9.3650 97.46 99.94 9.90
4367 9.3660 102.21 99.93 10.12
4368 9.3670 82.89 99.91 9.17
4369 9.3680 98.36 99.89 10.01
4370 9.3690 105.86 99.88 10.36
4371 9.3700 88.37 99.86 9.47
4372 9.3710 87.90 99.84 9.45
4373 9.3720 99.75 99.82 10.15
4374 9.3730 82.72 99.81 9.22
4375 9.3740 90.99 99.79 9.62
4376 9.3750 73.97 99.77 8.62
4377 9.3760 104.01 99.76 10.23
4378 9.3770 107.28 99.74 10.47
4379 9.3780 102.24 99.72 10.22
4380 9.3790 106.18 99.71 10.44
4381 9.3800 78.11 99.69 8.93
4382 9.3810 100.79 99.67 10.16
4383 9.3820 101.27 99.66 10.26
4384 9.3830 82.31 99.64 9.23
4385 9.3840 95.08 99.62 9.88
4386 9.3850 84.18 99.61 9.23
4387 9.3860 84.53 99.59 9.24
4388 9.3870 93.95 99.57 9.73
4389 9.3880 88.27 99.56 9.46
4390 9.3890 85.65 99.54 9.28
4391 9.3900 90.43 99.52 9.56
4392 9.3910 115.50 99.51 10.83
4393 9.3920 93.77 99.49 9.86
4394 9.3930 93.83 99.48 9.89
4395 9.3940 94.68 99.46 9.86
4396 9.3950 82.70 99.44 9.17
4397 9.3960 97.64 99.43 9.88
4398 9.3970 103.87 99.41 10.24
4399 9.3980 103.47 99.39 10.21
4400 9.3990 102.92 99.38 10.17
4401 9.4000 93.48 99.36 9.72
4402 9.4010 96.23 99.34 9.92
4403 9.4020 89.91 99.33 9.68
4404 9.4030 97.63 99.31 10.10
4405 9.4040 97.66 99.29 10.00
4406 9.4050 100.50 99.28 10.10
4407 9.4060 97.16 99.26 9.91
4408 9.4070 89.16 99.24 9.52
4409 9.4080 102.50 99.23 10.19
4410 9.4090 105.26 99.21 10.34
4411 9.4100 97.08 99.19 9.93
4412 9.4110 77.30 99.18 8.86
4413 9.4120 95.89 99.16 9.94
4414 9.4130 94.71 99.15 9.87
4415 9.4140 92.79 99.13 9.71
4416 9.4150 99.99 99.11 9.99
4417 9.4160 105.40 99.10 10.28
4418 9.4170 109.95 99.08 10.54
4419 9.4180 76.01 99.06 8.81
4420 9.4190 81.95 99.05 9.13
4421 9.4200 94.99 99.03 9.81
4422 9.4210 111.62 99.01 10.67
4423 9.4220 79.05 99.00 9.01
4424 9.4230 96.60 98.98 9.98
4425 9.4240 106.08 98.97 10.35
4426 9.4250 101.57 98.95 10.10
4427 9.4260 98.50 98.93 9.97
4428 9.4270 97.42 98.92 9.95
4429 9.4280 89.24 98.90 9.57
4430 9.4290 82.63 98.88 9.18
4431 9.4300 95.55 98.87 9.89
4432 9.4310 94.46 98.85 9.82
4433 9.4320 96.56 98.84 9.99
4434 9.4330 93.94 98.82 9.86
4435 9.4340 94.43 98.80 9.80
4436 9.4350 97.63 98.79 9.91
4437 9.4360 92.24 98.77 9.63
4438 9.4370 81.09 98.75 9.03
4439 9.4380 98.43 98.74 10.01
4440 9.4390 99.94 98.72 10.01
4441 9.4400 108.59 98.71 10.44
4442 9.4410 81.32 98.69 9.05
4443 9.4420 99.54 98.67 10.10
4444 9.4430 83.91 98.66 9.32
4445 9.4440 83.91 98.64 9.22
4446 9.4450 86.56 98.63 9.36
4447 9.4460 89.37 98.61 9.46
4448 9.4470 98.44 98.59 9.93
4449 9.4480 84.01 98.58 9.20
4450 9.4490 75.96 98.56 8.74
4451 9.4500 70.97 98.54 8.45
4452 9.4510 63.33 98.53 8.04
4453 9.4520 99.30 98.51 10.15
4454 9.4530 89.99 98.50 9.73
4455 9.4540 78.02 98.48 8.97
4456 9.4550 87.78 98.46 9.43
4457 9.4560 74.24 98.45 8.60
4458 9.4570 86.10 98.43 9.31
4459 9.4580 71.40 98.42 8.53
4460 9.4590 103.00 98.40 10.17
4461 9.4600 92.31 98.38 9.67
4462 9.4610 102.91 98.37 10.24
4463 9.4620 88.23 98.35 9.50
4464 9.4630 78.14 98.34 8.96
4465 9.4640 90.16 98.32 9.54
4466 9.4650 99.50 98.30 9.99
4467 9.4660 87.49 98.29 9.33
4468 9.4670 82.59 98.27 9.14
4469 9.4680 93.07 98.26 9.75
4470 9.4690 89.87 98.24 9.53
4471 9.4700 97.56 98.22 9.93
4472 9.4710 76.91 98.21 8.81
4473 9.4720 75.31 98.19 8.78
4474 9.4730 94.88 98.18 9.86
4475 9.4740 77.23 98.16 8.87
4476 9.4750 87.44 98.14 9.36
4477 9.4760 98.72 98.13 9.98
4478 9.4770 85.62 98.11 9.33
4479 9.4780 95.85 98.10 9.93
4480 9.4790 95.66 98.08 9.85
4481 9.4800 90.43 98.07 9.58
4482 9.4810 101.10 98.05 10.14
4483 9.4820 86.41 98.03 9.45
4484 9.4830 91.16 98.02 9.70
4485 9.4840 86.13 98.00 9.35
4486 9.4850 92.12 97.99 9.66
4487 9.4860 78.30 97.97 8.88
4488 9.4870 87.56 97.95 9.37
4489 9.4880 82.31 97.94 9.11
4490 9.4890 80.69 97.92 9.00
4491 9.4900 83.25 97.91 9.15
4492 9.4910 96.73 97.89 9.91
4493 9.4920 86.99 97.88 9.46
4494 9.4930 82.06 97.86 9.22
4495 9.4940 92.70 97.84 9.72
4496 9.4950 85.13 97.83 9.24
4497 9.4960 75.15 97.81 8.67
4498 9.4970 82.12 97.80 9.07
4499 9.4980 91.84 97.78 9.68
4500 9.4990 89.44 97.77 9.50
4501 9.5000 81.24 97.75 9.08
4502 9.5010 92.99 97.73 9.75
4503 9.5020 111.72 97.72 10.78
4504 9.5030 92.63 97.70 9.79
4505 9.5040 88.81 97.69 9.53
4506 9.5050 91.37 97.67 9.62
4507 9.5060 83.74 97.66 9.19
4508 9.5070 91.55 97.64 9.62
4509 9.5080 94.15 97.62 9.77
4510 9.5090 91.29 97.61 9.58
4511 9.5100 76.73 97.59 8.79
4512 9.5110 78.82 97.58 8.95
4513 9.5120 74.23 97.56 8.73
4514 9.5130 106.98 97.55 10.49
4515 9.5140 87.71 97.53 9.42
4516 9.5150 107.51 97.52 10.39
4517 9.5160 86.60 97.50 9.30
4518 9.5170 94.65 97.48 9.77
4519 9.5180 79.20 97.47 8.98
4520 9.5190 87.02 97.45 9.38
4521 9.5200 91.10 97.44 9.58
4522 9.5210 80.81 97.42 9.04
4523 9.5220 81.56 97.41 9.15
4524 9.5230 87.45 97.39 9.51
4525 9.5240 91.95 97.38 9.69
4526 9.5250 106.28 97.36 10.36
4527 9.5260 101.07 97.35 10.12
4528 9.5270 96.62 97.33 9.92
4529 9.5280 101.70 97.31 10.22
4530 9.5290 100.69 97.30 10.10
4531 9.5300 102.78 97.28 10.22
4532 9.5310 99.49 97.27 10.06
4533 9.5320 93.21 97.25 9.80
4534 9.5330 107.15 97.24 10.55
4535 9.5340 106.17 97.22 10.38
4536 9.5350 81.45 97.21 9.07
4537 9.5360 106.27 97.19 10.31
4538 9.5370 82.72 97.18 9.10
4539 9.5380 90.13 97.16 9.55
4540 9.5390 96.21 97.14 9.83
4541 9.5400 93.37 97.13 9.71
4542 9.5410 92.88 97.11 9.71
4543 9.5420 94.13 97.10 9.86
4544 9.5430 81.26 97.08 9.20
4545 9.5440 87.47 97.07 9.43
4546 9.5450 82.50 97.05 9.11
4547 9.5460 87.92 97.04 9.37
4548 9.5470 84.78 97.02 9.23
4549 9.5480 94.85 97.01 9.82
4550 9.5490 88.80 96.99 9.48
4551 9.5500 92.22 96.98 9.68
4552 9.5510 93.51 96.96 9.80
4553 9.5520 105.04 96.95 10.50
4554 9.5530 93.40 96.93 9.85
4555 9.5540 100.36 96.91 10.16
4556 9.5550 80.39 96.90 9.01
4557 9.5560 77.52 96.88 8.83
4558 9.5570 101.14 96.87 10.11
4559 9.5580 101.62 96.85 10.14
4560 9.5590 90.03 96.84 9.57
4561 9.5600 79.46 96.82 8.98
4562 9.5610 87.04 96.81 9.40
4563 9.5620 97.63 96.79 10.05
4564 9.5630 90.32 96.78 9.65
4565 9.5640 100.79 96.76 10.12
4566 9.5650 96.76 96.75 9.87
4567 9.5660 84.46 96.73 9.22
4568 9.5670 76.60 96.72 8.78
4569 9.5680 84.00 96.70 9.28
4570 9.5690 96.79 96.69 9.86
4571 9.5700 82.48 96.67 9.13
4572 9.5710 77.20 96.66 8.87
4573 9.5720 95.01 96.64 9.89
4574 9.5730 82.61 96.63 9.25
4575 9.5740 92.76 96.61 9.74
4576 9.5750 72.86 96.60 8.62
4577 9.5760 87.43 96.58 9.42
4578 9.5770 91.27 96.57 9.69
4579 9.5780 104.22 96.55 10.32
4580 9.5790 89.06 96.54 9.50
4581 9.5800 81.11 96.52 9.05
4582 9.5810 85.28 96.51 9.33
4583 9.5820 79.30 96.49 9.04
4584 9.5830 85.81 96.48 9.42
4585 9.5840 97.51 96.46 9.97
4586 9.5850 93.16 96.45 9.69
4587 9.5860 93.36 96.43 9.72
4588 9.5870 84.89 96.42 9.23
4589 9.5880 59.66 96.40 7.77
4590 9.5890 91.36 96.39 9.60
4591 9.5900 83.07 96.37 9.17
4592 9.5910 91.22 96.36 9.65
4593 9.5920 102.14 96.34 10.26
4594 9.5930 77.29 96.33 8.95
4595 9.5940 94.67 96.31 9.82
4596 9.5950 93.93 96.30 9.75
4597 9.5960 86.95 96.28 9.35
4598 9.5970 93.67 96.27 9.70
4599 9.5980 82.59 96.25 9.17
4600 9.5990 83.60 96.24 9.22
4601 9.6000 83.65 96.22 9.23
4602 9.6010 70.95 96.21 8.55
4603 9.6020 77.71 96.19 9.04
4604 9.6030 82.86 96.18 9.31
4605 9.6040 88.96 96.16 9.54
4606 9.6050 86.53 96.15 9.35
4607 9.6060 70.48 96.13 8.43
4608 9.6070 88.24 96.12 9.45
4609 9.6080 79.94 96.10 9.05
4610 9.6090 85.50 96.09 9.32
4611 9.6100 85.37 96.07 9.30
4612 9.6110 94.73 96.06 9.82
4613 9.6120 80.47 96.04 9.11
4614 9.6130 83.28 96.03 9.26
4615 9.6140 91.71 96.01 9.65
4616 9.6150 83.17 96.00 9.12
4617 9.6160 78.34 95.98 8.90
4618 9.6170 80.82 95.97 9.05
4619 9.6180 90.55 95.95 9.62
4620 9.6190 86.75 95.94 9.37
4621 9.6200 83.03 95.92 9.14
4622 9.6210 83.58 95.91 9.20
4623 9.6220 77.15 95.90 8.90
4624 9.6230 70.85 95.88 8.56
4625 9.6240 82.67 95.87 9.16
4626 9.6250 94.65 95.85 9.81
4627 9.6260 64.57 95.84 8.10
4628 9.6270 85.52 95.82 9.38
4629 9.6280 94.50 95.81 9.82
4630 9.6290 95.43 95.79 9.83
4631 9.6300 94.91 95.78 9.79
4632 9.6310 86.87 95.76 9.38
4633 9.6320 80.27 95.75 9.12
4634 9.6330 90.91 95.73 9.71
4635 9.6340 91.54 95.72 9.68
4636 9.6350 94.05 95.70 9.72
4637 9.6360 88.40 95.69 9.41
4638 9.6370 97.23 95.68 9.86
4639 9.6380 87.62 95.66 9.41
4640 9.6390 88.70 95.65 9.43
4641 9.6400 100.84 95.63 10.11
4642 9.6410 92.36 95.62 9.67
4643 9.6420 88.08 95.60 9.57
4644 9.6430 70.18 95.59 8.52
4645 9.6440 79.82 95.57 9.02
4646 9.6450 89.89 95.56 9.49
4647 9.6460 89.55 95.54 9.46
4648 9.6470 76.61 95.53 8.78
4649 9.6480 73.54 95.52 8.62
4650 9.6490 87.41 95.50 9.43
4651 9.6500 90.34 95.49 9.59
4652 9.6510 107.41 95.47 10.52
4653 9.6520 91.67 95.46 9.74
4654 9.6530 88.39 95.44 9.61
4655 9.6540 88.28 95.43 9.48
4656 9.6550 84.54 95.41 9.21
4657 9.6560 86.10 95.40 9.28
4658 9.6570 83.73 95.39 9.20
4659 9.6580 85.40 95.37 9.32
4660 9.6590 90.21 95.36 9.55
4661 9.6600 103.44 95.34 10.23
4662 9.6610 88.57 95.33 9.48
4663 9.6620 90.67 95.31 9.65
4664 9.6630 89.31 95.30 9.58
4665 9.6640 90.78 95.28 9.60
4666 9.6650 94.76 95.27 9.75
4667 9.6660 84.20 95.26 9.18
4668 9.6670 94.09 95.24 9.75
4669 9.6680 84.13 95.23 9.26
4670 9.6690 72.84 95.21 8.59
4671 9.6700 89.56 95.20 9.52
4672 9.6710 98.62 95.18 9.95
4673 9.6720 90.39 95.17 9.61
4674 9.6730 81.87 95.15 9.18
4675 9.6740 95.72 95.14 9.88
4676 9.6750 76.95 95.13 8.83
4677 9.6760 80.53 95.11 9.06
4678 9.6770 92.17 95.10 9.71
4679 9.6780 92.77 95.08 9.75
4680 9.6790 97.95 95.07 9.97
4681 9.6800 90.04 95.05 9.52
4682 9.6810 76.66 95.04 8.81
4683 9.6820 85.95 95.03 9.40
4684 9.6830 85.04 95.01 9.37
4685 9.6840 79.45 95.00 8.99
4686 9.6850 83.41 94.98 9.16
4687 9.6860 101.73 94.97 10.08
4688 9.6870 73.81 94.96 8.62
4689 9.6880 89.83 94.94 9.52
4690 9.6890 79.75 94.93 8.96
4691 9.6900 81.43 94.91 9.04
4692 9.6910 77.66 94.90 8.88
4693 9.6920 92.02 94.88 9.70
4694 9.6930 73.51 94.87 8.71
4695 9.6940 93.23 94.86 9.76
4696 9.6950 88.98 94.84 9.47
4697 9.6960 90.96 94.83 9.53
4698 9.6970 87.39 94.81 9.40
4699 9.6980 72.87 94.80 8.63
4700 9.6990 72.46 94.78 8.57
4701 9.7000 92.31 94.77 9.71
4702 9.7010 82.19 94.76 9.21
4703 9.7020 82.47 94.74 9.27
4704 9.7030 98.38 94.73 10.11
4705 9.7040 81.98 94.71 9.13
4706 9.7050 83.25 94.70 9.15
4707 9.7060 92.64 94.69 9.64
4708 9.7070 95.26 94.67 9.79
4709 9.7080 94.77 94.66 9.80
4710 9.7090 79.68 94.64 8.98
4711 9.7100 80.51 94.63 9.02
4712 9.7110 84.47 94.62 9.23
4713 9.7120 77.38 94.60 8.93
4714 9.7130 85.53 94.59 9.36
4715 9.7140 88.89 94.57 9.50
4716 9.7150 86.21 94.56 9.28
4717 9.7160 84.06 94.55 9.16
4718 9.7170 85.65 94.53 9.32
4719 9.7180 85.01 94.52 9.32
4720 9.7190 87.17 94.50 9.38
4721 9.7200 92.13 94.49 9.63
4722 9.7210 83.38 94.48 9.21
4723 9.7220 94.45 94.46 9.86
4724 9.7230 92.26 94.45 9.82
4725 9.7240 90.89 94.43 9.65
4726 9.7250 85.30 94.42 9.34
4727 9.7260 93.70 94.41 9.74
4728 9.7270 98.95 94.39 10.01
4729 9.7280 87.44 94.38 9.46
4730 9.7290 87.27 94.36 9.37
4731 9.7300 101.57 94.35 10.14
4732 9.7310 100.45 94.34 10.10
4733 9.7320 92.84 94.32 9.78
4734 9.7330 79.93 94.31 9.09
4735 9.7340 89.27 94.30 9.55
4736 9.7350 87.42 94.28 9.39
4737 9.7360 79.76 94.27 8.94
4738 9.7370 98.02 94.25 9.90
4739 9.7380 97.62 94.24 9.94
4740 9.7390 92.92 94.23 9.67
4741 9.7400 90.94 94.21 9.57
4742 9.7410 88.40 94.20 9.46
4743 9.7420 74.52 94.18 8.79
4744 9.7430 91.46 94.17 9.74
4745 9.7440 84.27 94.16 9.29
4746 9.7450 90.45 94.14 9.56
4747 9.7460 85.04 94.13 9.24
4748 9.7470 80.59 94.12 9.03
4749 9.7480 90.35 94.10 9.65
4750 9.7490 87.39 94.09 9.42
4751 9.7500 87.06 94.07 9.44
4752 9.7510 78.65 94.06 9.00
4753 9.7520 67.84 94.05 8.40
4754 9.7530 94.58 94.03 9.91
4755 9.7540 94.10 94.02 9.80
4756 9.7550 91.52 94.01 9.60
4757 9.7560 82.75 93.99 9.11
4758 9.7570 86.44 93.98 9.36
4759 9.7580 80.53 93.97 9.05
4760 9.7590 96.47 93.95 9.86
4761 9.7600 86.57 93.94 9.38
4762 9.7610 77.70 93.92 8.88
4763 9.7620 75.31 93.91 8.81
4764 9.7630 78.78 93.90 9.04
4765 9.7640 75.38 93.88 8.76
4766 9.7650 89.30 93.87 9.47
4767 9.7660 106.64 93.86 10.31
4768 9.7670 89.26 93.84 9.51
4769 9.7680 81.94 93.83 9.14
4770 9.7690 92.89 93.82 9.73
4771 9.7700 71.73 93.80 8.54
4772 9.7710 79.29 93.79 9.02
4773 9.7720 97.85 93.78 10.07
4774 9.7730 90.71 93.76 9.76
4775 9.7740 83.32 93.75 9.28
4776 9.7750 101.03 93.74 10.13
4777 9.7760 96.32 93.72 9.89
4778 9.7770 94.94 93.71 9.83
4779 9.7780 90.69 93.70 9.64
4780 9.7790 92.70 93.68 9.69
4781 9.7800 92.00 93.75 9.64
4782 9.7810 76.33 93.73 8.83
4783 9.7820 75.40 93.72 8.88
4784 9.7830 91.70 93.71 9.76
4785 9.7840 94.73 93.70 9.83
4786 9.7850 88.46 93.69 9.45
4787 9.7860 83.57 93.67 9.17
4788 9.7870 77.86 93.66 8.86
4789 9.7880 80.32 93.65 9.02
4790 9.7890 80.47 93.64 9.01
4791 9.7900 82.54 93.63 9.14
4792 9.7910 98.23 93.62 9.99
4793 9.7920 84.79 93.61 9.38
4794 9.7930 81.77 93.59 9.22
4795 9.7940 70.36 93.58 8.50
4796 9.7950 90.83 93.58 9.61
4797 9.7960 83.96 93.57 9.24
4798 9.7970 105.36 93.56 10.34
4799 9.7980 72.88 93.55 8.68
4800 9.7990 82.39 93.55 9.19
4801 9.8000 110.01 93.55 10.54
4802 9.8010 90.40 93.56 9.65
4803 9.8020 68.57 93.59 8.45
4804 9.8030 88.47 93.65 9.59
4805 9.8040 95.71 93.73 9.88
4806 9.8050 77.23 93.85 8.87
4807 9.8060 88.11 93.97 9.43
4808 9.8070 84.30 94.04 9.26
4809 9.8080 89.21 94.00 9.52
4810 9.8090 77.42 93.88 8.85
4811 9.8100 97.32 93.73 9.91
4812 9.8110 83.47 93.61 9.21
4813 9.8120 82.76 93.51 9.20
4814 9.8130 89.19 93.44 9.59
4815 9.8140 82.87 93.40 9.20
4816 9.8150 66.91 93.37 8.22
4817 9.8160 86.06 93.34 9.30
4818 9.8170 86.89 93.32 9.37
4819 9.8180 95.05 93.31 9.88
4820 9.8190 74.34 93.29 8.71
4821 9.8200 92.90 93.28 9.70
4822 9.8210 77.58 93.26 8.89
4823 9.8220 85.55 93.25 9.43
4824 9.8230 88.64 93.24 9.55
4825 9.8240 76.61 93.22 8.88
4826 9.8250 106.83 93.21 10.38
4827 9.8260 82.00 93.20 9.11
4828 9.8270 92.07 93.19 9.70
4829 9.8280 88.52 93.17 9.53
4830 9.8290 91.47 93.16 9.63
4831 9.8300 88.13 93.15 9.46
4832 9.8310 97.71 93.14 9.97
4833 9.8320 76.15 93.13 8.87
4834 9.8330 106.10 93.12 10.46
4835 9.8340 103.96 93.11 10.27
4836 9.8350 85.24 93.09 9.26
4837 9.8360 92.16 93.08 9.59
4838 9.8370 73.49 93.07 8.60
4839 9.8380 84.65 93.06 9.25
4840 9.8390 77.74 93.05 8.83
4841 9.8400 86.33 93.04 9.36
4842 9.8410 77.16 93.03 8.85
4843 9.8420 88.49 93.02 9.57
4844 9.8430 81.02 93.01 9.16
4845 9.8440 75.95 93.00 8.84
4846 9.8450 83.90 92.99 9.19
4847 9.8460 85.41 92.98 9.30
4848 9.8470 83.38 92.97 9.19
4849 9.8480 81.28 92.96 9.11
4850 9.8490 79.15 92.95 9.00
4851 9.8500 95.08 92.94 9.83
4852 9.8510 94.74 92.93 9.84
4853 9.8520 78.33 92.92 9.02
4854 9.8530 91.32 92.91 9.73
4855 9.8540 106.03 92.90 10.43
4856 9.8550 80.18 92.89 9.00
4857 9.8560 93.92 92.88 9.72
4858 9.8570 79.38 92.88 8.96
4859 9.8580 85.93 92.87 9.36
4860 9.8590 89.91 92.86 9.51
4861 9.8600 90.90 92.85 9.57
4862 9.8610 78.15 92.84 8.92
4863 9.8620 91.79 92.83 9.71
4864 9.8630 93.21 92.83 9.81
4865 9.8640 82.67 92.82 9.17
4866 9.8650 79.53 92.81 8.97
4867 9.8660 82.00 92.80 9.09
4868 9.8670 70.62 92.80 8.45
4869 9.8680 90.94 92.79 9.64
4870 9.8690 70.04 92.78 8.41
4871 9.8700 80.24 92.78 9.01
4872 9.8710 100.04 92.77 10.07
4873 9.8720 82.58 92.76 9.22
4874 9.8730 84.05 92.76 9.37
4875 9.8740 94.55 92.75 9.85
4876 9.8750 78.56 92.75 8.93
4877 9.8760 81.08 92.74 9.08
4878 9.8770 82.19 92.74 9.17
4879 9.8780 70.42 92.73 8.49
4880 9.8790 81.08 92.73 9.05
4881 9.8800 71.07 92.72 8.48
4882 9.8810 80.86 92.72 9.08
4883 9.8820 80.39 92.72 9.11
4884 9.8830 81.34 92.71 9.16
4885 9.8840 101.18 92.71 10.18
4886 9.8850 95.04 92.71 9.77
4887 9.8860 88.81 92.71 9.47
4888 9.8870 78.00 92.70 8.85
4889 9.8880 83.75 92.70 9.19
4890 9.8890 79.91 92.70 8.97
4891 9.8900 88.01 92.70 9.45
4892 9.8910 84.30 92.70 9.25
4893 9.8920 74.23 92.71 8.75
4894 9.8930 85.02 92.71 9.38
4895 9.8940 73.33 92.71 8.68
4896 9.8950 78.78 92.71 8.92
4897 9.8960 76.78 92.72 8.80
4898 9.8970 78.95 92.72 8.96
4899 9.8980 74.26 92.73 8.74
4900 9.8990 96.82 92.73 9.93
4901 9.9000 84.40 92.74 9.26
4902 9.9010 87.80 92.75 9.44
4903 9.9020 80.83 92.76 9.18
4904 9.9030 89.99 92.77 9.62
4905 9.9040 87.54 92.78 9.46
4906 9.9050 87.97 92.79 9.41
4907 9.9060 85.71 92.80 9.30
4908 9.9070 77.38 92.82 8.84
4909 9.9080 80.27 92.84 9.03
4910 9.9090 87.08 92.86 9.36
4911 9.9100 75.94 92.88 8.77
4912 9.9110 71.06 92.90 8.46
4913 9.9120 91.39 92.92 9.67
4914 9.9130 87.51 92.95 9.45
4915 9.9140 89.82 92.98 9.55
4916 9.9150 82.55 93.01 9.09
4917 9.9160 90.05 93.04 9.51
4918 9.9170 77.63 93.08 8.87
4919 9.9180 83.05 93.12 9.19
4920 9.9190 81.28 93.16 9.09
4921 9.9200 88.16 93.21 9.51
4922 9.9210 76.45 93.26 8.82
4923 9.9220 84.66 93.32 9.40
4924 9.9230 89.96 93.38 9.69
4925 9.9240 87.45 93.45 9.45
4926 9.9250 79.65 93.53 9.02
4927 9.9260 76.38 93.61 8.76
4928 9.9270 78.51 93.70 8.93
4929 9.9280 81.18 93.79 9.11
4930 9.9290 86.16 93.90 9.35
4931 9.9300 85.42 94.02 9.30
4932 9.9310 85.03 94.15 9.31
4933 9.9320 84.73 94.29 9.34
4934 9.9330 92.83 94.45 9.79
4935 9.9340 91.39 94.63 9.64
4936 9.9350 84.22 94.83 9.19
4937 9.9360 82.33 95.05 9.06
4938 9.9370 79.15 95.29 8.91
4939 9.9380 77.93 95.57 8.90
4940 9.9390 87.45 95.88 9.38
4941 9.9400 99.47 96.23 10.04
4942 9.9410 91.07 96.64 9.63
4943 9.9420 71.52 97.10 8.62
4944 9.9430 95.88 97.62 9.99
4945 9.9440 96.30 98.24 9.91
4946 9.9450 68.18 98.95 8.32
4947 9.9460 87.14 99.78 9.39
4948 9.9470 98.05 100.77 10.02
4949 9.9480 83.49 101.95 9.25
4950 9.9490 110.93 103.37 10.62
4951 9.9500 105.12 105.10 10.36
4952 9.9510 95.73 107.23 9.88
4953 9.9520 86.75 109.91 9.48
4954 9.9530 95.90 113.35 9.96
4955 9.9540 106.44 117.96 10.43
4956 9.9550 113.81 124.52 10.73
4957 9.9560 139.27 134.70 11.86
4958 9.9570 150.40 151.61 12.27
4959 9.9580 145.73 180.42 12.19
4960 9.9590 191.70 227.52 13.89
4961 9.9600 265.77 298.19 16.35
4962 9.9610 370.40 391.72 19.33
4963 9.9620 453.22 493.40 21.59
4964 9.9630 515.66 565.47 23.07
4965 9.9640 570.89 561.93 24.09
4966 9.9650 459.46 485.45 21.49
4967 9.9660 372.45 383.35 19.36
4968 9.9670 246.08 291.44 15.81
4969 9.9680 196.99 222.71 14.15
4970 9.9690 161.71 177.32 12.80
4971 9.9700 133.73 149.72 11.68
4972 9.9710 147.78 133.48 12.30
4973 9.9720 119.96 123.67 11.16
4974 9.9730 107.70 117.29 10.58
4975 9.9740 100.29 112.78 10.14
4976 9.9750 114.53 109.38 10.79
4977 9.9760 84.05 106.73 9.21
4978 9.9770 94.10 104.61 9.76
4979 9.9780 98.28 102.89 10.01
4980 9.9790 94.29 101.46 9.79
4981 9.9800 115.93 100.28 10.85
4982 9.9810 90.65 99.28 9.61
4983 9.9820 78.26 98.43 9.01
4984 9.9830 72.73 97.71 8.66
4985 9.9840 71.34 97.08 8.52
4986 9.9850 75.17 96.53 8.70
4987 9.9860 82.34 96.05 9.08
4988 9.9870 85.68 95.63 9.26
4989 9.9880 75.12 95.25 8.72
4990 9.9890 88.08 94.92 9.44
4991 9.9900 78.56 94.62 8.93
4992 9.9910 88.07 94.36 9.47
4993 9.9920 79.30 94.11 9.06
4994 9.9930 80.81 93.89 9.17
4995 9.9940 83.96 93.69 9.29
4996 9.9950 87.69 93.51 9.44
4997 9.9960 86.10 93.35 9.34
4998 9.9970 79.41 93.19 9.00
4999 9.9980 68.48 93.05 8.39
5000 9.9990 65.54 92.92 8.21
5001 10.0000 81.02 92.80 9.08
5002 10.0010 77.98 92.69 8.93
5003 10.0020 96.46 92.58 10.00
5004 10.0030 95.26 92.48 9.93
5005 10.0040 101.71 92.39 10.19
5006 10.0050 86.02 92.30 9.36
5007 10.0060 100.53 92.22 10.08
5008 10.0070 80.27 92.15 9.03
5009 10.0080 89.22 92.07 9.56
5010 10.0090 76.09 92.01 8.76
5011 10.0100 81.00 91.94 9.01
5012 10.0110 84.70 91.88 9.23
5013 10.0120 88.89 91.82 9.52
5014 10.0130 73.69 91.77 8.73
5015 10.0140 84.76 91.71 9.30
5016 10.0150 82.88 91.66 9.19
5017 10.0160 69.72 91.62 8.41
5018 10.0170 80.94 91.57 9.10
5019 10.0180 88.72 91.52 9.55
5020 10.0190 66.38 91.48 8.27
5021 10.0200 85.52 91.44 9.33
5022 10.0210 74.96 91.40 8.78
5023 10.0220 82.86 91.36 9.24
5024 10.0230 82.47 91.33 9.28
5025 10.0240 85.44 91.29 9.36
5026 10.0250 68.52 91.26 8.35
5027 10.0260 70.14 91.22 8.42
5028 10.0270 71.55 91.19 8.51
5029 10.0280 73.88 91.16 8.71
5030 10.0290 78.44 91.13 8.95
5031 10.0300 80.22 91.10 9.05
5032 10.0310 79.67 91.07 9.02
5033 10.0320 88.45 91.04 9.54
5034 10.0330 86.75 91.01 9.47
5035 10.0340 89.00 90.99 9.48
5036 10.0350 78.47 90.96 8.88
5037 10.0360 76.15 90.94 8.73
5038 10.0370 68.80 90.91 8.31
5039 10.0380 87.11 90.89 9.40
5040 10.0390 94.31 90.86 9.82
5041 10.0400 82.29 90.84 9.16
5042 10.0410 71.77 90.82 8.58
5043 10.0420 95.08 90.79 9.97
5044 10.0430 81.97 90.77 9.25
5045 10.0440 78.45 90.75 8.93
5046 10.0450 89.19 90.73 9.51
5047 10.0460 70.01 90.71 8.42
5048 10.0470 89.81 90.69 9.58
5049 10.0480 100.88 90.67 10.14
5050 10.0490 83.07 90.65 9.21
5051 10.0500 82.14 90.63 9.14
5052 10.0510 73.89 90.61 8.68
5053 10.0520 79.67 90.59 9.06
5054 10.0530 89.38 90.57 9.63
5055 10.0540 61.87 90.55 7.96
5056 10.0550 91.27 90.53 9.61
5057 10.0560 84.91 90.51 9.27
5058 10.0570 94.11 90.50 9.76
5059 10.0580 94.82 90.48 9.79
5060 10.0590 101.01 90.46 10.08
5061 10.0600 85.62 90.44 9.26
5062 10.0610 87.10 90.43 9.37
5063 10.0620 80.98 90.41 9.13
5064 10.0630 75.26 90.39 8.82
5065 10.0640 87.72 90.38 9.49
5066 10.0650 88.17 90.36 9.47
5067 10.0660 74.17 90.34 8.66
5068 10.0670 74.74 90.33 8.70
5069 10.0680 89.62 90.31 9.53
5070 10.0690 91.23 90.29 9.63
5071 10.0700 71.60 90.28 8.50
5072 10.0710 90.25 90.26 9.63
5073 10.0720 77.01 90.25 8.93
5074 10.0730 60.27 90.23 7.94
5075 10.0740 79.12 90.22 9.00
5076 10.0750 87.97 90.20 9.41
5077 10.0760 67.05 90.19 8.22
5078 10.0770 85.37 90.17 9.27
5079 10.0780 102.92 90.16 10.23
5080 10.0790 78.43 90.14 8.91
5081 10.0800 90.87 90.13 9.60
5082 10.0810 77.11 90.11 8.86
5083 10.0820 83.19 90.10 9.23
5084 10.0830 82.54 90.08 9.24
5085 10.0840 88.01 90.07 9.41
5086 10.0850 75.43 90.06 8.71
5087 10.0860 96.93 90.04 9.82
5088 10.0870 66.34 90.03 8.18
5089 10.0880 80.79 90.01 9.05
5090 10.0890 92.03 90.00 9.63
5091 10.0900 87.43 89.99 9.43
5092 10.0910 76.93 89.97 8.83
5093 10.0920 90.12 89.96 9.66
5094 10.0930 74.86 89.94 8.79
5095 10.0940 80.50 89.93 9.03
5096 10.0950 85.50 89.92 9.26
5097 10.0960 97.57 89.90 9.90
5098 10.0970 87.99 89.89 9.46
5099 10.0980 82.35 89.88 9.19
5100 10.0990 87.40 89.86 9.44
5101 10.1000 74.24 89.85 8.68
5102 10.1010 74.40 89.84 8.71
5103 10.1020 74.92 89.82 8.77
5104 10.1030 86.19 89.81 9.45
5105 10.1040 79.09 89.80 8.97
5106 10.1050 89.72 89.78 9.51
5107 10.1060 82.08 89.77 9.11
5108 10.1070 68.53 89.76 8.32
5109 10.1080 74.19 89.75 8.69
5110 10.1090 81.05 89.73 9.02
5111 10.1100 75.88 89.72 8.70
5112 10.1110 83.04 89.71 9.18
5113 10.1120 78.45 89.69 8.95
5114 10.1130 85.08 89.68 9.34
5115 10.1140 70.66 89.67 8.49
5116 10.1150 77.98 89.66 8.89
5117 10.1160 72.62 89.64 8.54
5118 10.1170 75.84 89.63 8.78
5119 10.1180 77.42 89.62 8.86
5120 10.1190 97.64 89.61 9.94
5121 10.1200 96.26 89.59 9.86
5122 10.1210 86.71 89.58 9.38
5123 10.1220 83.30 89.57 9.30
5124 10.1230 77.79 89.56 8.99
5125 10.1240 82.62 89.54 9.17
5126 10.1250 87.64 89.53 9.42
5127 10.1260 67.38 89.52 8.22
5128 10.1270 75.02 89.51 8.73
5129 10.1280 67.38 89.49 8.27
5130 10.1290 72.62 89.48 8.56
5131 10.1300 81.76 89.47 9.11
5132 10.1310 79.06 89.46 8.97
5133 10.1320 79.12 89.45 9.04
5134 10.1330 73.10 89.43 8.67
5135 10.1340 74.56 89.42 8.64
5136 10.1350 84.02 89.41 9.16
5137 10.1360 71.40 89.40 8.42
5138 10.1370 75.03 89.64 8.67
5139 10.1380 72.26 90.16 8.54
5140 10.1390 77.96 90.16 8.93
5141 10.1400 75.98 90.16 8.81
5142 10.1410 83.56 90.15 9.24
5143 10.1420 92.08 90.15 9.74
5144 10.1430 74.34 90.15 8.80
5145 10.1440 71.89 90.15 8.56
5146 10.1450 83.36 90.14 9.20
5147 10.1460 81.69 90.14 9.10
5148 10.1470 84.60 90.14 9.26
5149 10.1480 85.35 90.06 9.36
5150 10.1490 71.50 90.06 8.51
5151 10.1500 91.72 90.06 9.63
5152 10.1510 81.48 90.06 9.10
5153 10.1520 75.18 90.06 8.81
5154 10.1530 79.44 90.06 9.06
5155 10.1540 81.02 90.06 9.07
5156 10.1550 79.25 90.06 8.95
5157 10.1560 91.19 90.06 9.57
5158 10.1570 80.89 90.06 9.01
5159 10.1580 75.06 90.06 8.67
5160 10.1590 83.67 90.06 9.16
5161 10.1600 76.80 90.07 8.76
5162 10.1610 89.65 90.07 9.50
5163 10.1620 78.90 90.07 8.98
5164 10.1630 65.29 90.07 8.23
5165 10.1640 82.58 90.07 9.19
5166 10.1650 72.07 90.08 8.55
5167 10.1660 83.47 90.08 9.14
5168 10.1670 76.91 90.08 8.84
5169 10.1680 71.52 90.09 8.58
5170 10.1690 102.83 90.09 10.18
5171 10.1700 98.04 90.10 9.99
5172 10.1710 80.67 90.10 9.09
5173 10.1720 75.05 90.10 8.83
5174 10.1730 74.12 90.11 8.79
5175 10.1740 83.77 90.11 9.25
5176 10.1750 87.15 90.12 9.39
5177 10.1760 85.75 90.13 9.30
5178 10.1770 105.42 90.13 10.33
5179 10.1780 83.19 90.14 9.19
5180 10.1790 97.15 90.15 9.91
5181 10.1800 69.62 90.15 8.39
5182 10.1810 82.05 90.16 9.12
5183 10.1820 69.24 90.17 8.45
5184 10.1830 83.74 90.18 9.28
5185 10.1840 87.67 90.19 9.38
5186 10.1850 90.07 90.20 9.48
5187 10.1860 81.35 90.21 9.03
5188 10.1870 80.91 90.22 9.06
5189 10.1880 90.15 90.23 9.58
5190 10.1890 78.46 90.24 8.95
5191 10.1900 82.71 90.25 9.18
5192 10.1910 81.11 90.27 9.09
5193 10.1920 79.12 90.28 9.05
5194 10.1930 63.73 90.29 8.14
5195 10.1940 101.10 90.31 10.14
5196 10.1950 102.46 90.32 10.21
5197 10.1960 73.16 90.34 8.63
5198 10.1970 88.89 90.36 9.53
5199 10.1980 89.35 90.37 9.60
5200 10.1990 83.33 90.39 9.20
5201 10.2000 88.81 90.41 9.43
5202 10.2010 92.19 90.43 9.67
5203 10.2020 87.88 90.45 9.50
5204 10.2030 78.59 90.47 9.04
5205 10.2040 79.62 90.49 9.00
5206 10.2050 101.20 90.51 10.12
5207 10.2060 70.05 90.53 8.40
5208 10.2070 88.74 90.56 9.46
5209 10.2080 83.13 90.58 9.15
5210 10.2090 85.01 90.61 9.26
5211 10.2100 86.98 90.63 9.34
5212 10.2110 77.08 90.66 8.86
5213 10.2120 84.94 90.69 9.36
5214 10.2130 91.53 90.72 9.76
5215 10.2140 84.47 90.75 9.30
5216 10.2150 95.01 90.78 9.84
5217 10.2160 77.67 90.81 8.85
5218 10.2170 81.57 90.85 9.13
5219 10.2180 79.96 90.88 9.00
5220 10.2190 81.83 90.92 9.17
5221 10.2200 91.87 90.96 9.64
5222 10.2210 97.35 91.00 10.00
5223 10.2220 81.07 91.04 9.16
5224 10.2230 84.69 91.08 9.41
5225 10.2240 87.88 91.13 9.44
5226 10.2250 85.57 91.18 9.28
5227 10.2260 103.22 91.22 10.17
5228 10.2270 76.20 91.27 8.80
5229 10.2280 86.35 91.32 9.38
5230 10.2290 76.13 91.38 8.81
5231 10.2300 79.50 91.43 8.95
5232 10.2310 77.02 91.49 8.85
5233 10.2320 89.21 91.55 9.56
5234 10.2330 74.38 91.62 8.71
5235 10.2340 84.16 91.68 9.18
5236 10.2350 94.43 91.75 9.71
5237 10.2360 82.73 91.82 9.08
5238 10.2370 74.74 91.89 8.69
5239 10.2380 90.29 91.97 9.65
5240 10.2390 87.48 92.05 9.45
5241 10.2400 82.05 92.13 9.14
5242 10.2410 75.85 92.22 8.83
5243 10.2420 90.63 92.31 9.64
5244 10.2430 97.30 92.40 10.04
5245 10.2440 98.11 92.50 10.03
5246 10.2450 89.44 92.60 9.53
5247 10.2460 76.59 92.71 8.82
5248 10.2470 76.86 92.82 8.86
5249 10.2480 92.89 92.93 9.73
5250 10.2490 73.10 93.05 8.61
5251 10.2500 84.94 93.18 9.23
5252 10.2510 76.27 93.31 8.79
5253 10.2520 83.26 93.45 9.29
5254 10.2530 74.49 93.59 8.74
5255 10.2540 84.94 93.75 9.30
5256 10.2550 81.81 93.90 9.09
5257 10.2560 96.62 94.07 9.78
5258 10.2570 81.52 94.24 9.02
5259 10.2580 88.78 94.43 9.45
5260 10.2590 78.97 94.62 8.87
5261 10.2600 87.37 94.82 9.38
5262 10.2610 89.78 95.03 9.54
5263 10.2620 85.08 95.26 9.36
5264 10.2630 80.95 95.49 9.16
5265 10.2640 92.02 95.74 9.73
5266 10.2650 84.34 96.00 9.24
5267 10.2660 84.07 96.27 9.18
5268 10.2670 77.54 96.57 8.87
5269 10.2680 79.90 96.87 9.02
5270 10.2690 65.97 97.20 8.17
5271 10.2700 98.01 97.54 9.96
5272 10.2710 90.56 97.91 9.62
5273 10.2720 84.59 98.29 9.33
5274 10.2730 94.08 98.70 9.87
5275 10.2740 102.26 99.14 10.20
5276 10.2750 103.12 99.61 10.19
5277 10.2760 95.56 100.10 9.78
5278 10.2770 89.62 100.63 9.54
5279 10.2780 102.39 101.20 10.21
5280 10.2790 95.81 101.81 9.83
5281 10.2800 94.03 102.45 9.72
5282 10.2810 78.01 103.15 8.87
5283 10.2820 87.37 103.90 9.45
5284 10.2830 81.60 104.71 9.14
5285 10.2840 92.57 105.58 9.64
5286 10.2850 96.29 106.52 9.83
5287 10.2860 91.49 107.54 9.59
5288 10.2870 100.29 108.64 10.11
5289 10.2880 127.94 109.84 11.43
5290 10.2890 98.37 111.15 9.98
5291 10.2900 111.81 112.59 10.63
5292 10.2910 97.76 114.15 9.94
5293 10.2920 96.21 115.88 9.91
5294 10.2930 101.52 117.78 10.23
5295 10.2940 91.81 119.88 9.70
5296 10.2950 96.40 122.20 9.90
5297 10.2960 106.30 124.79 10.37
5298 10.2970 122.87 127.69 11.16
5299 10.2980 120.22 130.94 11.04
5300 10.2990 123.55 134.60 11.17
5301 10.3000 127.01 138.75 11.30
5302 10.3010 129.67 143.46 11.42
5303 10.3020 131.95 148.86 11.70
5304 10.3030 135.11 155.09 11.79
5305 10.3040 150.17 162.30 12.33
5306 10.3050 150.15 170.73 12.27
5307 10.3060 156.42 180.66 12.49
5308 10.3070 162.52 192.47 12.74
5309 10.3080 197.68 206.62 14.07
5310 10.3090 240.32 223.85 15.52
5311 10.3100 261.76 245.05 16.23
5312 10.3110 303.20 271.58 17.55
5313 10.3120 309.29 305.76 17.91
5314 10.3130 431.25 351.53 21.07
5315 10.3140 518.80 416.78 22.98
5316 10.3150 658.91 516.69 25.75
5317 10.3160 872.05 678.47 29.51
5318 10.3170 1079.29 943.46 32.98
5319 10.3180 1585.79 1363.11 40.31
5320 10.3190 2114.32 1980.43 46.46
5321 10.3200 2989.15 2786.53 55.35
5322 10.3210 4048.51 3663.37 64.79
5323 10.3220 4912.34 4351.14 72.02
5324 10.3230 5292.76 4569.66 74.66
5325 10.3240 4658.80 4173.07 69.27
5326 10.3250 3693.95 3341.80 61.51
5327 10.3260 2631.31 2439.27 51.68
5328 10.3270 1787.43 1691.57 42.63
5329 10.3280 1269.40 1154.89 35.93
5330 10.3290 981.64 806.39 31.48
5331 10.3300 716.84 593.59 26.81
5332 10.3310 633.17 464.78 25.21
5333 10.3320 478.68 383.88 22.04
5334 10.3330 400.35 329.15 20.16
5335 10.3340 305.00 289.45 17.49
5336 10.3350 277.26 259.04 16.68
5337 10.3360 238.81 235.04 15.47
5338 10.3370 210.82 215.73 14.62
5339 10.3380 203.04 199.90 14.37
5340 10.3390 165.37 186.82 12.97
5341 10.3400 156.11 175.86 12.54
5342 10.3410 171.25 166.60 13.15
5343 10.3420 148.40 158.70 12.36
5344 10.3430 123.50 151.91 11.27
5345 10.3440 130.23 146.05 11.53
5346 10.3450 111.93 140.93 10.61
5347 10.3460 118.18 136.46 10.92
5348 10.3470 118.44 132.51 10.95
5349 10.3480 131.83 129.01 11.53
5350 10.3490 95.86 125.90 9.82
5351 10.3500 108.42 123.12 10.47
5352 10.3510 111.56 120.63 10.62
5353 10.3520 97.64 118.39 10.03
5354 10.3530 106.48 116.36 10.45
5355 10.3540 98.73 114.51 10.01
5356 10.3550 95.82 112.84 9.79
5357 10.3560 92.71 111.31 9.58
5358 10.3570 94.08 109.91 9.66
5359 10.3580 79.33 108.63 8.92
5360 10.3590 107.42 107.45 10.39
5361 10.3600 87.82 106.37 9.40
5362 10.3610 88.07 105.36 9.47
5363 10.3620 103.54 104.43 10.32
5364 10.3630 92.71 103.57 9.80
5365 10.3640 86.08 102.77 9.37
5366 10.3650 88.31 102.02 9.42
5367 10.3660 104.04 101.33 10.19
5368 10.3670 85.38 100.68 9.27
5369 10.3680 83.31 100.07 9.21
5370 10.3690 93.43 99.50 9.72
5371 10.3700 91.96 98.97 9.65
5372 10.3710 86.17 98.46 9.36
5373 10.3720 111.17 97.99 10.70
5374 10.3730 92.84 97.55 9.78
5375 10.3740 94.31 97.13 9.76
5376 10.3750 99.36 96.73 9.98
5377 10.3760 86.79 96.35 9.33
5378 10.3770 70.15 96.00 8.41
5379 10.3780 100.70 95.66 10.09
5380 10.3790 95.95 95.34 9.81
5381 10.3800 89.68 95.04 9.48
5382 10.3810 97.95 94.75 9.90
5383 10.3820 74.05 94.48 8.66
5384 10.3830 85.08 94.21 9.31
5385 10.3840 72.14 93.97 8.54
5386 10.3850 76.47 93.73 8.80
5387 10.3860 93.06 93.50 9.68
5388 10.3870 99.37 93.28 10.03
5389 10.3880 74.36 93.08 8.72
5390 10.3890 84.04 92.88 9.19
5391 10.3900 85.89 92.69 9.29
5392 10.3910 72.08 92.51 8.57
5393 10.3920 78.93 92.33 9.01
5394 10.3930 73.66 92.16 8.74
5395 10.3940 78.02 92.00 8.94
5396 10.3950 69.70 91.85 8.40
5397 10.3960 86.51 91.70 9.34
5398 10.3970 86.19 91.55 9.31
5399 10.3980 81.99 91.42 9.12
5400 10.3990 72.52 91.28 8.55
5401 10.4000 83.58 91.15 9.16
5402 10.4010 76.56 91.03 8.81
5403 10.4020 92.64 90.91 9.77
5404 10.4030 80.92 90.80 9.13
5405 10.4040 81.14 90.68 9.06
5406 10.4050 83.61 90.58 9.13
5407 10.4060 85.12 90.47 9.20
5408 10.4070 91.61 90.37 9.55
5409 10.4080 80.76 90.27 9.04
5410 10.4090 81.69 90.18 9.05
5411 10.4100 77.27 90.09 8.86
5412 10.4110 74.70 90.00 8.74
5413 10.4120 83.32 89.91 9.28
5414 10.4130 97.53 89.83 10.04
5415 10.4140 82.44 89.75 9.16
5416 10.4150 89.31 89.67 9.49
5417 10.4160 80.35 89.59 9.00
5418 10.4170 80.57 89.52 9.05
5419 10.4180 77.30 89.45 8.89
5420 10.4190 83.49 89.38 9.24
5421 10.4200 80.06 89.31 8.99
5422 10.4210 93.57 89.24 9.73
5423 10.4220 88.27 89.17 9.51
5424 10.4230 81.02 89.11 9.08
5425 10.4240 88.80 89.05 9.49
5426 10.4250 92.12 88.99 9.62
5427 10.4260 72.92 88.93 8.59
5428 10.4270 97.58 88.87 9.90
5429 10.4280 79.56 88.82 8.95
5430 10.4290 81.84 88.76 9.06
5431 10.4300 73.33 88.71 8.57
5432 10.4310 75.07 88.66 8.67
5433 10.4320 82.73 88.61 9.19
5434 10.4330 80.77 88.56 9.13
5435 10.4340 68.94 88.51 8.41
5436 10.4350 79.80 88.46 8.99
5437 10.4360 70.06 88.41 8.43
5438 10.4370 72.90 88.37 8.61
5439 10.4380 95.15 88.32 9.83
5440 10.4390 71.34 88.28 8.49
5441 10.4400 72.64 88.24 8.56
5442 10.4410 92.62 88.19 9.70
5443 10.4420 77.07 88.15 8.93
5444 10.4430 85.81 88.11 9.43
5445 10.4440 72.35 88.07 8.58
5446 10.4450 71.04 88.04 8.47
5447 10.4460 76.33 88.00 8.73
5448 10.4470 82.52 87.96 9.14
5449 10.4480 97.21 87.92 9.96
5450 10.4490 88.23 87.89 9.44
5451 10.4500 81.63 87.85 9.14
5452 10.4510 89.59 87.82 9.57
5453 10.4520 83.35 87.78 9.23
5454 10.4530 87.52 87.75 9.49
5455 10.4540 88.96 87.72 9.44
5456 10.4550 102.69 87.68 10.11
5457 10.4560 78.28 87.65 8.82
5458 10.4570 83.15 87.62 9.10
5459 10.4580 76.07 87.59 8.82
5460 10.4590 55.56 87.56 7.53
5461 10.4600 88.26 87.53 9.49
5462 10.4610 87.77 87.50 9.48
5463 10.4620 78.91 87.47 9.04
5464 10.4630 88.34 87.44 9.55
5465 10.4640 78.99 87.41 8.99
5466 10.4650 82.09 87.39 9.11
5467 10.4660 68.88 87.36 8.38
5468 10.4670 82.01 87.33 9.14
5469 10.4680 79.51 87.31 9.03
5470 10.4690 85.91 87.28 9.33
5471 10.4700 82.73 87.25 9.12
5472 10.4710 100.92 87.23 10.13
5473 10.4720 88.76 87.20 9.54
5474 10.4730 70.28 87.18 8.52
5475 10.4740 68.58 87.15 8.34
5476 10.4750 63.33 87.13 7.99
5477 10.4760 78.27 87.11 8.86
5478 10.4770 86.99 87.08 9.37
5479 10.4780 73.10 87.06 8.58
5480 10.4790 58.67 87.04 7.68
5481 10.4800 74.43 87.01 8.64
5482 10.4810 77.86 86.99 8.84
5483 10.4820 103.38 86.97 10.34
5484 10.4830 83.80 86.95 9.30
5485 10.4840 76.95 86.92 8.90
5486 10.4850 75.50 86.90 8.75
5487 10.4860 73.21 86.88 8.62
5488 10.4870 83.69 86.86 9.19
5489 10.4880 102.94 86.84 10.22
5490 10.4890 109.63 86.82 10.53
5491 10.4900 78.30 86.80 8.90
5492 10.4910 82.73 86.78 9.19
5493 10.4920 79.42 86.76 9.10
5494 10.4930 94.38 86.74 9.89
5495 10.4940 84.41 86.72 9.32
5496 10.4950 83.28 86.70 9.19
5497 10.4960 80.99 86.68 9.03
5498 10.4970 61.40 86.66 7.89
5499 10.4980 66.10 86.65 8.19
5500 10.4990 77.84 86.63 8.89
5501 10.5000 95.94 86.61 9.87
5502 10.5010 72.32 86.59 8.56
5503 10.5020 78.17 86.57 8.95
5504 10.5030 78.34 86.56 8.98
5505 10.5040 88.36 86.54 9.44
5506 10.5050 82.15 86.52 9.08
5507 10.5060 90.26 86.50 9.50
5508 10.5070 92.73 86.49 9.65
5509 10.5080 72.87 86.22 8.69
5510 10.5090 71.60 85.68 8.53
5511 10.5100 75.14 85.67 8.79
5512 10.5110 83.55 85.66 9.22
5513 10.5120 89.15 85.65 9.61
5514 10.5130 72.89 85.64 8.66
5515 10.5140 83.17 85.63 9.20
5516 10.5150 84.03 85.63 9.20
5517 10.5160 90.54 85.62 9.59
5518 10.5170 79.10 85.61 8.98
5519 10.5180 82.48 85.60 9.23
5520 10.5190 80.85 85.59 9.08
5521 10.5200 90.92 85.58 9.60
5522 10.5210 81.15 85.58 9.09
5523 10.5220 79.13 85.57 9.05
5524 10.5230 84.54 85.56 9.32
5525 10.5240 83.23 85.55 9.22
5526 10.5250 96.82 85.54 9.89
5527 10.5260 92.88 85.54 9.69
5528 10.5270 102.68 85.53 10.18
5529 10.5280 67.78 85.52 8.29
5530 10.5290 77.67 85.51 8.82
5531 10.5300 69.31 85.51 8.35
5532 10.5310 80.12 85.50 9.00
5533 10.5320 90.23 85.49 9.60
5534 10.5330 77.54 85.48 8.98
5535 10.5340 100.93 85.48 10.20
5536 10.5350 88.08 85.47 9.46
5537 10.5360 74.69 85.46 8.69
5538 10.5370 83.72 85.45 9.20
5539 10.5380 95.23 85.45 9.84
5540 10.5390 70.78 85.44 8.46
5541 10.5400 82.19 85.43 9.12
5542 10.5410 70.85 85.43 8.51
5543 10.5420 81.39 85.42 9.22
5544 10.5430 89.34 85.41 9.64
5545 10.5440 93.22 85.41 9.75
5546 10.5450 84.37 85.40 9.22
5547 10.5460 85.01 85.40 9.27
5548 10.5470 71.62 85.39 8.51
5549 10.5480 75.23 85.39 8.76
5550 10.5490 83.71 85.38 9.19
5551 10.5500 86.20 85.38 9.33
5552 10.5510 77.91 85.38 8.90
5553 10.5520 71.80 85.37 8.58
5554 10.5530 72.26 85.37 8.59
5555 10.5540 84.25 85.37 9.22
5556 10.5550 75.79 85.37 8.70
5557 10.5560 80.47 85.38 8.96
5558 10.5570 86.95 85.38 9.37
5559 10.5580 90.77 85.39 9.65
5560 10.5590 83.98 85.40 9.28
5561 10.5600 86.32 85.42 9.37
5562 10.5610 70.79 85.45 8.51
5563 10.5620 69.52 85.48 8.51
5564 10.5630 99.85 85.53 10.18
5565 10.5640 95.24 85.61 9.85
5566 10.5650 74.71 85.73 8.69
5567 10.5660 84.47 85.94 9.28
5568 10.5670 85.92 86.30 9.36
5569 10.5680 80.92 86.85 9.11
5570 10.5690 87.49 87.64 9.41
5571 10.5700 69.42 88.62 8.36
5572 10.5710 78.22 89.56 8.93
5573 10.5720 76.51 90.00 8.88
5574 10.5730 88.12 89.63 9.53
5575 10.5740 84.55 88.71 9.30
5576 10.5750 95.18 87.71 9.79
5577 10.5760 76.65 86.87 8.78
5578 10.5770 87.01 86.27 9.35
5579 10.5780 85.16 85.88 9.26
5580 10.5790 81.24 85.64 9.00
5581 10.5800 80.91 85.49 9.03
5582 10.5810 89.35 85.39 9.48
5583 10.5820 78.38 85.32 9.01
5584 10.5830 91.06 85.27 9.73
5585 10.5840 93.70 85.23 9.83
5586 10.5850 83.41 85.19 9.20
5587 10.5860 80.89 85.16 9.05
5588 10.5870 84.32 85.14 9.26
5589 10.5880 89.35 85.12 9.56
5590 10.5890 75.16 85.10 8.74
5591 10.5900 95.04 85.08 9.83
5592 10.5910 88.21 85.06 9.48
5593 10.5920 77.85 85.05 8.99
5594 10.5930 89.17 85.03 9.60
5595 10.5940 99.12 85.02 10.07
5596 10.5950 89.15 85.01 9.48
5597 10.5960 74.97 84.99 8.67
5598 10.5970 87.50 84.98 9.44
5599 10.5980 91.49 84.97 9.66
5600 10.5990 87.37 84.96 9.40
5601 10.6000 94.57 84.95 9.78
5602 10.6010 88.47 84.94 9.43
5603 10.6020 73.90 84.93 8.71
5604 10.6030 76.06 84.92 8.81
5605 10.6040 81.21 84.91 9.06
5606 10.6050 85.99 84.90 9.31
5607 10.6060 96.68 84.89 9.86
5608 10.6070 74.41 84.88 8.73
5609 10.6080 77.57 84.87 8.94
5610 10.6090 77.94 84.86 8.92
5611 10.6100 73.19 84.85 8.62
5612 10.6110 93.93 84.84 9.74
5613 10.6120 74.05 84.83 8.75
5614 10.6130 91.90 84.82 9.75
5615 10.6140 71.49 84.82 8.60
5616 10.6150 93.61 84.81 9.76
5617 10.6160 81.62 84.80 9.12
5618 10.6170 85.96 84.79 9.37
5619 10.6180 89.28 84.78 9.56
5620 10.6190 94.75 84.77 9.79
5621 10.6200 82.49 84.76 9.14
5622 10.6210 95.02 84.76 9.81
5623 10.6220 81.83 84.75 9.20
5624 10.6230 86.02 84.74 9.44
5625 10.6240 92.62 84.73 9.72
5626 10.6250 97.80 84.72 9.92
5627 10.6260 94.37 84.71 9.70
5628 10.6270 90.32 84.71 9.50
5629 10.6280 109.14 84.70 10.48
5630 10.6290 77.04 84.69 8.79
5631 10.6300 103.97 84.68 10.25
5632 10.6310 102.89 84.67 10.25
5633 10.6320 91.55 84.67 9.76
5634 10.6330 94.01 84.66 9.89
5635 10.6340 92.21 84.65 9.73
5636 10.6350 90.84 84.64 9.59
5637 10.6360 73.26 84.63 8.61
5638 10.6370 82.05 84.62 9.10
5639 10.6380 88.38 84.62 9.54
5640 10.6390 79.57 84.61 9.03
5641 10.6400 89.43 84.60 9.55
5642 10.6410 72.96 84.59 8.64
5643 10.6420 90.19 84.58 9.66
5644 10.6430 65.92 84.58 8.26
5645 10.6440 77.54 84.57 8.88
5646 10.6450 81.13 84.56 9.03
5647 10.6460 85.13 84.55 9.26
5648 10.6470 86.21 84.55 9.36
5649 10.6480 86.91 84.54 9.42
5650 10.6490 89.40 84.53 9.51
5651 10.6500 70.23 84.52 8.43
5652 10.6510 86.71 84.51 9.34
5653 10.6520 104.18 84.51 10.29
5654 10.6530 97.61 84.50 9.98
5655 10.6540 102.53 84.49 10.18
5656 10.6550 78.61 84.48 8.89
5657 10.6560 96.85 84.47 9.93
5658 10.6570 76.05 84.47 8.76
5659 10.6580 84.66 84.46 9.30
5660 10.6590 93.56 84.45 9.77
5661 10.6600 101.42 84.44 10.13
5662 10.6610 90.84 84.44 9.59
5663 10.6620 105.44 84.43 10.44
5664 10.6630 80.05 84.42 9.12
5665 10.6640 103.25 84.41 10.29
5666 10.6650 101.54 84.40 10.14
5667 10.6660 80.67 84.40 9.04
5668 10.6670 73.19 84.39 8.61
5669 10.6680 72.19 84.38 8.62
5670 10.6690 88.17 84.37 9.42
5671 10.6700 74.15 84.37 8.66
5672 10.6710 90.92 84.36 9.64
5673 10.6720 87.37 84.35 9.46
5674 10.6730 83.75 84.34 9.28
5675 10.6740 92.76 84.34 9.71
5676 10.6750 100.45 84.33 10.08
5677 10.6760 96.98 84.32 9.82
5678 10.6770 100.19 84.31 10.02
5679 10.6780 103.54 84.30 10.24
5680 10.6790 88.77 84.30 9.43
5681 10.6800 96.54 84.29 9.92
5682 10.6810 97.39 84.28 9.97
5683 10.6820 66.60 84.27 8.31
5684 10.6830 80.07 84.27 9.12
5685 10.6840 94.20 84.26 9.85
5686 10.6850 102.04 84.25 10.12
5687 10.6860 92.90 84.24 9.69
5688 10.6870 76.25 84.24 8.77
5689 10.6880 94.27 84.23 9.84
5690 10.6890 95.07 84.22 9.84
5691 10.6900 87.80 84.21 9.42
5692 10.6910 82.13 84.21 9.16
5693 10.6920 80.43 84.20 9.13
5694 10.6930 105.99 84.19 10.45
5695 10.6940 94.09 84.18 9.77
5696 10.6950 91.38 84.18 9.59
5697 10.6960 86.54 84.17 9.33
5698 10.6970 74.37 84.16 8.68
5699 10.6980 87.21 84.15 9.46
5700 10.6990 94.00 84.15 9.71
5701 10.7000 94.54 84.14 9.75
5702 10.7010 87.76 84.13 9.40
5703 10.7020 85.53 84.12 9.33
5704 10.7030 92.30 84.12 9.75
5705 10.7040 78.28 84.11 8.92
5706 10.7050 93.80 84.10 9.72
5707 10.7060 78.13 84.09 8.89
5708 10.7070 76.67 84.09 8.84
5709 10.7080 85.13 84.08 9.33
5710 10.7090 82.92 84.07 9.17
5711 10.7100 88.93 84.06 9.47
5712 10.7110 89.94 84.06 9.56
5713 10.7120 91.08 84.05 9.67
5714 10.7130 90.88 84.04 9.71
5715 10.7140 93.30 84.03 9.80
5716 10.7150 89.16 84.03 9.53
5717 10.7160 89.55 84.02 9.53
5718 10.7170 92.45 84.01 9.66
5719 10.7180 77.07 84.00 8.86
5720 10.7190 82.39 84.00 9.13
5721 10.7200 89.09 83.99 9.48
5722 10.7210 87.85 83.98 9.44
5723 10.7220 91.70 83.97 9.75
5724 10.7230 81.38 83.97 9.19
5725 10.7240 86.39 83.96 9.36
5726 10.7250 88.22 83.95 9.42
5727 10.7260 91.48 83.95 9.54
5728 10.7270 83.72 83.94 9.16
5729 10.7280 88.90 83.93 9.47
5730 10.7290 78.29 83.92 8.89
5731 10.7300 87.06 83.92 9.42
5732 10.7310 101.51 83.91 10.19
5733 10.7320 105.84 83.90 10.48
5734 10.7330 90.25 83.89 9.66
5735 10.7340 75.56 83.89 8.76
5736 10.7350 67.70 83.88 8.29
5737 10.7360 82.62 83.87 9.10
5738 10.7370 90.77 83.87 9.61
5739 10.7380 90.52 83.86 9.65
5740 10.7390 83.04 83.85 9.24
5741 10.7400 91.74 83.84 9.63
5742 10.7410 77.91 83.84 8.91
5743 10.7420 74.44 83.83 8.77
5744 10.7430 79.57 83.82 9.05
5745 10.7440 106.27 83.81 10.37
5746 10.7450 92.10 83.81 9.63
5747 10.7460 97.30 83.80 9.90
5748 10.7470 76.28 83.79 8.83
5749 10.7480 65.27 83.79 8.16
5750 10.7490 86.98 83.78 9.35
5751 10.7500 75.08 83.77 8.69
5752 10.7510 82.17 83.76 9.08
5753 10.7520 86.41 83.76 9.39
5754 10.7530 72.40 83.75 8.60
5755 10.7540 73.81 83.74 8.66
5756 10.7550 65.99 83.74 8.19
5757 10.7560 91.37 83.73 9.61
5758 10.7570 70.19 83.72 8.42
5759 10.7580 94.89 83.71 9.85
5760 10.7590 90.55 83.71 9.58
5761 10.7600 90.78 83.70 9.57
5762 10.7610 69.08 83.69 8.38
5763 10.7620 92.40 83.68 9.79
5764 10.7630 101.03 83.68 10.27
5765 10.7640 87.12 83.67 9.46
5766 10.7650 79.37 83.66 8.94
5767 10.7660 86.22 83.66 9.33
5768 10.7670 95.56 83.65 9.83
5769 10.7680 81.26 83.64 9.08
5770 10.7690 68.46 83.72 8.33
5771 10.7700 86.61 83.71 9.38
5772 10.7710 86.81 83.71 9.37
5773 10.7720 63.01 83.70 8.06
5774 10.7730 95.80 83.69 9.91
5775 10.7740 97.80 83.69 9.92
5776 10.7750 95.46 83.68 9.77
5777 10.7760 81.64 83.67 9.00
5778 10.7770 92.00 83.67 9.60
5779 10.7780 79.07 83.66 8.96
5780 10.7790 87.12 83.66 9.39
5781 10.7800 91.88 83.65 9.62
5782 10.7810 80.52 83.64 9.06
5783 10.7820 74.57 83.64 8.77
5784 10.7830 90.12 83.63 9.66
5785 10.7840 81.23 83.63 9.10
5786 10.7850 88.47 83.62 9.44
5787 10.7860 88.18 83.62 9.44
5788 10.7870 90.19 83.61 9.58
5789 10.7880 84.54 83.60 9.31
5790 10.7890 87.52 83.60 9.41
5791 10.7900 81.17 83.59 9.06
5792 10.7910 81.20 83.59 9.08
5793 10.7920 92.92 83.58 9.78
5794 10.7930 83.35 83.58 9.25
5795 10.7940 90.79 83.57 9.63
5796 10.7950 82.36 83.56 9.12
5797 10.7960 85.61 83.56 9.26
5798 10.7970 91.85 83.55 9.62
5799 10.7980 96.74 83.55 9.92
5800 10.7990 94.21 83.54 9.68
5801 10.8000 81.55 83.54 9.01
5802 10.8010 88.52 83.53 9.41
5803 10.8020 93.14 83.53 9.75
5804 10.8030 75.32 83.52 8.79
5805 10.8040 81.43 83.52 9.10
5806 10.8050 85.11 83.51 9.28
5807 10.8060 82.49 83.50 9.12
5808 10.8070 89.87 83.50 9.51
5809 10.8080 82.96 83.49 9.19
5810 10.8090 83.25 83.49 9.17
5811 10.8100 82.91 83.48 9.13
5812 10.8110 86.47 83.48 9.39
5813 10.8120 92.16 83.47 9.74
5814 10.8130 89.82 83.47 9.68
5815 10.8140 78.48 83.46 8.94
5816 10.8150 88.30 83.46 9.43
5817 10.8160 81.67 83.46 9.04
5818 10.8170 88.23 83.45 9.43
5819 10.8180 85.52 83.45 9.34
5820 10.8190 74.73 83.44 8.70
5821 10.8200 94.96 83.44 9.81
5822 10.8210 67.95 83.43 8.31
5823 10.8220 85.33 83.43 9.36
5824 10.8230 90.17 83.42 9.63
5825 10.8240 76.06 83.42 8.73
5826 10.8250 81.73 83.41 9.01
5827 10.8260 86.66 83.41 9.31
5828 10.8270 70.89 83.41 8.49
5829 10.8280 91.02 83.40 9.62
5830 10.8290 74.07 83.40 8.68
5831 10.8300 71.48 83.39 8.51
5832 10.8310 70.97 83.39 8.51
5833 10.8320 83.13 83.39 9.21
5834 10.8330 79.87 83.38 9.05
5835 10.8340 92.16 83.38 9.68
5836 10.8350 85.82 83.38 9.32
5837 10.8360 76.44 83.37 8.77
5838 10.8370 83.81 83.37 9.23
5839 10.8380 76.23 83.37 8.82
5840 10.8390 80.86 83.36 9.07
5841 10.8400 85.32 83.36 9.24
5842 10.8410 79.13 83.36 8.98
5843 10.8420 77.33 83.35 8.89
5844 10.8430 68.36 83.35 8.44
5845 10.8440 80.63 83.35 9.06
5846 10.8450 74.34 83.35 8.66
5847 10.8460 76.64 83.34 8.76
5848 10.8470 82.84 83.34 9.12
5849 10.8480 77.42 83.34 8.80
5850 10.8490 83.48 83.34 9.12
5851 10.8500 86.83 83.33 9.32
5852 10.8510 76.42 83.33 8.77
5853 10.8520 85.24 83.33 9.32
5854 10.8530 77.95 83.33 8.99
5855 10.8540 65.07 83.33 8.16
5856 10.8550 68.71 83.33 8.35
5857 10.8560 70.64 83.33 8.41
5858 10.8570 85.41 83.32 9.29
5859 10.8580 78.59 83.32 8.95
5860 10.8590 83.26 83.32 9.18
5861 10.8600 79.21 83.32 8.96
5862 10.8610 74.94 83.32 8.74
5863 10.8620 85.76 83.32 9.41
5864 10.8630 71.24 83.32 8.58
5865 10.8640 83.28 83.32 9.20
5866 10.8650 79.32 83.33 8.96
5867 10.8660 84.19 83.33 9.19
5868 10.8670 70.48 83.33 8.46
5869 10.8680 91.35 83.33 9.62
5870 10.8690 90.95 83.33 9.57
5871 10.8700 92.82 83.33 9.68
5872 10.8710 78.59 83.34 8.89
5873 10.8720 87.84 83.34 9.47
5874 10.8730 72.04 83.34 8.58
5875 10.8740 65.74 83.34 8.12
5876 10.8750 70.55 83.35 8.41
5877 10.8760 69.91 83.35 8.34
5878 10.8770 71.37 83.36 8.50
5879 10.8780 90.19 83.36 9.59
5880 10.8790 86.88 83.37 9.38
5881 10.8800 71.28 83.37 8.48
5882 10.8810 85.85 83.38 9.33
5883 10.8820 88.96 83.39 9.60
5884 10.8830 86.95 83.40 9.48
5885 10.8840 92.84 83.40 9.70
5886 10.8850 96.75 83.41 9.89
5887 10.8860 92.27 83.42 9.68
5888 10.8870 73.61 83.43 8.63
5889 10.8880 78.91 83.44 8.97
5890 10.8890 82.36 83.45 9.14
5891 10.8900 81.22 83.47 9.08
5892 10.8910 83.91 83.48 9.22
5893 10.8920 77.47 83.49 8.94
5894 10.8930 77.50 83.51 8.93
5895 10.8940 80.82 83.53 9.09
5896 10.8950 78.53 83.54 8.90
5897 10.8960 85.01 83.56 9.19
5898 10.8970 102.18 83.58 10.14
5899 10.8980 94.91 83.60 9.81
5900 10.8990 92.05 83.62 9.61
5901 10.9000 89.68 83.65 9.48
5902 10.9010 87.15 83.67 9.38
5903 10.9020 91.27 83.70 9.68
5904 10.9030 73.34 83.73 8.71
5905 10.9040 76.39 83.76 8.84
5906 10.9050 68.44 83.80 8.32
5907 10.9060 75.66 83.83 8.76
5908 10.9070 82.12 83.87 9.11
5909 10.9080 87.73 83.91 9.46
5910 10.9090 70.30 83.96 8.43
5911 10.9100 81.63 84.00 9.09
5912 10.9110 85.04 84.05 9.35
5913 10.9120 76.55 84.11 8.89
5914 10.9130 75.35 84.17 8.83
5915 10.9140 86.09 84.23 9.42
5916 10.9150 109.46 84.30 10.49
5917 10.9160 80.66 84.37 8.99
5918 10.9170 82.45 84.45 9.15
5919 10.9180 81.87 84.54 9.12
5920 10.9190 71.57 84.64 8.51
5921 10.9200 90.66 84.74 9.55
5922 10.9210 63.02 84.85 7.99
5923 10.9220 62.64 84.97 8.00
5924 10.9230 84.65 85.10 9.32
5925 10.9240 92.84 85.25 9.69
5926 10.9250 86.32 85.41 9.30
5927 10.9260 73.29 85.58 8.58
5928 10.9270 78.87 85.78 8.94
5929 10.9280 85.98 85.99 9.34
5930 10.9290 77.53 86.23 8.87
5931 10.9300 78.48 86.50 8.95
5932 10.9310 87.27 86.80 9.42
5933 10.9320 89.42 87.13 9.55
5934 10.9330 97.21 87.50 10.02
5935 10.9340 84.96 87.93 9.30
5936 10.9350 88.13 88.41 9.48
5937 10.9360 82.82 88.97 9.16
5938 10.9370 94.82 89.61 9.81
5939 10.9380 77.40 90.34 8.90
5940 10.9390 72.41 91.20 8.55
5941 10.9400 90.49 92.21 9.54
5942 10.9410 87.63 93.41 9.42
5943 10.9420 98.55 94.84 10.08
5944 10.9430 84.20 96.57 9.33
5945 10.9440 87.16 98.69 9.41
5946 10.9450 91.96 101.31 9.61
5947 10.9460 106.36 104.63 10.32
5948 10.9470 120.37 108.96 10.99
5949 10.9480 125.56 114.89 11.25
5950 10.9490 121.74 123.55 11.08
5951 10.9500 141.76 137.13 11.95
5952 10.9510 187.44 159.36 13.78
5953 10.9520 220.62 195.39 15.03
5954 10.9530 276.60 250.85 16.84
5955 10.9540 321.08 328.50 18.11
5956 10.9550 443.87 423.16 21.17
5957 10.9560 573.22 512.68 24.00
5958 10.9570 633.42 553.51 25.26
5959 10.9580 614.20 516.48 25.08
5960 10.9590 493.08 428.38 22.46
5961 10.9600 362.74 333.14 19.14
5962 10.9610 292.09 254.34 17.27
5963 10.9620 220.91 197.81 15.12
5964 10.9630 181.34 160.79 13.67
5965 10.9640 156.58 137.97 12.61
5966 10.9650 136.54 124.02 11.74
5967 10.9660 118.86 115.16 10.94
5968 10.9670 104.68 109.11 10.30
5969 10.9680 101.07 104.70 10.14
5970 10.9690 100.47 101.32 10.07
5971 10.9700 105.67 98.65 10.33
5972 10.9710 96.11 96.50 9.84
5973 10.9720 99.32 94.74 10.02
5974 10.9730 75.72 93.29 8.79
5975 10.9740 82.71 92.06 9.16
5976 10.9750 97.04 91.03 9.88
5977 10.9760 101.57 90.16 10.09
5978 10.9770 84.32 89.40 9.28
5979 10.9780 78.76 88.75 8.97
5980 10.9790 75.91 88.18 8.79
5981 10.9800 100.56 87.68 10.08
5982 10.9810 73.44 87.24 8.68
5983 10.9820 83.71 86.85 9.31
5984 10.9830 77.95 86.50 8.99
5985 10.9840 79.24 86.19 9.02
5986 10.9850 82.08 85.91 9.10
5987 10.9860 84.73 85.66 9.26
5988 10.9870 85.31 85.43 9.34
5989 10.9880 83.42 85.22 9.21
5990 10.9890 108.26 85.03 10.45
5991 10.9900 85.82 84.86 9.35
5992 10.9910 64.24 84.70 8.10
5993 10.9920 70.01 84.55 8.49
5994 10.9930 95.04 84.42 9.90
5995 10.9940 77.88 84.30 8.91
5996 10.9950 81.56 84.18 9.03
5997 10.9960 88.58 84.07 9.40
5998 10.9970 98.34 83.97 9.93
5999 10.9980 83.15 83.88 9.18
6000 10.9990 78.32 83.80 8.88
6001 11.0000 80.34 83.71 9.00
6002 11.0010 91.16 83.64 9.63
6003 11.0020 71.27 83.57 8.57
6004 11.0030 69.92 83.50 8.51
6005 11.0040 76.92 83.44 8.86
6006 11.0050 88.87 83.38 9.44
6007 11.0060 73.66 83.32 8.64
6008 11.0070 77.77 83.27 8.88
6009 11.0080 72.56 83.22 8.64
6010 11.0090 66.32 83.17 8.23
6011 11.0100 84.84 83.12 9.28
6012 11.0110 75.42 83.08 8.76
6013 11.0120 77.04 83.04 8.86
6014 11.0130 84.49 83.00 9.32
6015 11.0140 81.23 82.96 9.10
6016 11.0150 77.29 82.92 8.82
6017 11.0160 81.60 82.89 9.05
6018 11.0170 83.96 82.86 9.23
6019 11.0180 65.00 82.82 8.14
6020 11.0190 65.35 82.79 8.11
6021 11.0200 78.60 82.76 8.88
6022 11.0210 85.65 82.74 9.27
6023 11.0220 79.73 82.71 9.02
6024 11.0230 77.16 82.68 8.87
6025 11.0240 86.59 82.66 9.38
6026 11.0250 83.93 82.63 9.23
6027 11.0260 80.35 82.61 9.03
6028 11.0270 86.35 82.59 9.32
6029 11.0280 85.84 82.56 9.32
6030 11.0290 78.99 82.54 8.92
6031 11.0300 88.29 82.52 9.44
6032 11.0310 67.85 82.50 8.31
6033 11.0320 94.74 82.48 9.87
6034 11.0330 90.32 82.46 9.66
6035 11.0340 88.79 82.44 9.56
6036 11.0350 83.05 82.42 9.15
6037 11.0360 72.14 82.41 8.53
6038 11.0370 72.70 82.39 8.58
6039 11.0380 76.86 82.37 8.88
6040 11.0390 78.34 82.36 8.89
6041 11.0400 82.97 82.34 9.17
6042 11.0410 82.27 82.33 9.13
6043 11.0420 85.96 82.31 9.43
6044 11.0430 78.30 82.30 8.97
6045 11.0440 97.11 82.28 9.91
6046 11.0450 74.01 82.27 8.61
6047 11.0460 82.90 82.25 9.08
6048 11.0470 89.85 82.24 9.51
6049 11.0480 69.27 82.23 8.37
6050 11.0490 101.74 82.21 10.11
6051 11.0500 87.13 82.20 9.39
6052 11.0510 79.18 82.19 8.94
6053 11.0520 88.86 82.17 9.53
6054 11.0530 84.93 82.16 9.33
6055 11.0540 91.79 82.15 9.68
6056 11.0550 80.06 82.14 8.98
6057 11.0560 63.07 82.13 7.94
6058 11.0570 70.83 82.11 8.50
6059 11.0580 79.37 82.10 8.99
6060 11.0590 84.45 82.09 9.26
6061 11.0600 81.93 82.08 9.10
6062 11.0610 87.42 82.07 9.40
6063 11.0620 91.75 82.06 9.69
6064 11.0630 97.01 82.05 9.99
6065 11.0640 82.90 82.04 9.17
6066 11.0650 85.39 82.03 9.26
6067 11.0660 81.09 82.02 9.03
6068 11.0670 82.62 82.01 9.14
6069 11.0680 71.56 82.00 8.51
6070 11.0690 87.76 81.99 9.41
6071 11.0700 97.31 81.98 9.88
6072 11.0710 70.45 81.97 8.40
6073 11.0720 88.08 81.96 9.45
6074 11.0730 82.35 81.95 9.19
6075 11.0740 89.79 81.94 9.58
6076 11.0750 83.99 81.93 9.19
6077 11.0760 79.91 81.93 8.97
6078 11.0770 99.99 81.92 10.06
6079 11.0780 67.93 81.91 8.30
6080 11.0790 84.74 81.90 9.24
6081 11.0800 79.66 81.89 8.96
6082 11.0810 78.54 81.88 8.94
6083 11.0820 84.02 81.87 9.32
6084 11.0830 91.55 81.87 9.69
6085 11.0840 82.33 81.86 9.19
6086 11.0850 80.55 81.85 9.01
6087 11.0860 81.82 81.84 9.06
6088 11.0870 83.63 81.83 9.20
6089 11.0880 74.16 81.82 8.68
6090 11.0890 71.91 81.82 8.54
6091 11.0900 68.70 81.81 8.32
6092 11.0910 74.34 81.80 8.66
6093 11.0920 84.70 81.79 9.33
6094 11.0930 88.94 81.79 9.57
6095 11.0940 72.28 81.78 8.56
6096 11.0950 70.40 81.77 8.38
6097 11.0960 82.78 81.76 9.09
6098 11.0970 83.50 81.76 9.17
6099 11.0980 79.28 81.75 8.97
6100 11.0990 69.05 81.74 8.35
6101 11.1000 90.57 81.73 9.56
6102 11.1010 85.46 81.73 9.28
6103 11.1020 83.58 81.72 9.24
6104 11.1030 92.23 81.71 9.72
6105 11.1040 71.02 81.70 8.49
6106 11.1050 74.31 81.70 8.70
6107 11.1060 80.18 81.69 9.00
6108 11.1070 86.75 81.68 9.32
6109 11.1080 95.41 81.68 9.89
6110 11.1090 92.28 81.67 9.68
6111 11.1100 80.06 81.66 9.00
6112 11.1110 79.87 81.66 8.97
6113 11.1120 97.52 81.65 10.01
6114 11.1130 92.13 81.64 9.77
6115 11.1140 68.94 81.64 8.42
6116 11.1150 68.46 81.63 8.29
6117 11.1160 77.59 81.62 8.84
6118 11.1170 72.01 81.62 8.51
6119 11.1180 96.64 81.61 9.92
6120 11.1190 84.48 81.60 9.21
6121 11.1200 71.45 81.60 8.44
6122 11.1210 73.29 81.59 8.63
6123 11.1220 77.33 81.58 8.91
6124 11.1230 100.09 81.58 10.16
6125 11.1240 92.90 81.57 9.71
6126 11.1250 86.16 81.56 9.33
6127 11.1260 82.42 81.56 9.10
6128 11.1270 91.75 81.55 9.61
6129 11.1280 83.59 81.54 9.20
6130 11.1290 93.46 81.54 9.73
6131 11.1300 99.09 81.53 10.02
6132 11.1310 81.89 81.53 9.11
6133 11.1320 97.63 81.52 10.03
6134 11.1330 78.61 81.51 9.04
6135 11.1340 93.14 81.51 9.76
6136 11.1350 91.73 81.50 9.62
6137 11.1360 79.31 81.49 8.91
6138 11.1370 88.54 81.49 9.48
6139 11.1380 66.66 81.48 8.29
6140 11.1390 96.41 81.48 9.89
6141 11.1400 81.67 81.47 9.08
6142 11.1410 93.26 81.46 9.73
6143 11.1420 83.14 81.46 9.25
6144 11.1430 94.17 81.45 9.82
6145 11.1440 87.51 81.45 9.39
6146 11.1450 79.87 81.44 8.95
6147 11.1460 75.22 81.35 8.70
6148 11.1470 88.65 81.35 9.45
6149 11.1480 66.39 81.34 8.23
6150 11.1490 76.84 81.34 8.80
6151 11.1500 77.53 81.33 8.86
6152 11.1510 92.30 81.33 9.66
6153 11.1520 82.20 81.32 9.18
6154 11.1530 87.13 81.32 9.46
6155 11.1540 98.90 81.31 10.06
6156 11.1550 93.86 81.31 9.75
6157 11.1560 85.52 81.30 9.34
6158 11.1570 82.02 81.30 9.13
6159 11.1580 80.70 81.29 9.11
6160 11.1590 68.20 81.29 8.31
6161 11.1600 69.59 81.28 8.39
6162 11.1610 87.21 81.28 9.43
6163 11.1620 78.79 81.27 8.99
6164 11.1630 78.30 81.27 9.00
6165 11.1640 75.88 81.26 8.82
6166 11.1650 85.97 81.26 9.32
6167 11.1660 99.87 81.25 10.02
6168 11.1670 78.01 81.25 8.89
6169 11.1680 95.33 81.24 9.84
6170 11.1690 88.69 81.24 9.47
6171 11.1700 85.96 81.23 9.30
6172 11.1710 81.24 81.23 9.12
6173 11.1720 76.98 81.22 8.87
6174 11.1730 97.65 81.22 10.05
6175 11.1740 79.17 81.21 8.97
6176 11.1750 85.08 81.21 9.23
6177 11.1760 92.15 81.20 9.65
6178 11.1770 100.51 81.20 10.06
6179 11.1780 93.44 81.19 9.75
6180 11.1790 87.43 81.19 9.42
6181 11.1800 88.59 81.18 9.46
6182 11.1810 80.69 81.18 9.08
6183 11.1820 91.40 81.17 9.73
6184 11.1830 82.61 81.17 9.24
6185 11.1840 76.46 81.16 8.86
6186 11.1850 100.11 81.16 10.05
6187 11.1860 87.26 81.15 9.36
6188 11.1870 75.52 81.15 8.74
6189 11.1880 87.26 81.14 9.47
6190 11.1890 95.09 81.14 9.83
6191 11.1900 71.77 81.13 8.53
6192 11.1910 79.08 81.13 8.93
6193 11.1920 88.38 81.12 9.50
6194 11.1930 88.12 81.12 9.51
6195 11.1940 82.36 81.11 9.13
6196 11.1950 76.22 81.11 8.75
6197 11.1960 78.51 81.10 8.86
6198 11.1970 75.10 81.10 8.71
6199 11.1980 68.67 81.09 8.37
6200 11.1990 94.24 81.09 9.76
6201 11.2000 77.65 81.08 8.84
6202 11.2010 78.97 81.08 8.93
6203 11.2020 84.94 81.08 9.32
6204 11.2030 70.07 81.07 8.50
6205 11.2040 90.68 81.07 9.62
6206 11.2050 67.16 81.06 8.28
6207 11.2060 89.16 81.06 9.52
6208 11.2070 102.11 81.05 10.21
6209 11.2080 90.40 81.05 9.60
6210 11.2090 81.29 81.04 9.07
6211 11.2100 85.67 81.04 9.29
6212 11.2110 97.87 81.03 9.94
6213 11.2120 75.73 81.03 8.83
6214 11.2130 79.88 81.02 9.10
6215 11.2140 98.38 81.02 10.00
6216 11.2150 67.31 81.01 8.23
6217 11.2160 78.29 81.01 8.88
6218 11.2170 78.65 81.00 8.90
6219 11.2180 93.66 81.00 9.72
6220 11.2190 85.45 80.99 9.28
6221 11.2200 76.24 80.99 8.76
6222 11.2210 90.50 80.98 9.55
6223 11.2220 89.12 80.98 9.60
6224 11.2230 85.54 80.98 9.39
6225 11.2240 97.86 80.97 9.98
6226 11.2250 78.49 80.97 8.89
6227 11.2260 80.58 80.96 8.99
6228 11.2270 79.65 80.96 8.98
6229 11.2280 81.29 80.95 9.09
6230 11.2290 101.49 80.95 10.17
6231 11.2300 89.49 80.94 9.48
6232 11.2310 91.49 80.94 9.67
6233 11.2320 75.20 80.93 8.82
6234 11.2330 76.35 80.93 8.88
6235 11.2340 84.37 80.92 9.26
6236 11.2350 94.62 80.92 9.78
6237 11.2360 89.58 80.91 9.49
6238 11.2370 86.36 80.91 9.35
6239 11.2380 79.08 80.91 9.00
6240 11.2390 94.52 80.90 9.80
6241 11.2400 90.19 80.90 9.52
6242 11.2410 91.39 80.89 9.58
6243 11.2420 98.72 80.89 10.03
6244 11.2430 98.22 80.88 10.04
6245 11.2440 85.66 80.88 9.33
6246 11.2450 85.47 80.87 9.29
6247 11.2460 83.30 80.87 9.17
6248 11.2470 91.75 80.86 9.68
6249 11.2480 72.02 80.86 8.56
6250 11.2490 89.86 80.85 9.51
6251 11.2500 83.90 80.85 9.19
6252 11.2510 84.03 80.85 9.22
6253 11.2520 76.27 80.84 8.86
6254 11.2530 89.36 80.84 9.61
6255 11.2540 96.76 80.83 9.96
6256 11.2550 88.81 80.83 9.49
6257 11.2560 84.39 80.82 9.23
6258 11.2570 99.14 80.82 10.02
6259 11.2580 87.67 80.81 9.43
6260 11.2590 93.21 80.81 9.69
6261 11.2600 100.82 80.80 10.09
6262 11.2610 82.51 80.80 9.17
6263 11.2620 87.70 80.80 9.50
6264 11.2630 86.11 80.79 9.46
6265 11.2640 91.16 80.79 9.68
6266 11.2650 103.21 80.78 10.19
6267 11.2660 97.43 80.78 9.89
6268 11.2670 88.60 80.77 9.46
6269 11.2680 85.12 80.77 9.30
6270 11.2690 91.86 80.76 9.63
6271 11.2700 88.14 80.76 9.43
6272 11.2710 84.46 80.75 9.27
6273 11.2720 84.90 80.75 9.36
6274 11.2730 95.78 80.75 9.93
6275 11.2740 101.61 80.74 10.12
6276 11.2750 93.08 80.74 9.64
6277 11.2760 88.36 80.73 9.44
6278 11.2770 88.64 80.73 9.46
6279 11.2780 84.80 80.72 9.31
6280 11.2790 91.99 80.72 9.70
6281 11.2800 97.39 80.71 9.97
6282 11.2810 92.30 80.71 9.68
6283 11.2820 102.65 80.71 10.28
6284 11.2830 95.07 80.70 9.89
6285 11.2840 81.49 80.70 9.14
6286 11.2850 95.44 80.69 9.80
6287 11.2860 95.47 80.69 9.80
6288 11.2870 93.10 80.68 9.71
6289 11.2880 81.60 80.68 9.12
6290 11.2890 80.42 80.68 9.04
6291 11.2900 100.82 80.67 10.09
6292 11.2910 93.53 80.67 9.72
6293 11.2920 106.63 80.66 10.46
6294 11.2930 84.23 80.66 9.31
6295 11.2940 100.00 80.65 10.10
6296 11.2950 87.98 80.65 9.45
6297 11.2960 101.34 80.64 10.12
6298 11.2970 79.82 80.64 8.98
6299 11.2980 81.90 80.64 9.15
6300 11.2990 72.22 80.63 8.54
6301 11.3000 93.71 80.63 9.74
6302 11.3010 85.11 80.62 9.31
6303 11.3020 89.22 80.62 9.58
6304 11.3030 101.41 80.61 10.29
6305 11.3040 83.28 80.61 9.25
6306 11.3050 98.64 80.61 10.03
6307 11.3060 102.28 80.60 10.15
6308 11.3070 86.50 80.60 9.37
6309 11.3080 80.39 80.59 9.05
6310 11.3090 88.79 80.59 9.49
6311 11.3100 84.62 80.58 9.24
6312 11.3110 103.24 80.58 10.26
6313 11.3120 81.10 80.58 9.18
6314 11.3130 93.45 80.57 9.86
6315 11.3140 84.18 80.57 9.27
6316 11.3150 97.56 80.56 9.92
6317 11.3160 97.13 80.56 9.87
6318 11.3170 89.19 80.55 9.50
6319 11.3180 76.21 80.55 8.82
6320 11.3190 70.53 80.55 8.46
6321 11.3200 76.07 80.54 8.81
6322 11.3210 68.90 80.54 8.39
6323 11.3220 91.60 80.53 9.70
6324 11.3230 101.78 80.53 10.26
6325 11.3240 78.23 80.52 8.94
6326 11.3250 79.89 80.52 8.99
6327 11.3260 75.16 80.52 8.73
6328 11.3270 87.89 80.51 9.47
6329 11.3280 75.28 80.51 8.82
6330 11.3290 92.35 80.50 9.69
6331 11.3300 92.98 80.50 9.74
6332 11.3310 82.88 80.49 9.20
6333 11.3320 80.41 80.49 9.12
6334 11.3330 81.95 80.49 9.21
6335 11.3340 86.10 80.48 9.37
6336 11.3350 88.62 80.48 9.51
6337 11.3360 86.16 80.47 9.34
6338 11.3370 95.10 80.47 9.83
6339 11.3380 91.32 80.47 9.64
6340 11.3390 87.90 80.46 9.45
6341 11.3400 90.80 80.46 9.54
6342 11.3410 95.89 80.45 9.84
6343 11.3420 90.18 80.45 9.65
6344 11.3430 91.36 80.44 9.73
6345 11.3440 76.72 80.44 8.87
6346 11.3450 99.09 80.44 10.04
6347 11.3460 88.55 80.43 9.45
6348 11.3470 88.81 80.43 9.50
6349 11.3480 72.29 80.42 8.59
6350 11.3490 90.86 80.42 9.58
6351 11.3500 100.30 80.42 10.08
6352 11.3510 96.17 80.41 9.92
6353 11.3520 74.15 80.41 8.77
6354 11.3530 72.46 80.40 8.71
6355 11.3540 92.08 80.40 9.70
6356 11.3550 87.29 80.40 9.44
6357 11.3560 73.68 80.39 8.64
6358 11.3570 83.44 80.39 9.21
6359 11.3580 82.67 80.38 9.21
6360 11.3590 68.86 80.38 8.38
6361 11.3600 82.69 80.38 9.16
6362 11.3610 67.25 80.37 8.29
6363 11.3620 107.70 80.37 10.54
6364 11.3630 95.11 80.36 9.92
6365 11.3640 87.73 80.36 9.48
6366 11.3650 87.10 80.35 9.38
6367 11.3660 92.32 80.35 9.64
6368 11.3670 88.75 80.35 9.49
6369 11.3680 84.48 80.34 9.32
6370 11.3690 84.78 80.34 9.30
6371 11.3700 79.86 80.33 9.00
6372 11.3710 85.68 80.33 9.38
6373 11.3720 96.79 80.33 10.00
6374 11.3730 71.86 80.32 8.62
6375 11.3740 76.12 80.32 8.81
6376 11.3750 76.74 80.31 8.80
6377 11.3760 92.14 80.31 9.67
6378 11.3770 86.63 80.31 9.39
6379 11.3780 74.99 80.30 8.78
6380 11.3790 93.03 80.30 9.76
6381 11.3800 98.54 80.29 9.99
6382 11.3810 68.74 80.29 8.39
6383 11.3820 78.44 80.29 9.00
6384 11.3830 94.01 80.28 9.86
6385 11.3840 82.06 80.28 9.18
6386 11.3850 93.07 80.28 9.71
6387 11.3860 86.20 80.27 9.32
6388 11.3870 97.35 80.27 9.97
6389 11.3880 88.97 80.26 9.53
6390 11.3890 91.26 80.26 9.62
6391 11.3900 95.17 80.26 9.80
6392 11.3910 76.80 80.25 8.84
6393 11.3920 72.23 80.25 8.63
6394 11.3930 70.51 80.24 8.55
6395 11.3940 90.33 80.24 9.58
6396 11.3950 76.17 80.24 8.80
6397 11.3960 100.77 80.23 10.11
6398 11.3970 94.59 80.23 9.80
6399 11.3980 72.46 80.22 8.58
6400 11.3990 79.69 80.22 8.98
6401 11.4000 69.57 80.22 8.39
6402 11.4010 79.40 80.21 8.99
6403 11.4020 100.55 80.21 10.20
6404 11.4030 81.40 80.20 9.24
6405 11.4040 92.44 80.20 9.76
6406 11.4050 86.82 80.20 9.37
6407 11.4060 85.61 80.19 9.29
6408 11.4070 80.96 80.19 9.04
6409 11.4080 93.34 80.19 9.74
6410 11.4090 65.85 80.18 8.18
6411 11.4100 83.39 80.18 9.20
6412 11.4110 90.72 80.17 9.66
6413 11.4120 84.41 80.17 9.37
6414 11.4130 72.05 80.17 8.62
6415 11.4140 92.66 80.16 9.71
6416 11.4150 81.76 80.16 9.07
6417 11.4160 81.26 80.15 9.06
6418 11.4170 81.54 80.15 9.08
6419 11.4180 92.37 80.15 9.71
6420 11.4190 90.19 80.14 9.60
6421 11.4200 82.34 80.14 9.16
6422 11.4210 90.99 80.14 9.58
6423 11.4220 84.58 80.13 9.32
6424 11.4230 82.07 80.13 9.16
6425 11.4240 75.55 80.12 8.78
6426 11.4250 68.57 80.12 8.31
6427 11.4260 76.25 80.12 8.76
6428 11.4270 72.20 80.11 8.61
6429 11.4280 74.74 80.11 8.79
6430 11.4290 74.90 80.11 8.74
6431 11.4300 80.63 80.10 9.02
6432 11.4310 72.08 80.10 8.58
6433 11.4320 85.20 80.09 9.40
6434 11.4330 82.35 80.09 9.23
6435 11.4340 70.60 80.09 8.53
6436 11.4350 64.59 80.08 8.10
6437 11.4360 83.13 80.08 9.17
6438 11.4370 79.90 80.08 8.97
6439 11.4380 78.93 80.07 8.97
6440 11.4390 87.32 80.07 9.40
6441 11.4400 93.37 80.06 9.70
6442 11.4410 92.23 80.06 9.69
6443 11.4420 100.97 80.06 10.19
6444 11.4430 76.71 80.05 8.95
6445 11.4440 75.66 80.05 8.82
6446 11.4450 87.45 80.05 9.40
6447 11.4460 101.47 80.04 10.08
6448 11.4470 75.77 80.04 8.77
6449 11.4480 82.90 80.04 9.20
6450 11.4490 77.22 80.03 8.82
6451 11.4500 76.66 80.03 8.78
6452 11.4510 75.92 80.02 8.81
6453 11.4520 75.73 80.02 8.84
6454 11.4530 72.72 80.02 8.68
6455 11.4540 76.89 80.01 8.87
6456 11.4550 82.57 80.01 9.12
6457 11.4560 81.77 80.01 9.10
6458 11.4570 78.44 80.00 8.91
6459 11.4580 81.98 80.00 9.13
6460 11.4590 86.85 80.00 9.39
6461 11.4600 95.20 79.99 9.83
6462 11.4610 82.86 79.99 9.20
6463 11.4620 88.53 79.98 9.53
6464 11.4630 84.84 79.98 9.36
6465 11.4640 94.72 79.98 9.83
6466 11.4650 83.09 79.97 9.15
6467 11.4660 73.92 79.97 8.60
6468 11.4670 92.32 79.97 9.66
6469 11.4680 87.51 79.96 9.48
6470 11.4690 89.06 79.96 9.53
6471 11.4700 88.97 79.96 9.50
6472 11.4710 99.28 79.95 10.03
6473 11.4720 67.93 79.95 8.36
6474 11.4730 92.50 79.95 9.74
6475 11.4740 84.99 79.94 9.26
6476 11.4750 82.01 79.94 9.09
6477 11.4760 79.33 79.93 8.95
6478 11.4770 88.68 79.93 9.50
6479 11.4780 73.06 79.93 8.64
6480 11.4790 73.42 79.92 8.64
6481 11.4800 85.53 79.92 9.31
6482 11.4810 89.52 79.92 9.51
6483 11.4820 78.74 79.91 9.01
6484 11.4830 81.30 79.91 9.15
6485 11.4840 95.75 79.91 9.91
6486 11.4850 74.77 79.90 8.70
6487 11.4860 79.59 79.90 8.95
6488 11.4870 97.42 79.90 9.89
6489 11.4880 84.35 79.89 9.26
6490 11.4890 79.82 79.89 8.96
6491 11.4900 96.45 79.89 9.86
6492 11.4910 82.60 79.88 9.13
6493 11.4920 77.97 79.88 9.00
6494 11.4930 87.18 79.87 9.48
6495 11.4940 84.97 79.87 9.33
6496 11.4950 59.94 79.87 7.81
6497 11.4960 84.66 79.86 9.20
6498 11.4970 80.10 79.86 8.99
6499 11.4980 69.77 79.86 8.42
6500 11.4990 90.65 79.85 9.60
6501 11.5000 77.34 79.85 8.83
6502 11.5010 78.13 79.85 8.93
6503 11.5020 57.05 79.84 7.70
6504 11.5030 76.09 79.84 8.89
6505 11.5040 78.83 79.84 9.01
6506 11.5050 85.03 79.83 9.25
6507 11.5060 88.71 79.83 9.48
6508 11.5070 57.26 79.83 7.64
6509 11.5080 75.54 79.82 8.82
6510 11.5090 93.66 79.82 9.74
6511 11.5100 86.02 79.82 9.32
6512 11.5110 91.81 79.81 9.65
6513 11.5120 73.95 79.81 8.71
6514 11.5130 80.63 79.81 9.13
6515 11.5140 79.04 79.80 9.00
6516 11.5150 68.77 79.80 8.36
6517 11.5160 74.93 79.80 8.71
6518 11.5170 67.79 79.79 8.31
6519 11.5180 92.87 79.79 9.73
6520 11.5190 83.32 79.79 9.21
6521 11.5200 90.73 79.78 9.58
6522 11.5210 81.32 79.78 9.05
6523 11.5220 78.19 79.78 8.97
6524 11.5230 82.81 79.77 9.25
6525 11.5240 75.62 79.77 8.84
6526 11.5250 83.53 79.77 9.20
6527 11.5260 78.64 79.76 8.95
6528 11.5270 77.55 79.76 8.91
6529 11.5280 84.87 79.76 9.33
6530 11.5290 82.24 79.75 9.15
6531 11.5300 81.49 79.75 9.09
6532 11.5310 74.30 79.75 8.70
6533 11.5320 74.81 79.74 8.84
6534 11.5330 76.62 79.74 8.93
6535 11.5340 74.20 79.74 8.71
6536 11.5350 92.22 79.73 9.67
6537 11.5360 78.66 79.73 8.90
6538 11.5370 73.15 79.73 8.61
6539 11.5380 64.99 79.72 8.12
6540 11.5390 70.20 79.72 8.44
6541 11.5400 78.22 79.72 8.91
6542 11.5410 80.17 79.71 9.05
6543 11.5420 80.75 79.71 9.14
6544 11.5430 93.47 79.71 9.83
6545 11.5440 73.82 79.70 8.70
6546 11.5450 77.32 79.70 8.86
6547 11.5460 97.09 79.70 9.86
6548 11.5470 86.63 79.69 9.37
6549 11.5480 77.78 79.69 8.93
6550 11.5490 85.05 79.69 9.32
6551 11.5500 87.12 79.68 9.41
6552 11.5510 88.29 79.68 9.50
6553 11.5520 83.14 79.68 9.30
6554 11.5530 84.59 79.67 9.39
6555 11.5540 78.48 79.67 8.95
6556 11.5550 80.08 79.67 9.03
6557 11.5560 71.17 79.67 8.51
6558 11.5570 87.50 79.66 9.46
6559 11.5580 90.32 79.66 9.65
6560 11.5590 94.39 79.66 9.80
6561 11.5600 95.40 79.65 9.84
6562 11.5610 85.22 79.65 9.34
6563 11.5620 91.01 79.65 9.66
6564 11.5630 81.95 79.64 9.21
6565 11.5640 87.47 79.64 9.46
6566 11.5650 87.93 79.64 9.45
6567 11.5660 68.95 79.63 8.39
6568 11.5670 77.94 79.63 8.93
6569 11.5680 94.82 79.63 9.86
6570 11.5690 76.14 79.62 8.77
6571 11.5700 99.23 79.62 10.02
6572 11.5710 81.60 79.62 9.09
6573 11.5720 79.85 79.61 9.06
6574 11.5730 91.23 79.61 9.74
6575 11.5740 89.47 79.61 9.58
6576 11.5750 71.42 79.61 8.52
6577 11.5760 63.62 79.60 8.06
6578 11.5770 66.16 79.60 8.22
6579 11.5780 91.39 79.60 9.66
6580 11.5790 71.16 79.59 8.50
6581 11.5800 77.38 79.59 8.86
6582 11.5810 82.22 79.59 9.16
6583 11.5820 77.36 79.58 8.98
6584 11.5830 81.14 79.58 9.19
6585 11.5840 67.77 79.58 8.33
6586 11.5850 79.82 79.57 8.97
6587 11.5860 89.29 79.57 9.48
6588 11.5870 83.81 79.57 9.20
6589 11.5880 77.75 79.57 8.90
6590 11.5890 87.44 79.56 9.44
6591 11.5900 78.66 79.56 8.92
6592 11.5910 73.86 79.56 8.69
6593 11.5920 72.36 79.55 8.67
6594 11.5930 68.33 79.55 8.42
6595 11.5940 86.85 79.55 9.43
6596 11.5950 77.00 79.54 8.81
6597 11.5960 69.31 79.54 8.37
6598 11.5970 84.17 79.54 9.23
6599 11.5980 70.11 79.53 8.47
6600 11.5990 75.85 79.53 8.78
6601 11.6000 80.35 79.53 9.04
6602 11.6010 78.16 79.53 8.93
6603 11.6020 86.19 79.52 9.42
6604 11.6030 85.65 79.52 9.42
6605 11.6040 90.69 79.52 9.62
6606 11.6050 78.83 79.51 8.96
6607 11.6060 90.12 79.51 9.55
6608 11.6070 77.58 79.51 8.87
6609 11.6080 86.53 79.50 9.41
6610 11.6090 94.00 79.50 9.77
6611 11.6100 74.76 79.50 8.70
6612 11.6110 81.10 79.50 9.04
6613 11.6120 83.59 79.49 9.30
6614 11.6130 80.32 79.49 9.09
6615 11.6140 88.34 79.49 9.50
6616 11.6150 89.16 79.48 9.53
6617 11.6160 76.05 79.48 8.79
6618 11.6170 67.88 79.48 8.32
6619 11.6180 79.92 79.48 9.03
6620 11.6190 89.46 79.47 9.54
6621 11.6200 81.55 79.47 9.06
6622 11.6210 82.50 79.47 9.14
6623 11.6220 79.83 79.46 9.09
6624 11.6230 97.41 79.46 10.01
6625 11.6240 83.31 79.46 9.27
6626 11.6250 62.62 79.46 7.99
6627 11.6260 78.24 79.45 8.87
6628 11.6270 88.56 79.45 9.48
6629 11.6280 78.60 79.45 8.98
6630 11.6290 91.13 79.44 9.60
6631 11.6300 76.13 79.44 8.79
6632 11.6310 96.41 79.44 9.91
6633 11.6320 68.15 79.43 8.43
6634 11.6330 78.26 79.43 9.03
6635 11.6340 85.49 79.43 9.36
6636 11.6350 85.22 79.43 9.33
6637 11.6360 90.00 79.42 9.55
6638 11.6370 84.63 79.42 9.24
6639 11.6380 81.73 79.42 9.15
6640 11.6390 75.32 79.41 8.73
6641 11.6400 71.25 79.41 8.50
6642 11.6410 80.57 79.41 9.09
6643 11.6420 98.49 79.41 10.11
6644 11.6430 87.91 79.40 9.55
6645 11.6440 83.01 79.40 9.20
6646 11.6450 82.35 79.40 9.12
6647 11.6460 81.41 79.39 9.04
6648 11.6470 70.36 79.39 8.41
6649 11.6480 74.17 79.39 8.69
6650 11.6490 78.14 79.39 8.90
6651 11.6500 88.31 79.38 9.46
6652 11.6510 85.71 79.38 9.38
6653 11.6520 83.95 79.38 9.35
6654 11.6530 83.31 79.38 9.25
6655 11.6540 84.60 79.37 9.31
6656 11.6550 87.16 79.37 9.41
6657 11.6560 81.69 79.37 9.09
6658 11.6570 90.66 79.36 9.61
6659 11.6580 75.26 79.36 8.78
6660 11.6590 77.67 79.36 8.87
6661 11.6600 79.29 79.36 8.97
6662 11.6610 93.74 79.35 9.74
6663 11.6620 90.17 79.35 9.61
6664 11.6630 77.86 79.35 9.00
6665 11.6640 64.73 79.35 8.14
6666 11.6650 77.85 79.34 8.89
6667 11.6660 70.95 79.34 8.49
6668 11.6670 87.32 79.34 9.45
6669 11.6680 87.13 79.33 9.42
6670 11.6690 82.14 79.33 9.11
6671 11.6700 80.78 79.33 9.00
6672 11.6710 87.73 79.33 9.42
6673 11.6720 81.52 79.32 9.16
6674 11.6730 81.72 79.32 9.18
6675 11.6740 80.15 79.32 9.08
6676 11.6750 101.54 79.32 10.14
6677 11.6760 79.07 79.31 8.97
6678 11.6770 82.20 79.31 9.10
6679 11.6780 85.91 79.31 9.39
6680 11.6790 68.68 79.30 8.37
6681 11.6800 85.02 79.30 9.28
6682 11.6810 77.47 79.30 8.90
6683 11.6820 73.25 79.30 8.71
6684 11.6830 98.71 79.29 10.11
6685 11.6840 83.61 79.29 9.22
6686 11.6850 73.50 79.29 8.61
6687 11.6860 86.80 79.29 9.35
6688 11.6870 76.37 79.28 8.81
6689 11.6880 81.50 79.28 9.12
6690 11.6890 82.94 79.28 9.19
6691 11.6900 79.73 79.28 8.97
6692 11.6910 79.91 79.27 9.04
6693 11.6920 67.64 79.27 8.35
6694 11.6930 81.84 79.27 9.19
6695 11.6940 87.06 79.26 9.40
6696 11.6950 82.39 79.26 9.12
6697 11.6960 101.98 79.26 10.08
6698 11.6970 89.29 79.26 9.49
6699 11.6980 88.90 79.25 9.49
6700 11.6990 92.36 79.25 9.68
6701 11.7000 80.42 79.25 9.00
6702 11.7010 100.50 79.25 10.12
6703 11.7020 75.82 79.24 8.86
6704 11.7030 82.25 79.24 9.23
6705 11.7040 64.82 79.24 8.16
6706 11.7050 89.51 79.24 9.52
6707 11.7060 64.35 79.23 8.06
6708 11.7070 80.84 79.23 9.07
6709 11.7080 75.72 79.23 8.78
6710 11.7090 76.22 79.23 8.78
6711 11.7100 83.30 79.22 9.19
6712 11.7110 79.50 79.22 8.98
6713 11.7120 80.36 79.22 9.10
6714 11.7130 83.26 79.22 9.28
6715 11.7140 71.91 79.21 8.58
6716 11.7150 78.82 79.21 8.97
6717 11.7160 55.96 79.21 7.54
6718 11.7170 78.28 79.21 8.90
6719 11.7180 84.12 79.20 9.24
6720 11.7190 65.36 79.20 8.14
6721 11.7200 72.51 79.20 8.54
6722 11.7210 87.36 79.20 9.39
6723 11.7220 103.50 79.19 10.30
6724 11.7230 73.41 79.19 8.72
6725 11.7240 82.60 79.19 9.20
6726 11.7250 84.63 79.19 9.28
6727 11.7260 79.44 79.18 8.99
6728 11.7270 82.92 79.18 9.16
6729 11.7280 73.03 79.18 8.67
6730 11.7290 79.12 79.18 8.97
6731 11.7300 100.15 79.17 10.07
6732 11.7310 76.24 79.17 8.85
6733 11.7320 77.90 79.17 8.98
6734 11.7330 71.10 79.17 8.59
6735 11.7340 72.87 79.16 8.64
6736 11.7350 80.88 79.16 9.06
6737 11.7360 91.68 79.16 9.63
6738 11.7370 68.94 79.16 8.39
6739 11.7380 89.58 79.15 9.58
6740 11.7390 78.54 79.15 8.98
6741 11.7400 82.23 79.15 9.12
6742 11.7410 81.47 79.15 9.09
6743 11.7420 86.99 79.14 9.46
6744 11.7430 88.73 79.14 9.58
6745 11.7440 84.26 79.14 9.25
6746 11.7450 84.13 79.14 9.20
6747 11.7460 78.69 79.13 8.93
6748 11.7470 89.41 79.13 9.53
6749 11.7480 81.58 79.13 9.14
6750 11.7490 78.69 79.13 8.96
6751 11.7500 74.76 79.12 8.76
6752 11.7510 89.00 79.12 9.53
6753 11.7520 79.26 79.12 9.07
6754 11.7530 69.06 79.12 8.47
6755 11.7540 86.08 79.11 9.41
6756 11.7550 86.64 79.11 9.39
6757 11.7560 72.09 79.11 8.54
6758 11.7570 72.30 79.11 8.60
6759 11.7580 66.67 79.11 8.27
6760 11.7590 72.30 79.10 8.57
6761 11.7600 69.33 79.10 8.38
6762 11.7610 82.75 79.10 9.20
6763 11.7620 84.33 79.10 9.35
6764 11.7630 72.92 79.09 8.75
6765 11.7640 93.47 79.09 9.82
6766 11.7650 86.38 79.09 9.36
6767 11.7660 86.69 79.09 9.40
6768 11.7670 76.23 79.08 8.81
6769 11.7680 91.07 79.08 9.62
6770 11.7690 88.52 79.08 9.48
6771 11.7700 85.50 79.08 9.30
6772 11.7710 79.94 79.07 9.04
6773 11.7720 81.68 79.07 9.17
6774 11.7730 80.47 79.07 9.14
6775 11.7740 89.98 79.07 9.61
6776 11.7750 87.83 79.07 9.46
6777 11.7760 79.81 79.06 9.01
6778 11.7770 90.92 79.06 9.64
6779 11.7780 82.78 79.06 9.22
6780 11.7790 83.49 79.06 9.23
6781 11.7800 84.24 79.05 9.26
6782 11.7810 88.54 79.05 9.50
6783 11.7820 66.13 79.05 8.28
6784 11.7830 66.55 79.05 8.34
6785 11.7840 75.47 79.05 8.76
6786 11.7850 72.33 79.04 8.59
6787 11.7860 96.56 79.04 9.89
6788 11.7870 86.32 79.04 9.40
6789 11.7880 84.97 79.04 9.34
6790 11.7890 82.46 79.03 9.16
6791 11.7900 98.47 79.03 9.98
6792 11.7910 93.04 79.03 9.76
6793 11.7920 80.06 79.03 9.10
6794 11.7930 86.12 79.02 9.42
6795 11.7940 91.37 79.02 9.66
6796 11.7950 89.83 79.02 9.53
6797 11.7960 74.95 79.02 8.70
6798 11.7970 82.94 79.02 9.16
6799 11.7980 73.88 79.01 8.71
6800 11.7990 91.81 79.01 9.67
6801 11.8000 76.78 79.01 8.84
6802 11.8010 78.53 79.01 8.95
6803 11.8020 70.85 79.00 8.59
6804 11.8030 65.76 79.00 8.31
6805 11.8040 67.32 79.00 8.33
6806 11.8050 81.66 79.00 9.09
6807 11.8060 84.02 79.00 9.21
6808 11.8070 91.26 78.99 9.64
6809 11.8080 79.73 78.99 9.05
6810 11.8090 72.61 78.99 8.58
6811 11.8100 96.68 78.99 9.93
6812 11.8110 80.64 78.99 9.07
6813 11.8120 70.00 78.98 8.51
6814 11.8130 65.15 78.98 8.25
6815 11.8140 82.11 78.98 9.17
6816 11.8150 79.16 78.98 8.97
6817 11.8160 72.39 78.97 8.58
6818 11.8170 83.44 78.97 9.21
6819 11.8180 98.88 78.97 10.05
6820 11.8190 85.99 78.97 9.32
6821 11.8200 75.12 78.97 8.73
6822 11.8210 78.67 78.96 8.93
6823 11.8220 79.89 78.96 9.10
6824 11.8230 77.44 78.96 8.98
6825 11.8240 75.16 78.96 8.79
6826 11.8250 90.04 78.96 9.56
6827 11.8260 94.05 78.95 9.73
6828 11.8270 79.97 78.95 9.03
6829 11.8280 69.67 78.95 8.45
6830 11.8290 73.45 78.95 8.65
6831 11.8300 70.65 78.95 8.48
6832 11.8310 82.78 78.94 9.19
6833 11.8320 73.24 78.94 8.70
6834 11.8330 73.63 78.94 8.74
6835 11.8340 88.25 78.94 9.53
6836 11.8350 91.48 78.93 9.64
6837 11.8360 79.36 78.93 8.97
6838 11.8370 79.30 78.93 8.99
6839 11.8380 92.22 78.93 9.76
6840 11.8390 67.40 78.93 8.28
6841 11.8400 70.74 78.92 8.49
6842 11.8410 84.79 78.92 9.26
6843 11.8420 72.62 78.92 8.67
6844 11.8430 73.78 78.92 8.73
6845 11.8440 77.93 78.92 8.94
6846 11.8450 78.33 78.91 8.90
6847 11.8460 78.16 78.91 8.86
6848 11.8470 98.11 78.91 9.98
6849 11.8480 76.70 78.91 8.86
6850 11.8490 85.14 78.91 9.29
6851 11.8500 79.34 78.90 8.94
6852 11.8510 80.02 78.90 9.02
6853 11.8520 92.96 78.90 9.82
6854 11.8530 77.34 78.90 8.94
6855 11.8540 59.41 78.90 7.81
6856 11.8550 92.82 78.89 9.73
6857 11.8560 80.96 78.89 9.07
6858 11.8570 92.83 78.89 9.70
6859 11.8580 80.83 78.89 9.09
6860 11.8590 88.46 78.89 9.46
6861 11.8600 82.29 78.88 9.14
6862 11.8610 92.31 78.88 9.68
6863 11.8620 83.80 78.88 9.34
6864 11.8630 87.43 78.88 9.54
6865 11.8640 90.63 78.88 9.64
6866 11.8650 82.57 78.87 9.14
6867 11.8660 86.70 78.87 9.37
6868 11.8670 72.11 78.87 8.55
6869 11.8680 87.26 78.87 9.42
6870 11.8690 93.32 78.87 9.69
6871 11.8700 80.92 78.86 9.00
6872 11.8710 89.71 78.86 9.52
6873 11.8720 87.58 78.86 9.47
6874 11.8730 67.74 78.86 8.41
6875 11.8740 90.41 78.86 9.63
6876 11.8750 90.24 78.86 9.60
6877 11.8760 87.89 78.85 9.45
6878 11.8770 86.94 78.85 9.41
6879 11.8780 80.77 78.85 9.11
6880 11.8790 90.30 78.85 9.57
6881 11.8800 84.21 78.85 9.22
6882 11.8810 71.97 78.84 8.57
6883 11.8820 89.33 78.84 9.60
6884 11.8830 80.63 78.84 9.13
6885 11.8840 77.11 78.84 8.87
6886 11.8850 71.58 78.84 8.53
6887 11.8860 77.21 78.83 8.86
6888 11.8870 74.28 78.83 8.71
6889 11.8880 69.41 78.83 8.43
6890 11.8890 75.06 78.83 8.73
6891 11.8900 83.37 78.83 9.20
6892 11.8910 88.49 78.83 9.50
6893 11.8920 82.64 78.82 9.20
6894 11.8930 73.26 78.82 8.72
6895 11.8940 81.02 78.82 9.08
6896 11.8950 92.18 78.82 9.63
6897 11.8960 73.80 78.82 8.62
6898 11.8970 91.05 78.81 9.59
6899 11.8980 74.07 78.81 8.73
6900 11.8990 87.31 78.81 9.44
6901 11.9000 75.59 78.81 8.75
6902 11.9010 75.50 78.81 8.78
6903 11.9020 92.23 78.81 9.81
6904 11.9030 84.72 78.80 9.39
6905 11.9040 68.36 78.80 8.36
6906 11.9050 72.64 78.80 8.56
6907 11.9060 83.03 78.80 9.15
6908 11.9070 73.25 78.80 8.62
6909 11.9080 78.24 78.79 8.93
6910 11.9090 78.77 78.79 8.95
6911 11.9100 79.86 78.79 9.01
6912 11.9110 80.14 78.79 9.05
6913 11.9120 83.92 78.79 9.32
6914 11.9130 78.44 78.79 9.04
6915 11.9140 72.79 78.78 8.63
6916 11.9150 93.83 78.78 9.77
6917 11.9160 72.00 78.78 8.52
6918 11.9170 72.82 78.78 8.62
6919 11.9180 85.75 78.78 9.34
6920 11.9190 83.26 78.77 9.17
6921 11.9200 95.68 78.77 9.79
6922 11.9210 80.22 78.77 9.01
6923 11.9220 91.22 78.77 9.69
6924 11.9230 81.82 78.77 9.21
6925 11.9240 71.21 78.77 8.53
6926 11.9250 85.63 78.76 9.35
6927 11.9260 85.76 78.76 9.32
6928 11.9270 81.28 78.76 9.12
6929 11.9280 74.15 78.76 8.70
6930 11.9290 95.56 78.76 9.85
6931 11.9300 79.95 78.76 9.03
6932 11.9310 73.63 78.75 8.70
6933 11.9320 89.91 78.75 9.62
6934 11.9330 79.92 78.75 9.10
6935 11.9340 87.11 78.75 9.43
6936 11.9350 74.02 78.75 8.70
6937 11.9360 79.89 78.75 8.98
6938 11.9370 73.34 78.74 8.65
6939 11.9380 76.20 78.74 8.86
6940 11.9390 69.84 78.74 8.45
6941 11.9400 69.82 78.74 8.40
6942 11.9410 75.50 78.74 8.78
6943 11.9420 83.24 78.74 9.27
6944 11.9430 68.83 78.73 8.44
6945 11.9440 82.91 78.73 9.17
6946 11.9450 90.99 78.73 9.59
6947 11.9460 76.54 78.73 8.80
6948 11.9470 77.68 78.73 8.87
6949 11.9480 76.55 78.73 8.84
6950 11.9490 77.89 78.72 8.89
6951 11.9500 91.67 78.72 9.62
6952 11.9510 89.04 78.72 9.54
6953 11.9520 77.95 78.72 8.97
6954 11.9530 77.55 78.72 9.00
6955 11.9540 82.17 78.72 9.16
6956 11.9550 77.77 78.71 8.90
6957 11.9560 88.43 78.71 9.45
6958 11.9570 97.04 78.71 9.94
6959 11.9580 76.10 78.71 8.80
6960 11.9590 75.59 78.71 8.75
6961 11.9600 103.70 78.71 10.25
6962 11.9610 69.73 78.70 8.46
6963 11.9620 74.06 78.70 8.75
6964 11.9630 81.03 78.70 9.22
6965 11.9640 68.67 78.70 8.39
6966 11.9650 71.21 78.70 8.47
6967 11.9660 87.87 78.70 9.42
6968 11.9670 91.74 78.70 9.64
6969 11.9680 83.48 78.69 9.23
6970 11.9690 93.26 78.69 9.71
6971 11.9700 89.96 78.69 9.51
6972 11.9710 87.85 78.69 9.46
6973 11.9720 81.25 78.69 9.14
6974 11.9730 92.89 78.69 9.81
6975 11.9740 78.85 78.68 8.99
6976 11.9750 76.16 78.68 8.83
6977 11.9760 74.44 78.68 8.68
6978 11.9770 83.76 78.68 9.25
6979 11.9780 75.36 78.68 8.80
6980 11.9790 70.30 78.68 8.48
6981 11.9800 75.71 78.68 8.76
6982 11.9810 97.76 78.67 9.97
6983 11.9820 74.31 78.67 8.77
6984 11.9830 78.37 78.67 9.06
6985 11.9840 91.06 78.67 9.63
6986 11.9850 82.69 78.67 9.17
6987 11.9860 74.36 78.67 8.69
6988 11.9870 75.67 78.66 8.82
6989 11.9880 92.81 78.66 9.75
6990 11.9890 83.64 78.66 9.25
6991 11.9900 76.86 78.66 8.80
6992 11.9910 79.22 78.66 8.99
6993 11.9920 83.37 78.66 9.28
6994 11.9930 92.51 78.66 9.76
6995 11.9940 86.44 78.65 9.38
6996 11.9950 75.40 78.65 8.74
6997 11.9960 85.65 78.65 9.32
6998 11.9970 83.02 78.65 9.21
6999 11.9980 79.08 78.65 8.99
7000 11.9990 78.98 78.65 8.98
7001 12.0000 76.49 78.65 8.81
7002 12.0010 73.43 78.64 8.68
7003 12.0020 92.07 78.64 9.77
7004 12.0030 74.67 78.64 8.82
7005 12.0040 79.70 78.64 9.04
7006 12.0050 89.17 78.64 9.53
7007 12.0060 86.44 78.64 9.32
7008 12.0070 74.64 78.64 8.71
7009 12.0080 95.23 78.63 9.90
7010 12.0090 80.62 78.63 9.07
7011 12.0100 81.11 78.63 9.08
7012 12.0110 72.25 78.63 8.63
7013 12.0120 87.00 78.63 9.50
7014 12.0130 73.64 78.63 8.76
7015 12.0140 73.85 78.63 8.68
7016 12.0150 72.55 78.62 8.58
7017 12.0160 72.27 78.62 8.54
7018 12.0170 79.26 78.62 8.99
7019 12.0180 89.86 78.62 9.57
7020 12.0190 77.29 78.62 8.86
7021 12.0200 82.48 78.62 9.12
7022 12.0210 74.97 78.62 8.76
7023 12.0220 87.78 78.61 9.50
7024 12.0230 73.63 78.61 8.77
7025 12.0240 86.36 78.61 9.42
7026 12.0250 85.28 78.61 9.32
7027 12.0260 77.99 78.61 8.90
7028 12.0270 85.29 78.61 9.34
7029 12.0280 85.51 78.61 9.40
7030 12.0290 77.55 78.60 8.88
7031 12.0300 76.25 78.60 8.76
7032 12.0310 86.47 78.60 9.41
7033 12.0320 74.00 78.60 8.77
7034 12.0330 74.28 78.60 8.79
7035 12.0340 84.45 78.60 9.32
7036 12.0350 78.43 78.60 8.96
7037 12.0360 72.36 78.60 8.54
7038 12.0370 76.27 78.59 8.86
7039 12.0380 96.40 78.59 9.95
7040 12.0390 85.29 78.59 9.36
7041 12.0400 92.15 78.59 9.65
7042 12.0410 70.34 78.59 8.47
7043 12.0420 65.00 78.59 8.21
7044 12.0430 87.28 78.59 9.53
7045 12.0440 80.14 78.58 9.05
7046 12.0450 82.99 78.58 9.17
7047 12.0460 72.96 78.58 8.61
7048 12.0470 74.49 78.58 8.68
7049 12.0480 74.05 78.58 8.73
7050 12.0490 88.47 78.58 9.46
7051 12.0500 86.31 78.58 9.36
7052 12.0510 80.68 78.58 9.05
7053 12.0520 81.84 78.57 9.24
7054 12.0530 82.17 78.57 9.26
7055 12.0540 76.07 78.57 8.86
7056 12.0550 83.80 78.57 9.25
7057 12.0560 79.64 78.57 8.97
7058 12.0570 76.26 78.57 8.79
7059 12.0580 81.62 78.57 9.14
7060 12.0590 89.99 78.57 9.55
7061 12.0600 91.88 78.56 9.66
7062 12.0610 83.44 78.56 9.23
7063 12.0620 95.81 78.56 9.98
7064 12.0630 84.47 78.56 9.37
7065 12.0640 84.68 78.56 9.29
7066 12.0650 93.57 78.56 9.73
7067 12.0660 89.02 78.56 9.50
7068 12.0670 72.64 78.56 8.57
7069 12.0680 84.47 78.55 9.32
7070 12.0690 68.18 78.55 8.29
7071 12.0700 77.53 78.55 8.84
7072 12.0710 77.97 78.55 8.89
7073 12.0720 84.61 78.55 9.33
7074 12.0730 73.70 78.55 8.72
7075 12.0740 114.58 78.55 10.78
7076 12.0750 93.53 78.55 9.75
7077 12.0760 78.07 78.55 8.88
7078 12.0770 66.82 78.54 8.27
7079 12.0780 78.74 78.54 9.00
7080 12.0790 65.80 78.54 8.21
7081 12.0800 89.60 78.54 9.51
7082 12.0810 98.14 78.54 9.97
7083 12.0820 81.09 78.54 9.15
7084 12.0830 87.58 78.54 9.50
7085 12.0840 76.78 78.54 8.89
7086 12.0850 84.57 78.53 9.28
7087 12.0860 74.80 78.53 8.72
7088 12.0870 73.49 78.53 8.68
7089 12.0880 79.28 78.53 9.01
7090 12.0890 80.81 78.53 9.04
7091 12.0900 61.33 78.53 7.84
7092 12.0910 77.11 78.53 8.85
7093 12.0920 99.35 78.53 10.08
7094 12.0930 85.44 78.53 9.34
7095 12.0940 90.53 78.52 9.60
7096 12.0950 72.78 78.52 8.58
7097 12.0960 71.96 78.52 8.53
7098 12.0970 72.66 78.52 8.58
7099 12.0980 78.91 78.52 8.99
7100 12.0990 85.56 78.52 9.31
7101 12.1000 69.79 78.52 8.36
7102 12.1010 94.55 78.52 9.80
7103 12.1020 93.79 78.52 9.83
7104 12.1030 80.90 78.51 9.15
7105 12.1040 87.82 78.51 9.47
7106 12.1050 96.80 78.51 9.88
7107 12.1060 87.79 78.51 9.40
7108 12.1070 76.01 78.51 8.78
7109 12.1080 84.63 78.51 9.28
7110 12.1090 75.85 78.51 8.77
7111 12.1100 76.13 78.51 8.78
7112 12.1110 75.36 78.51 8.79
7113 12.1120 88.14 78.50 9.58
7114 12.1130 84.56 78.50 9.35
7115 12.1140 81.67 78.50 9.11
7116 12.1150 86.40 78.50 9.34
7117 12.1160 100.36 78.50 9.99
7118 12.1170 81.11 78.50 9.05
7119 12.1180 85.40 78.50 9.31
7120 12.1190 84.64 78.50 9.25
7121 12.1200 72.31 78.50 8.56
7122 12.1210 95.00 78.50 9.85
7123 12.1220 68.41 78.49 8.39
7124 12.1230 83.43 78.49 9.30
7125 12.1240 75.63 78.49 8.79
7126 12.1250 78.65 78.49 8.93
7127 12.1260 77.12 78.49 8.81
7128 12.1270 88.08 78.49 9.49
7129 12.1280 89.43 78.49 9.57
7130 12.1290 78.74 78.49 8.94
7131 12.1300 87.30 78.49 9.37
7132 12.1310 86.59 78.49 9.35
7133 12.1320 80.87 78.48 9.11
7134 12.1330 70.03 78.48 8.52
7135 12.1340 73.57 78.48 8.67
7136 12.1350 88.04 78.48 9.46
7137 12.1360 89.32 78.48 9.50
7138 12.1370 86.93 78.48 9.40
7139 12.1380 81.99 78.48 9.15
7140 12.1390 105.40 78.48 10.31
7141 12.1400 91.10 78.48 9.57
7142 12.1410 83.40 78.48 9.17
7143 12.1420 72.28 78.47 8.60
7144 12.1430 80.24 78.47 9.08
7145 12.1440 72.99 78.47 8.60
7146 12.1450 102.83 78.47 10.19
7147 12.1460 75.52 78.47 8.74
7148 12.1470 74.35 78.47 8.68
7149 12.1480 74.81 78.47 8.76
7150 12.1490 90.17 78.47 9.52
7151 12.1500 85.59 78.47 9.30
7152 12.1510 91.61 78.47 9.66
7153 12.1520 84.79 78.47 9.34
7154 12.1530 97.91 78.46 10.05
7155 12.1540 75.16 78.46 8.76
7156 12.1550 99.75 78.46 10.08
7157 12.1560 81.93 78.46 9.07
7158 12.1570 83.31 78.46 9.19
7159 12.1580 70.02 78.46 8.47
7160 12.1590 91.46 78.46 9.64
7161 12.1600 91.68 78.46 9.64
7162 12.1610 79.25 78.46 9.00
7163 12.1620 98.38 78.46 10.07
7164 12.1630 78.86 78.46 9.06
7165 12.1640 74.43 78.45 8.71
7166 12.1650 75.89 78.45 8.75
7167 12.1660 91.31 78.45 9.54
7168 12.1670 86.77 78.45 9.37
7169 12.1680 77.88 78.45 8.90
7170 12.1690 78.65 78.45 8.90
7171 12.1700 84.84 78.45 9.26
7172 12.1710 78.07 78.45 8.92
7173 12.1720 86.64 78.45 9.41
7174 12.1730 81.31 78.45 9.16
7175 12.1740 94.34 78.45 9.79
7176 12.1750 88.93 78.44 9.49
7177 12.1760 83.02 78.44 9.15
7178 12.1770 86.20 78.44 9.37
7179 12.1780 105.68 78.44 10.42
7180 12.1790 91.76 78.44 9.70
7181 12.1800 91.55 78.44 9.64
7182 12.1810 93.22 78.44 9.74
7183 12.1820 77.78 79.06 8.97
7184 12.1830 78.92 79.07 9.05
7185 12.1840 84.10 79.07 9.31
7186 12.1850 77.87 80.28 8.88
7187 12.1860 82.56 80.29 9.15
7188 12.1870 82.82 80.31 9.19
7189 12.1880 97.97 80.33 10.00
7190 12.1890 106.29 80.35 10.35
7191 12.1900 91.93 80.37 9.61
7192 12.1910 77.83 80.39 8.87
7193 12.1920 99.73 80.41 10.13
7194 12.1930 94.94 80.43 9.92
7195 12.1940 89.52 80.45 9.54
7196 12.1950 76.92 80.47 8.85
7197 12.1960 81.63 80.49 9.04
7198 12.1970 80.75 80.51 9.06
7199 12.1980 86.56 80.54 9.38
7200 12.1990 95.38 80.56 9.87
7201 12.2000 88.88 80.58 9.50
7202 12.2010 93.82 80.61 9.80
7203 12.2020 76.02 80.63 8.85
7204 12.2030 98.19 80.65 10.12
7205 12.2040 87.48 80.68 9.48
7206 12.2050 80.46 80.70 9.02
7207 12.2060 86.30 80.73 9.32
7208 12.2070 85.58 80.75 9.34
7209 12.2080 78.45 80.78 8.98
7210 12.2090 87.73 80.81 9.46
7211 12.2100 86.19 80.83 9.35
7212 12.2110 79.35 80.86 9.03
7213 12.2120 80.16 80.89 9.11
7214 12.2130 86.02 80.92 9.46
7215 12.2140 86.07 80.95 9.35
7216 12.2150 76.48 80.98 8.76
7217 12.2160 82.53 81.01 9.12
7218 12.2170 69.32 81.04 8.40
7219 12.2180 92.85 81.07 9.72
7220 12.2190 94.08 81.10 9.79
7221 12.2200 85.38 81.14 9.29
7222 12.2210 81.29 81.17 9.10
7223 12.2220 92.76 81.20 9.79
7224 12.2230 91.28 81.24 9.73
7225 12.2240 92.09 81.27 9.72
7226 12.2250 84.27 81.31 9.27
7227 12.2260 95.76 81.35 9.84
7228 12.2270 87.90 81.38 9.46
7229 12.2280 86.21 81.42 9.38
7230 12.2290 83.88 81.46 9.21
7231 12.2300 89.43 81.50 9.48
7232 12.2310 84.10 81.54 9.26
7233 12.2320 85.49 81.58 9.40
7234 12.2330 99.52 81.63 10.17
7235 12.2340 84.05 81.67 9.29
7236 12.2350 91.34 81.71 9.64
7237 12.2360 93.30 81.76 9.70
7238 12.2370 79.16 81.81 8.96
7239 12.2380 71.24 81.85 8.53
7240 12.2390 84.53 81.90 9.24
7241 12.2400 100.16 81.95 10.01
7242 12.2410 82.55 82.00 9.17
7243 12.2420 90.72 82.05 9.61
7244 12.2430 90.93 82.10 9.71
7245 12.2440 104.45 82.16 10.32
7246 12.2450 81.89 82.21 9.11
7247 12.2460 97.22 82.27 9.90
7248 12.2470 87.01 82.33 9.40
7249 12.2480 74.30 82.38 8.71
7250 12.2490 70.43 82.44 8.47
7251 12.2500 86.11 82.51 9.32
7252 12.2510 86.19 82.57 9.37
7253 12.2520 87.11 82.63 9.48
7254 12.2530 93.05 82.70 9.80
7255 12.2540 94.26 82.77 9.79
7256 12.2550 85.65 82.84 9.31
7257 12.2560 85.44 82.91 9.29
7258 12.2570 93.86 82.98 9.75
7259 12.2580 103.99 83.05 10.34
7260 12.2590 77.88 83.13 8.94
7261 12.2600 93.04 83.21 9.68
7262 12.2610 87.23 83.29 9.40
7263 12.2620 80.66 83.37 9.10
7264 12.2630 93.93 83.45 9.87
7265 12.2640 90.82 83.54 9.59
7266 12.2650 106.13 83.63 10.35
7267 12.2660 84.91 83.72 9.23
7268 12.2670 98.81 83.81 9.99
7269 12.2680 93.93 83.91 9.79
7270 12.2690 102.21 84.01 10.14
7271 12.2700 86.38 84.11 9.30
7272 12.2710 80.07 84.21 9.00
7273 12.2720 101.04 84.32 10.16
7274 12.2730 88.34 84.43 9.53
7275 12.2740 98.67 84.54 10.02
7276 12.2750 81.97 84.66 9.12
7277 12.2760 81.66 84.78 9.09
7278 12.2770 88.21 84.90 9.47
7279 12.2780 90.74 85.03 9.62
7280 12.2790 92.54 85.16 9.69
7281 12.2800 91.63 85.29 9.64
7282 12.2810 89.99 85.43 9.54
7283 12.2820 99.29 85.57 10.09
7284 12.2830 101.20 85.72 10.26
7285 12.2840 111.50 85.87 10.67
7286 12.2850 96.92 86.03 9.90
7287 12.2860 85.46 86.19 9.28
7288 12.2870 91.50 86.36 9.63
7289 12.2880 96.91 86.53 9.90
7290 12.2890 100.65 86.70 10.09
7291 12.2900 90.07 86.89 9.47
7292 12.2910 78.14 87.08 8.90
7293 12.2920 86.29 87.27 9.37
7294 12.2930 92.80 87.48 9.78
7295 12.2940 79.45 87.69 8.97
7296 12.2950 85.80 87.90 9.32
7297 12.2960 79.93 88.13 8.98
7298 12.2970 90.05 88.36 9.55
7299 12.2980 102.34 88.60 10.20
7300 12.2990 100.32 88.85 10.09
7301 12.3000 80.26 89.11 8.99
7302 12.3010 67.88 89.38 8.32
7303 12.3020 80.86 89.66 9.10
7304 12.3030 76.55 89.95 8.90
7305 12.3040 71.20 90.25 8.52
7306 12.3050 84.34 90.57 9.21
7307 12.3060 85.51 90.89 9.30
7308 12.3070 108.01 91.23 10.48
7309 12.3080 89.86 91.59 9.60
7310 12.3090 102.54 91.96 10.23
7311 12.3100 91.70 92.34 9.61
7312 12.3110 107.77 92.74 10.47
7313 12.3120 96.59 93.16 9.96
7314 12.3130 95.32 93.60 9.92
7315 12.3140 91.63 94.05 9.62
7316 12.3150 93.21 94.53 9.68
7317 12.3160 100.01 95.03 10.01
7318 12.3170 110.71 95.55 10.57
7319 12.3180 103.11 96.10 10.24
7320 12.3190 110.70 96.67 10.59
7321 12.3200 100.73 97.28 10.08
7322 12.3210 99.19 97.91 10.00
7323 12.3220 91.80 98.58 9.71
7324 12.3230 104.44 99.28 10.40
7325 12.3240 95.44 100.01 9.87
7326 12.3250 103.81 100.79 10.21
7327 12.3260 99.52 101.61 10.03
7328 12.3270 100.48 102.48 10.10
7329 12.3280 93.57 103.39 9.76
7330 12.3290 94.84 104.36 9.81
7331 12.3300 99.96 105.39 10.03
7332 12.3310 95.99 106.47 9.89
7333 12.3320 96.11 107.62 9.92
7334 12.3330 107.58 108.85 10.56
7335 12.3340 92.86 110.16 9.76
7336 12.3350 110.84 111.55 10.60
7337 12.3360 97.28 113.03 9.90
7338 12.3370 90.06 114.62 9.56
7339 12.3380 109.23 116.31 10.48
7340 12.3390 129.04 118.13 11.37
7341 12.3400 112.04 120.09 10.59
7342 12.3410 101.49 122.18 10.12
7343 12.3420 112.43 124.45 10.71
7344 12.3430 122.36 126.89 11.21
7345 12.3440 116.40 129.53 10.88
7346 12.3450 103.62 132.39 10.22
7347 12.3460 118.75 135.50 10.91
7348 12.3470 113.30 138.89 10.71
7349 12.3480 115.70 142.58 10.89
7350 12.3490 138.06 146.62 11.82
7351 12.3500 110.80 151.06 10.58
7352 12.3510 146.09 155.94 12.16
7353 12.3520 130.25 161.34 11.57
7354 12.3530 144.23 167.30 12.19
7355 12.3540 150.53 173.94 12.34
7356 12.3550 161.56 181.35 12.72
7357 12.3560 174.20 189.65 13.23
7358 12.3570 176.21 199.00 13.39
7359 12.3580 195.62 209.56 14.14
7360 12.3590 220.70 221.58 14.94
7361 12.3600 228.79 235.31 15.18
7362 12.3610 241.31 251.11 15.59
7363 12.3620 281.63 269.42 16.94
7364 12.3630 285.89 290.77 17.10
7365 12.3640 250.60 315.88 15.85
7366 12.3650 355.36 345.68 18.80
7367 12.3660 395.49 381.46 19.91
7368 12.3670 454.03 424.80 21.42
7369 12.3680 507.27 478.31 22.67
7370 12.3690 662.82 545.63 25.83
7371 12.3700 775.91 632.77 27.92
7372 12.3710 900.06 750.79 30.21
7373 12.3720 1126.45 918.16 34.01
7374 12.3730 1378.59 1166.11 37.74
7375 12.3740 1600.27 1539.82 40.41
7376 12.3750 2187.50 2100.20 47.22
7377 12.3760 2992.08 2909.36 55.27
7378 12.3770 3720.76 3999.90 61.86
7379 12.3780 4798.68 5311.64 70.53
7380 12.3790 6261.54 6608.16 80.85
7381 12.3800 7917.77 7621.53 90.86
7382 12.3810 8472.17 8230.04 94.75
7383 12.3820 8385.72 8206.47 94.51
7384 12.3830 7371.66 7310.24 88.89
7385 12.3840 5220.04 5841.97 73.77
7386 12.3850 4205.34 4343.30 65.85
7387 12.3860 3258.23 3116.07 57.60
7388 12.3870 2487.87 2218.78 50.12
7389 12.3880 1883.26 1607.44 43.84
7390 12.3890 1557.12 1207.18 39.58
7391 12.3900 1290.31 947.33 35.87
7392 12.3910 978.65 773.66 31.49
7393 12.3920 851.09 651.49 29.47
7394 12.3930 675.76 561.08 26.31
7395 12.3940 605.56 491.07 24.80
7396 12.3950 474.48 435.37 21.83
7397 12.3960 421.92 390.24 20.52
7398 12.3970 384.22 353.09 19.68
7399 12.3980 339.13 322.15 18.52
7400 12.3990 300.42 296.10 17.49
7401 12.4000 273.15 274.03 16.57
7402 12.4010 219.84 255.10 14.90
7403 12.4020 225.73 238.77 15.25
7404 12.4030 237.11 224.62 15.59
7405 12.4040 177.87 212.24 13.44
7406 12.4050 170.82 201.36 13.08
7407 12.4060 181.15 191.75 13.47
7408 12.4070 175.88 183.23 13.39
7409 12.4080 164.27 175.62 12.98
7410 12.4090 131.82 168.81 11.54
7411 12.4100 163.03 162.70 12.80
7412 12.4110 149.46 157.18 12.23
7413 12.4120 136.15 152.18 11.80
7414 12.4130 144.55 147.64 12.14
7415 12.4140 125.50 143.51 11.26
7416 12.4150 85.09 139.74 9.23
7417 12.4160 114.61 136.28 10.73
7418 12.4170 132.09 133.11 11.57
7419 12.4180 130.48 130.19 11.53
7420 12.4190 111.21 127.50 10.57
7421 12.4200 131.67 125.01 11.49
7422 12.4210 107.04 122.71 10.40
7423 12.4220 121.25 120.57 11.15
7424 12.4230 101.36 118.58 10.21
7425 12.4240 120.02 116.73 11.06
7426 12.4250 112.40 115.00 10.67
7427 12.4260 114.80 113.39 10.72
7428 12.4270 104.42 111.88 10.29
7429 12.4280 101.78 110.47 10.20
7430 12.4290 97.99 109.14 9.95
7431 12.4300 107.09 107.90 10.42
7432 12.4310 116.53 106.73 10.87
7433 12.4320 94.02 105.62 9.85
7434 12.4330 99.60 104.58 10.14
7435 12.4340 91.03 103.60 9.64
7436 12.4350 93.07 102.67 9.68
7437 12.4360 118.71 101.80 10.94
7438 12.4370 103.14 100.96 10.17
7439 12.4380 101.56 100.18 10.15
7440 12.4390 96.41 99.43 9.89
7441 12.4400 102.77 98.72 10.18
7442 12.4410 83.07 98.05 9.18
7443 12.4420 104.29 97.40 10.35
7444 12.4430 91.27 96.79 9.72
7445 12.4440 99.62 96.21 10.06
7446 12.4450 96.67 95.66 9.88
7447 12.4460 80.83 95.13 9.05
7448 12.4470 92.39 94.62 9.68
7449 12.4480 80.74 94.14 9.10
7450 12.4490 95.64 93.68 9.83
7451 12.4500 91.69 93.24 9.61
7452 12.4510 86.79 92.81 9.36
7453 12.4520 99.26 92.41 10.12
7454 12.4530 99.14 92.02 10.11
7455 12.4540 84.74 91.65 9.29
7456 12.4550 93.56 91.29 9.72
7457 12.4560 91.31 90.94 9.63
7458 12.4570 107.51 90.61 10.48
7459 12.4580 86.26 90.30 9.42
7460 12.4590 78.19 89.99 8.92
7461 12.4600 98.78 89.70 10.01
7462 12.4610 92.00 89.42 9.66
7463 12.4620 89.10 89.14 9.57
7464 12.4630 86.75 88.88 9.44
7465 12.4640 93.07 88.63 9.74
7466 12.4650 78.77 88.38 8.89
7467 12.4660 90.66 88.15 9.58
7468 12.4670 105.96 87.92 10.41
7469 12.4680 97.21 87.70 9.95
7470 12.4690 111.73 87.49 10.62
7471 12.4700 87.47 87.29 9.38
7472 12.4710 98.27 87.09 9.97
7473 12.4720 95.29 86.90 9.92
7474 12.4730 96.45 86.71 10.02
7475 12.4740 98.52 86.53 10.05
7476 12.4750 99.64 86.36 10.09
7477 12.4760 107.02 86.19 10.42
7478 12.4770 86.47 86.03 9.36
7479 12.4780 88.37 85.87 9.52
7480 12.4790 91.50 85.72 9.61
7481 12.4800 88.28 85.57 9.46
7482 12.4810 97.78 85.42 9.99
7483 12.4820 87.28 85.28 9.49
7484 12.4830 84.27 85.15 9.35
7485 12.4840 88.75 85.02 9.53
7486 12.4850 105.45 84.89 10.31
7487 12.4860 96.02 84.77 9.80
7488 12.4870 70.26 84.64 8.44
7489 12.4880 79.80 84.53 9.00
7490 12.4890 88.98 84.41 9.49
7491 12.4900 86.50 84.30 9.34
7492 12.4910 92.23 84.19 9.69
7493 12.4920 84.39 84.09 9.33
7494 12.4930 92.43 83.99 9.76
7495 12.4940 81.96 83.89 9.12
7496 12.4950 95.94 83.79 9.83
7497 12.4960 94.65 83.70 9.76
7498 12.4970 88.07 83.60 9.49
7499 12.4980 105.96 83.51 10.42
7500 12.4990 88.62 83.43 9.53
7501 12.5000 90.06 83.34 9.58
7502 12.5010 90.21 83.26 9.59
7503 12.5020 81.73 83.18 9.19
7504 12.5030 79.29 83.10 9.04
7505 12.5040 95.07 83.02 9.90
7506 12.5050 85.33 82.95 9.28
7507 12.5060 99.80 82.87 10.05
7508 12.5070 86.30 82.80 9.40
7509 12.5080 84.20 82.73 9.29
7510 12.5090 104.55 82.66 10.28
7511 12.5100 108.53 82.60 10.45
7512 12.5110 93.15 82.53 9.71
7513 12.5120 99.74 82.47 10.12
7514 12.5130 83.86 82.41 9.29
7515 12.5140 102.77 82.34 10.21
7516 12.5150 100.52 82.29 10.09
7517 12.5160 99.10 82.23 9.98
7518 12.5170 82.93 82.17 9.18
7519 12.5180 72.88 82.11 8.62
7520 12.5190 82.57 82.06 9.13
7521 12.5200 88.64 82.01 9.45
7522 12.5210 92.75 81.96 9.69
7523 12.5220 90.39 81.90 9.68
7524 12.5230 83.80 81.85 9.34
7525 12.5240 107.51 81.81 10.52
7526 12.5250 103.64 81.76 10.28
7527 12.5260 106.15 81.71 10.36
7528 12.5270 88.48 81.67 9.51
7529 12.5280 107.69 81.62 10.50
7530 12.5290 103.29 81.58 10.25
7531 12.5300 92.31 81.53 9.69
7532 12.5310 74.31 81.49 8.73
7533 12.5320 86.25 81.45 9.47
7534 12.5330 87.40 81.41 9.51
7535 12.5340 94.84 81.37 9.83
7536 12.5350 102.76 81.33 10.16
7537 12.5360 97.83 81.29 9.90
7538 12.5370 76.15 81.25 8.76
7539 12.5380 91.64 81.22 9.64
7540 12.5390 96.55 81.18 9.87
7541 12.5400 99.21 81.15 10.01
7542 12.5410 104.37 81.11 10.30
7543 12.5420 108.07 81.08 10.55
7544 12.5430 77.93 81.04 8.97
7545 12.5440 80.39 81.01 9.03
7546 12.5450 90.34 80.98 9.58
7547 12.5460 89.04 80.95 9.47
7548 12.5470 85.04 80.92 9.27
7549 12.5480 85.69 80.89 9.38
7550 12.5490 93.45 80.86 9.74
7551 12.5500 87.72 80.83 9.46
7552 12.5510 87.42 80.80 9.42
7553 12.5520 89.38 80.77 9.59
7554 12.5530 79.06 80.74 9.04
7555 12.5540 77.58 80.72 8.93
7556 12.5550 79.41 80.69 8.97
7557 12.5560 90.21 80.66 9.59
7558 12.5570 100.51 80.64 10.13
7559 12.5580 101.29 80.61 10.18
7560 12.5590 79.51 80.59 8.97
7561 12.5600 79.48 80.56 8.95
7562 12.5610 84.53 80.54 9.22
7563 12.5620 84.51 80.51 9.31
7564 12.5630 90.48 80.49 9.63
7565 12.5640 76.44 80.47 8.84
7566 12.5650 86.26 80.44 9.34
7567 12.5660 78.91 80.42 8.92
7568 12.5670 69.62 80.40 8.43
7569 12.5680 86.51 80.38 9.40
7570 12.5690 82.55 80.36 9.15
7571 12.5700 65.90 80.34 8.16
7572 12.5710 82.45 80.32 9.15
7573 12.5720 77.98 80.30 8.97
7574 12.5730 62.93 80.28 8.09
7575 12.5740 74.42 80.26 8.76
7576 12.5750 105.71 80.24 10.34
7577 12.5760 91.25 80.22 9.62
7578 12.5770 79.17 79.58 9.00
7579 12.5780 94.95 79.57 9.85
7580 12.5790 98.48 79.56 10.02
7581 12.5800 83.42 78.36 9.23
7582 12.5810 87.86 78.36 9.47
7583 12.5820 83.12 78.36 9.28
7584 12.5830 86.39 78.36 9.45
7585 12.5840 77.09 78.36 8.87
7586 12.5850 89.82 78.36 9.49
7587 12.5860 73.93 78.36 8.63
7588 12.5870 91.68 78.36 9.64
7589 12.5880 90.51 78.36 9.62
7590 12.5890 109.47 78.36 10.56
7591 12.5900 88.76 78.36 9.48
7592 12.5910 88.67 78.36 9.49
7593 12.5920 88.07 78.36 9.52
7594 12.5930 89.30 78.36 9.61
7595 12.5940 81.66 78.36 9.10
7596 12.5950 98.47 78.36 9.98
7597 12.5960 94.37 78.36 9.77
7598 12.5970 88.99 78.36 9.52
7599 12.5980 94.62 78.36 9.87
7600 12.5990 112.64 78.36 10.76
7601 12.6000 90.36 78.36 9.58
7602 12.6010 84.48 78.36 9.31
7603 12.6020 89.69 78.37 9.61
7604 12.6030 94.95 78.37 9.91
7605 12.6040 78.38 78.37 8.96
7606 12.6050 82.30 78.37 9.17
7607 12.6060 84.18 78.37 9.23
7608 12.6070 85.07 78.37 9.30
7609 12.6080 93.45 78.37 9.78
7610 12.6090 77.52 78.37 8.87
7611 12.6100 81.65 78.37 9.06
7612 12.6110 76.31 78.37 8.81
7613 12.6120 81.64 78.37 9.16
7614 12.6130 78.74 78.37 9.04
7615 12.6140 106.13 78.37 10.46
7616 12.6150 78.25 78.37 8.90
7617 12.6160 87.19 78.37 9.38
7618 12.6170 79.17 78.37 8.98
7619 12.6180 94.81 78.37 9.83
7620 12.6190 97.19 78.37 9.94
7621 12.6200 89.54 78.37 9.52
7622 12.6210 81.68 78.37 9.15
7623 12.6220 88.10 78.37 9.52
7624 12.6230 85.93 78.38 9.43
7625 12.6240 81.07 78.38 9.16
7626 12.6250 81.52 78.38 9.11
7627 12.6260 92.51 78.38 9.67
7628 12.6270 74.40 78.38 8.68
7629 12.6280 86.24 78.38 9.41
7630 12.6290 83.52 78.38 9.23
7631 12.6300 81.49 78.38 9.10
7632 12.6310 78.79 78.38 8.99
7633 12.6320 84.90 78.38 9.35
7634 12.6330 76.55 78.38 8.90
7635 12.6340 74.28 78.38 8.69
7636 12.6350 96.95 78.38 9.85
7637 12.6360 91.85 78.38 9.59
7638 12.6370 78.18 78.38 8.89
7639 12.6380 78.61 78.38 8.97
7640 12.6390 74.45 78.38 8.71
7641 12.6400 101.83 78.38 10.15
7642 12.6410 87.82 78.38 9.46
7643 12.6420 79.01 78.38 9.01
7644 12.6430 92.59 78.39 9.75
7645 12.6440 88.94 78.39 9.51
7646 12.6450 89.01 78.39 9.51
7647 12.6460 88.81 78.39 9.47
7648 12.6470 82.95 78.39 9.20
7649 12.6480 82.91 78.39 9.26
7650 12.6490 84.72 78.39 9.30
7651 12.6500 68.33 78.39 8.33
7652 12.6510 92.51 78.39 9.69
7653 12.6520 80.64 78.39 9.09
7654 12.6530 83.25 78.39 9.28
7655 12.6540 88.60 78.39 9.53
7656 12.6550 83.45 78.39 9.20
7657 12.6560 87.37 78.39 9.45
7658 12.6570 73.81 78.39 8.68
7659 12.6580 83.38 78.39 9.19
7660 12.6590 92.64 78.39 9.68
7661 12.6600 90.96 78.40 9.56
7662 12.6610 89.59 78.40 9.53
7663 12.6620 90.05 78.40 9.61
7664 12.6630 91.97 78.40 9.74
7665 12.6640 95.53 78.40 9.89
7666 12.6650 85.93 78.40 9.32
7667 12.6660 99.36 78.40 10.00
7668 12.6670 84.18 78.40 9.23
7669 12.6680 68.89 78.40 8.40
7670 12.6690 82.09 78.40 9.11
7671 12.6700 78.21 78.40 8.86
7672 12.6710 74.64 78.40 8.70
7673 12.6720 88.79 78.40 9.57
7674 12.6730 68.46 78.40 8.43
7675 12.6740 88.94 78.40 9.53
7676 12.6750 82.12 78.40 9.12
7677 12.6760 81.26 78.40 9.05
7678 12.6770 61.08 78.41 7.88
7679 12.6780 73.61 78.41 8.69
7680 12.6790 71.89 78.41 8.57
7681 12.6800 62.63 78.41 7.98
7682 12.6810 92.95 78.41 9.76
7683 12.6820 74.95 78.41 8.79
7684 12.6830 92.55 78.41 9.73
7685 12.6840 83.91 78.41 9.25
7686 12.6850 88.92 78.41 9.44
7687 12.6860 91.29 78.41 9.56
7688 12.6870 81.84 78.41 9.11
7689 12.6880 76.12 78.41 8.84
7690 12.6890 74.68 78.41 8.70
7691 12.6900 89.75 78.41 9.52
7692 12.6910 95.05 78.42 9.82
7693 12.6920 73.25 78.42 8.68
7694 12.6930 81.31 78.42 9.16
7695 12.6940 82.84 78.42 9.18
7696 12.6950 94.01 78.42 9.75
7697 12.6960 82.78 78.42 9.15
7698 12.6970 93.32 78.42 9.77
7699 12.6980 86.19 78.42 9.44
7700 12.6990 81.77 78.42 9.13
7701 12.7000 82.34 78.42 9.15
7702 12.7010 74.84 78.42 8.72
7703 12.7020 96.50 78.42 9.96
7704 12.7030 81.86 78.42 9.19
7705 12.7040 85.37 78.42 9.36
7706 12.7050 77.14 78.43 8.86
7707 12.7060 78.84 78.43 8.95
7708 12.7070 85.57 78.43 9.31
7709 12.7080 76.71 78.43 8.85
7710 12.7090 68.75 78.43 8.35
7711 12.7100 90.06 78.43 9.47
7712 12.7110 87.11 78.43 9.38
7713 12.7120 83.08 78.43 9.24
7714 12.7130 92.93 78.43 9.80
7715 12.7140 84.50 78.43 9.27
7716 12.7150 85.40 78.43 9.27
7717 12.7160 69.93 78.43 8.40
7718 12.7170 90.39 78.43 9.59
7719 12.7180 78.94 78.44 8.97
7720 12.7190 70.24 78.44 8.45
7721 12.7200 68.70 78.44 8.32
7722 12.7210 94.33 78.44 9.80
7723 12.7220 83.88 78.44 9.31
7724 12.7230 82.74 78.44 9.26
7725 12.7240 76.36 78.44 8.84
7726 12.7250 77.02 78.44 8.83
7727 12.7260 82.24 78.44 9.13
7728 12.7270 70.17 78.44 8.44
7729 12.7280 88.17 78.45 9.56
7730 12.7290 88.80 78.45 9.53
7731 12.7300 82.66 78.45 9.17
7732 12.7310 90.46 78.45 9.61
7733 12.7320 77.44 78.45 8.90
7734 12.7330 74.00 78.45 8.74
7735 12.7340 81.87 78.45 9.11
7736 12.7350 82.57 78.46 9.09
7737 12.7360 90.47 78.46 9.55
7738 12.7370 79.61 78.46 9.00
7739 12.7380 92.89 78.46 9.76
7740 12.7390 70.57 78.47 8.48
7741 12.7400 76.76 78.47 8.83
7742 12.7410 67.32 78.48 8.28
7743 12.7420 82.35 78.48 9.23
7744 12.7430 78.81 78.49 9.02
7745 12.7440 87.61 78.50 9.41
7746 12.7450 95.47 78.52 9.83
7747 12.7460 74.34 78.54 8.69
7748 12.7470 93.10 78.58 9.73
7749 12.7480 77.63 78.63 8.94
7750 12.7490 80.67 78.70 9.06
7751 12.7500 78.53 78.78 8.91
7752 12.7510 89.39 78.84 9.54
7753 12.7520 78.24 78.86 8.99
7754 12.7530 71.91 78.82 8.64
7755 12.7540 73.71 78.74 8.69
7756 12.7550 84.63 78.67 9.27
7757 12.7560 78.59 78.61 8.91
7758 12.7570 94.65 78.57 9.79
7759 12.7580 82.84 78.54 9.21
7760 12.7590 78.10 78.52 8.90
7761 12.7600 77.27 78.51 8.82
7762 12.7610 92.38 78.50 9.66
7763 12.7620 77.23 78.50 8.90
7764 12.7630 75.65 78.49 8.85
7765 12.7640 78.53 78.49 8.99
7766 12.7650 99.33 78.49 10.02
7767 12.7660 87.22 78.49 9.37
7768 12.7670 78.92 78.49 8.95
7769 12.7680 82.30 78.48 9.16
7770 12.7690 71.54 78.48 8.53
7771 12.7700 81.57 78.48 9.06
7772 12.7710 86.78 78.48 9.40
7773 12.7720 79.58 78.48 9.06
7774 12.7730 60.55 78.48 7.93
7775 12.7740 79.61 78.48 9.01
7776 12.7750 84.94 78.49 9.26
7777 12.7760 79.78 78.49 8.98
7778 12.7770 73.98 78.49 8.72
7779 12.7780 64.99 78.49 8.16
7780 12.7790 81.67 78.49 9.14
7781 12.7800 71.53 78.49 8.52
7782 12.7810 63.07 78.49 8.00
7783 12.7820 64.10 78.49 8.10
7784 12.7830 68.65 78.49 8.41
7785 12.7840 76.82 78.49 8.81
7786 12.7850 99.41 78.49 9.97
7787 12.7860 65.80 78.49 8.14
7788 12.7870 78.03 78.49 8.92
7789 12.7880 82.44 78.49 9.17
7790 12.7890 86.20 78.49 9.32
7791 12.7900 78.47 78.49 8.88
7792 12.7910 76.65 78.50 8.82
7793 12.7920 78.21 78.50 8.96
7794 12.7930 75.08 78.50 8.76
7795 12.7940 68.29 78.50 8.33
7796 12.7950 66.80 78.50 8.21
7797 12.7960 80.66 78.50 9.04
7798 12.7970 94.96 78.50 9.83
7799 12.7980 86.29 78.50 9.39
7800 12.7990 84.06 78.50 9.22
7801 12.8000 100.36 78.50 10.09
7802 12.8010 91.70 78.50 9.65
7803 12.8020 81.33 78.51 9.17
7804 12.8030 74.40 78.51 8.78
7805 12.8040 90.74 78.51 9.65
7806 12.8050 72.14 78.51 8.53
7807 12.8060 80.79 78.51 8.99
7808 12.8070 94.42 78.51 9.75
7809 12.8080 79.58 78.51 8.98
7810 12.8090 82.91 78.51 9.15
7811 12.8100 81.53 78.51 9.05
7812 12.8110 85.79 78.51 9.31
7813 12.8120 78.22 78.51 9.01
7814 12.8130 89.90 78.52 9.62
7815 12.8140 85.68 78.52 9.31
7816 12.8150 81.86 78.52 9.06
7817 12.8160 83.16 78.52 9.16
7818 12.8170 85.98 78.52 9.33
7819 12.8180 76.76 78.52 8.85
7820 12.8190 87.12 78.52 9.38
7821 12.8200 77.17 78.52 8.82
7822 12.8210 82.76 78.52 9.16
7823 12.8220 71.54 78.52 8.58
7824 12.8230 82.45 78.52 9.25
7825 12.8240 77.53 78.53 8.92
7826 12.8250 64.54 78.53 8.09
7827 12.8260 82.17 78.53 9.10
7828 12.8270 89.44 78.53 9.53
7829 12.8280 70.36 78.53 8.51
7830 12.8290 90.39 78.53 9.54
7831 12.8300 76.58 78.53 8.78
7832 12.8310 75.13 78.53 8.66
7833 12.8320 85.27 78.53 9.33
7834 12.8330 84.67 78.53 9.31
7835 12.8340 77.04 78.54 8.83
7836 12.8350 86.99 78.54 9.34
7837 12.8360 83.79 78.54 9.19
7838 12.8370 85.70 78.54 9.32
7839 12.8380 97.11 78.54 9.96
7840 12.8390 86.88 78.54 9.38
7841 12.8400 83.04 78.54 9.15
7842 12.8410 84.55 78.54 9.25
7843 12.8420 83.00 78.54 9.22
7844 12.8430 82.28 78.55 9.20
7845 12.8440 76.62 78.55 8.82
7846 12.8450 73.24 78.55 8.58
7847 12.8460 81.52 78.55 9.06
7848 12.8470 80.19 78.55 9.05
7849 12.8480 75.10 78.55 8.77
7850 12.8490 82.79 78.55 9.15
7851 12.8500 73.26 78.55 8.62
7852 12.8510 71.31 78.55 8.50
7853 12.8520 82.71 78.55 9.26
7854 12.8530 67.93 78.56 8.35
7855 12.8540 76.30 78.56 8.81
7856 12.8550 85.42 78.56 9.27
7857 12.8560 78.38 78.56 8.88
7858 12.8570 84.45 78.56 9.21
7859 12.8580 80.85 78.56 9.06
7860 12.8590 87.07 78.56 9.39
7861 12.8600 75.20 78.56 8.71
7862 12.8610 71.45 78.56 8.50
7863 12.8620 91.15 78.57 9.66
7864 12.8630 92.67 78.57 9.80
7865 12.8640 70.10 78.57 8.44
7866 12.8650 90.64 78.57 9.55
7867 12.8660 73.40 78.57 8.60
7868 12.8670 72.51 78.57 8.59
7869 12.8680 86.37 78.57 9.39
7870 12.8690 86.30 78.57 9.34
7871 12.8700 88.71 78.57 9.50
7872 12.8710 73.23 78.58 8.64
7873 12.8720 88.61 78.58 9.55
7874 12.8730 81.11 78.58 9.13
7875 12.8740 88.80 78.58 9.50
7876 12.8750 63.74 78.58 8.03
7877 12.8760 80.43 78.58 8.99
7878 12.8770 81.71 78.58 9.13
7879 12.8780 74.74 78.58 8.74
7880 12.8790 73.66 78.58 8.67
7881 12.8800 80.64 78.59 9.02
7882 12.8810 107.17 78.59 10.42
7883 12.8820 70.22 78.59 8.44
7884 12.8830 63.54 78.59 8.09
7885 12.8840 89.73 78.59 9.53
7886 12.8850 78.07 78.59 8.86
7887 12.8860 89.34 78.59 9.48
7888 12.8870 87.10 78.59 9.42
7889 12.8880 74.61 78.59 8.75
7890 12.8890 83.18 78.60 9.18
7891 12.8900 80.63 78.60 9.03
7892 12.8910 89.24 78.60 9.50
7893 12.8920 82.90 78.60 9.23
7894 12.8930 67.26 78.60 8.32
7895 12.8940 74.38 78.60 8.70
7896 12.8950 87.43 78.60 9.42
7897 12.8960 69.37 78.60 8.38
7898 12.8970 73.90 78.60 8.68
7899 12.8980 73.43 78.61 8.69
7900 12.8990 74.57 78.61 8.72
7901 12.9000 83.56 78.61 9.22
7902 12.9010 85.45 78.61 9.32
7903 12.9020 91.20 78.61 9.69
7904 12.9030 74.42 78.61 8.75
7905 12.9040 84.09 78.61 9.26
7906 12.9050 87.87 78.61 9.40
7907 12.9060 82.27 78.62 9.10
7908 12.9070 74.20 78.62 8.67
7909 12.9080 78.77 78.62 8.97
7910 12.9090 94.19 78.62 9.75
7911 12.9100 70.53 78.62 8.42
7912 12.9110 86.68 78.62 9.37
7913 12.9120 93.68 78.62 9.81
7914 12.9130 62.65 78.62 8.05
7915 12.9140 80.81 78.62 9.07
7916 12.9150 80.15 78.63 8.98
7917 12.9160 77.24 78.63 8.83
7918 12.9170 86.90 78.63 9.40
7919 12.9180 90.47 78.63 9.61
7920 12.9190 88.66 78.63 9.48
7921 12.9200 94.94 78.63 9.80
7922 12.9210 81.41 78.63 9.10
7923 12.9220 90.48 78.63 9.67
7924 12.9230 97.96 78.64 10.03
7925 12.9240 76.09 78.64 8.86
7926 12.9250 103.22 78.64 10.23
7927 12.9260 67.85 78.64 8.31
7928 12.9270 97.37 78.64 9.96
7929 12.9280 86.05 78.64 9.40
7930 12.9290 80.21 78.64 9.02
7931 12.9300 89.89 78.64 9.50
7932 12.9310 96.76 78.65 9.90
7933 12.9320 89.55 78.65 9.58
7934 12.9330 84.81 78.65 9.33
7935 12.9340 75.27 78.65 8.76
7936 12.9350 70.45 78.65 8.43
7937 12.9360 76.02 78.65 8.78
7938 12.9370 75.87 78.65 8.78
7939 12.9380 96.85 78.65 9.96
7940 12.9390 86.29 78.66 9.36
7941 12.9400 77.76 78.66 8.88
7942 12.9410 81.94 78.66 9.10
7943 12.9420 70.30 78.66 8.51
7944 12.9430 72.28 78.66 8.63
7945 12.9440 72.23 78.66 8.61
7946 12.9450 78.89 78.66 8.94
7947 12.9460 87.81 78.66 9.45
7948 12.9470 77.08 78.67 8.89
7949 12.9480 89.79 78.67 9.61
7950 12.9490 88.83 78.67 9.53
7951 12.9500 86.45 78.67 9.37
7952 12.9510 89.03 78.67 9.54
7953 12.9520 85.07 78.67 9.37
7954 12.9530 79.45 78.67 9.06
7955 12.9540 83.85 78.67 9.23
7956 12.9550 78.35 78.68 8.90
7957 12.9560 94.94 78.68 9.77
7958 12.9570 100.63 78.68 10.08
7959 12.9580 100.60 78.68 10.10
7960 12.9590 69.92 78.68 8.43
7961 12.9600 67.59 78.68 8.31
7962 12.9610 97.12 78.68 9.91
7963 12.9620 95.00 78.69 9.90
7964 12.9630 67.55 78.69 8.39
7965 12.9640 91.38 78.69 9.65
7966 12.9650 77.15 78.69 8.81
7967 12.9660 75.80 78.69 8.73
7968 12.9670 79.18 78.69 8.98
7969 12.9680 87.39 78.69 9.48
7970 12.9690 86.12 78.69 9.34
7971 12.9700 76.61 78.70 8.82
7972 12.9710 91.20 78.70 9.62
7973 12.9720 84.17 78.70 9.34
7974 12.9730 88.15 78.70 9.56
7975 12.9740 90.10 78.70 9.60
7976 12.9750 53.56 78.70 7.40
7977 12.9760 81.71 78.70 9.09
7978 12.9770 82.76 78.71 9.18
7979 12.9780 81.90 78.71 9.15
7980 12.9790 90.76 78.71 9.59
7981 12.9800 72.89 78.71 8.59
7982 12.9810 84.75 78.71 9.24
7983 12.9820 77.31 78.71 8.88
7984 12.9830 73.81 78.71 8.75
7985 12.9840 78.98 78.71 8.97
7986 12.9850 93.45 78.72 9.73
7987 12.9860 79.02 78.72 8.93
7988 12.9870 79.63 78.72 9.03
7989 12.9880 87.98 78.72 9.49
7990 12.9890 80.83 78.72 9.07
7991 12.9900 71.33 78.72 8.47
7992 12.9910 84.46 78.72 9.24
7993 12.9920 96.07 78.73 9.94
7994 12.9930 79.35 78.73 9.03
7995 12.9940 92.62 78.73 9.69
7996 12.9950 78.99 78.73 8.92
7997 12.9960 69.24 78.73 8.37
7998 12.9970 81.66 78.73 9.14
7999 12.9980 76.61 78.73 8.87
8000 12.9990 92.31 78.74 9.71
8001 13.0000 74.14 78.74 8.70
8002 13.0010 78.48 78.74 8.93
8003 13.0020 85.46 78.74 9.37
8004 13.0030 81.31 78.74 9.15
8005 13.0040 92.65 78.74 9.70
8006 13.0050 90.51 78.74 9.56
8007 13.0060 88.99 78.75 9.50
8008 13.0070 81.21 78.75 9.10
8009 13.0080 84.08 78.75 9.26
8010 13.0090 79.76 78.75 8.99
8011 13.0100 75.84 78.75 8.74
8012 13.0110 84.01 78.75 9.22
8013 13.0120 84.57 78.75 9.35
8014 13.0130 96.02 78.76 9.96
8015 13.0140 94.32 78.76 9.81
8016 13.0150 95.60 78.76 9.81
8017 13.0160 86.76 78.76 9.36
8018 13.0170 79.91 78.76 8.99
8019 13.0180 88.71 78.76 9.53
8020 13.0190 89.40 78.76 9.53
8021 13.0200 77.36 78.77 8.83
8022 13.0210 71.48 78.77 8.52
8023 13.0220 84.50 78.77 9.32
8024 13.0230 85.12 78.77 9.42
8025 13.0240 96.73 78.77 9.98
8026 13.0250 82.27 78.77 9.14
8027 13.0260 74.22 78.77 8.67
8028 13.0270 80.93 78.78 9.09
8029 13.0280 82.64 78.78 9.18
8030 13.0290 67.79 78.78 8.26
8031 13.0300 93.44 78.78 9.70
8032 13.0310 87.14 78.78 9.39
8033 13.0320 81.92 78.78 9.17
8034 13.0330 89.22 78.78 9.56
8035 13.0340 95.27 78.79 9.81
8036 13.0350 74.74 78.79 8.71
8037 13.0360 70.12 78.79 8.41
8038 13.0370 84.31 78.79 9.23
8039 13.0380 94.76 78.79 9.81
8040 13.0390 87.49 78.79 9.42
8041 13.0400 90.89 78.79 9.58
8042 13.0410 83.66 78.80 9.20
8043 13.0420 75.09 78.80 8.79
8044 13.0430 63.16 78.80 8.07
8045 13.0440 94.33 78.80 9.78
8046 13.0450 79.96 78.80 8.97
8047 13.0460 92.28 78.80 9.66
8048 13.0470 68.75 78.81 8.39
8049 13.0480 91.62 78.81 9.69
8050 13.0490 93.06 78.81 9.74
8051 13.0500 72.93 78.81 8.61
8052 13.0510 81.30 78.81 9.06
8053 13.0520 83.93 78.81 9.28
8054 13.0530 72.20 78.81 8.57
8055 13.0540 79.32 78.82 8.94
8056 13.0550 78.62 78.82 8.86
8057 13.0560 73.70 78.82 8.59
8058 13.0570 85.96 78.82 9.34
8059 13.0580 93.76 78.82 9.74
8060 13.0590 79.28 78.82 8.99
8061 13.0600 58.98 78.82 7.72
8062 13.0610 76.08 78.83 8.77
8063 13.0620 96.44 78.83 9.91
8064 13.0630 93.21 78.83 9.79
8065 13.0640 92.70 78.83 9.67
8066 13.0650 97.45 78.83 9.89
8067 13.0660 80.21 78.83 8.97
8068 13.0670 78.87 78.84 8.94
8069 13.0680 87.09 78.84 9.45
8070 13.0690 64.26 78.84 8.10
8071 13.0700 83.50 78.84 9.20
8072 13.0710 82.21 78.84 9.12
8073 13.0720 76.93 78.84 8.91
8074 13.0730 73.65 78.84 8.74
8075 13.0740 82.12 78.85 9.15
8076 13.0750 91.70 78.85 9.63
8077 13.0760 69.73 78.85 8.37
8078 13.0770 87.85 78.85 9.44
8079 13.0780 93.73 78.85 9.73
8080 13.0790 91.43 78.85 9.61
8081 13.0800 81.20 78.86 9.03
8082 13.0810 94.69 78.86 9.77
8083 13.0820 76.23 78.86 8.83
8084 13.0830 77.36 78.86 8.90
8085 13.0840 83.59 78.86 9.22
8086 13.0850 91.31 78.86 9.59
8087 13.0860 91.18 78.87 9.58
8088 13.0870 96.53 78.87 9.90
8089 13.0880 83.32 78.87 9.20
8090 13.0890 98.03 78.87 9.98
8091 13.0900 76.61 78.87 8.80
8092 13.0910 84.61 78.87 9.25
8093 13.0920 85.35 78.87 9.42
8094 13.0930 75.18 78.88 8.78
8095 13.0940 79.69 78.88 9.02
8096 13.0950 76.28 78.88 8.79
8097 13.0960 69.52 78.88 8.39
8098 13.0970 80.03 78.88 9.03
8099 13.0980 82.03 78.88 9.18
8100 13.0990 79.28 78.89 8.99
8101 13.1000 79.06 78.89 8.93
8102 13.1010 80.94 78.89 9.06
8103 13.1020 85.27 78.89 9.35
8104 13.1030 82.21 78.89 9.20
8105 13.1040 90.81 78.89 9.59
8106 13.1050 79.69 78.90 8.95
8107 13.1060 69.80 78.90 8.36
8108 13.1070 88.59 78.90 9.49
8109 13.1080 104.92 78.90 10.34
8110 13.1090 95.16 78.90 9.83
8111 13.1100 86.36 78.90 9.34
8112 13.1110 89.74 78.91 9.53
8113 13.1120 67.14 78.91 8.31
8114 13.1130 76.96 78.91 8.90
8115 13.1140 97.94 78.91 9.96
8116 13.1150 86.97 78.91 9.37
8117 13.1160 91.60 78.91 9.60
8118 13.1170 89.62 78.92 9.54
8119 13.1180 72.39 78.92 8.60
8120 13.1190 60.84 78.92 7.87
8121 13.1200 89.77 78.92 9.51
8122 13.1210 83.92 78.92 9.25
8123 13.1220 83.27 78.92 9.27
8124 13.1230 77.52 78.93 8.98
8125 13.1240 85.42 78.93 9.34
8126 13.1250 91.60 78.93 9.61
8127 13.1260 74.77 78.93 8.68
8128 13.1270 67.00 78.93 8.22
8129 13.1280 98.47 78.93 10.01
8130 13.1290 80.13 78.94 8.96
8131 13.1300 80.48 78.94 8.99
8132 13.1310 84.66 78.94 9.27
8133 13.1320 86.64 78.94 9.38
8134 13.1330 86.31 78.94 9.43
8135 13.1340 82.37 78.94 9.13
8136 13.1350 76.42 78.95 8.80
8137 13.1360 81.81 78.95 9.08
8138 13.1370 87.83 78.95 9.45
8139 13.1380 84.33 78.95 9.27
8140 13.1390 73.02 78.95 8.62
8141 13.1400 93.96 78.95 9.73
8142 13.1410 87.17 78.96 9.41
8143 13.1420 64.58 78.96 8.16
8144 13.1430 97.98 78.96 10.05
8145 13.1440 89.92 78.96 9.59
8146 13.1450 70.07 78.96 8.45
8147 13.1460 74.48 78.96 8.70
8148 13.1470 82.15 78.97 9.18
8149 13.1480 66.92 78.97 8.30
8150 13.1490 80.56 78.97 9.08
8151 13.1500 83.98 78.97 9.21
8152 13.1510 75.29 78.97 8.69
8153 13.1520 84.16 78.97 9.30
8154 13.1530 75.39 78.98 8.78
8155 13.1540 70.11 78.98 8.45
8156 13.1550 86.21 78.98 9.32
8157 13.1560 79.85 78.98 8.96
8158 13.1570 86.13 78.98 9.34
8159 13.1580 92.08 78.98 9.70
8160 13.1590 87.73 78.99 9.45
8161 13.1600 73.96 78.99 8.64
8162 13.1610 80.18 78.99 9.03
8163 13.1620 83.74 78.99 9.30
8164 13.1630 86.46 78.99 9.45
8165 13.1640 90.44 79.00 9.60
8166 13.1650 74.85 79.00 8.71
8167 13.1660 77.11 79.00 8.80
8168 13.1670 83.04 79.00 9.21
8169 13.1680 82.98 79.00 9.20
8170 13.1690 76.61 79.00 8.86
8171 13.1700 83.98 79.01 9.23
8172 13.1710 99.55 79.01 10.07
8173 13.1720 78.55 79.01 9.03
8174 13.1730 97.16 79.01 10.01
8175 13.1740 84.97 79.01 9.31
8176 13.1750 71.45 79.01 8.50
8177 13.1760 87.19 79.02 9.36
8178 13.1770 76.71 79.02 8.83
8179 13.1780 85.32 79.02 9.33
8180 13.1790 107.84 79.02 10.42
8181 13.1800 73.07 79.02 8.57
8182 13.1810 86.88 79.03 9.37
8183 13.1820 75.07 79.03 8.79
8184 13.1830 93.12 79.03 9.80
8185 13.1840 93.00 79.03 9.76
8186 13.1850 96.93 79.03 9.90
8187 13.1860 90.71 79.03 9.57
8188 13.1870 71.61 79.04 8.53
8189 13.1880 99.18 79.04 10.06
8190 13.1890 91.03 79.04 9.59
8191 13.1900 88.91 79.04 9.47
8192 13.1910 95.97 79.04 9.85
8193 13.1920 79.14 79.04 9.02
8194 13.1930 84.11 79.05 9.32
8195 13.1940 91.00 79.05 9.61
8196 13.1950 94.08 79.05 9.77
8197 13.1960 85.51 79.05 9.31
8198 13.1970 72.67 79.05 8.62
8199 13.1980 77.59 79.06 8.93
8200 13.1990 90.75 79.06 9.61
8201 13.2000 81.94 79.06 9.11
8202 13.2010 104.99 79.06 10.31
8203 13.2020 83.65 79.06 9.24
8204 13.2030 82.42 79.06 9.19
8205 13.2040 89.14 79.07 9.50
8206 13.2050 86.94 79.07 9.34
8207 13.2060 89.32 79.07 9.45
8208 13.2070 109.83 79.07 10.55
8209 13.2080 84.17 79.07 9.29
8210 13.2090 81.64 79.08 9.08
8211 13.2100 76.83 79.08 8.83
8212 13.2110 88.87 79.08 9.48
8213 13.2120 79.20 79.08 9.03
8214 13.2130 76.85 79.08 8.87
8215 13.2140 87.06 79.08 9.39
8216 13.2150 83.77 79.09 9.21
8217 13.2160 74.91 79.09 8.67
8218 13.2170 87.10 79.09 9.40
8219 13.2180 74.79 79.09 8.74
8220 13.2190 81.28 79.09 9.11
8221 13.2200 99.06 79.10 10.06
8222 13.2210 97.61 79.10 9.96
8223 13.2220 95.94 79.10 9.94
8224 13.2230 77.00 79.10 8.91
8225 13.2240 103.42 79.10 10.24
8226 13.2250 99.79 79.11 10.02
8227 13.2260 83.57 79.11 9.13
8228 13.2270 87.25 79.11 9.42
8229 13.2280 84.78 79.11 9.31
8230 13.2290 82.09 79.11 9.13
8231 13.2300 68.78 79.11 8.33
8232 13.2310 90.31 79.12 9.58
8233 13.2320 93.37 79.12 9.79
8234 13.2330 77.03 79.12 8.89
8235 13.2340 78.03 79.12 8.91
8236 13.2350 72.22 79.12 8.54
8237 13.2360 79.38 79.13 8.93
8238 13.2370 78.68 79.13 8.95
8239 13.2380 84.26 79.13 9.30
8240 13.2390 91.56 79.13 9.68
8241 13.2400 95.92 79.13 9.82
8242 13.2410 97.39 79.14 9.95
8243 13.2420 95.51 79.14 9.88
8244 13.2430 96.65 79.14 9.97
8245 13.2440 94.11 79.14 9.81
8246 13.2450 118.53 79.14 11.00
8247 13.2460 98.97 79.15 10.02
8248 13.2470 84.39 79.15 9.31
8249 13.2480 85.32 79.15 9.39
8250 13.2490 91.57 79.15 9.64
8251 13.2500 90.65 79.15 9.55
8252 13.2510 83.07 79.15 9.15
8253 13.2520 88.74 79.16 9.52
8254 13.2530 86.79 79.16 9.45
8255 13.2540 98.81 79.16 10.05
8256 13.2550 89.23 79.16 9.48
8257 13.2560 89.22 79.16 9.51
8258 13.2570 88.29 79.17 9.47
8259 13.2580 75.49 79.17 8.78
8260 13.2590 95.51 79.17 9.85
8261 13.2600 92.56 79.17 9.66
8262 13.2610 109.54 79.90 10.56
8263 13.2620 87.87 79.91 9.50
8264 13.2630 62.33 80.64 8.04
8265 13.2640 79.97 81.38 9.05
8266 13.2650 92.59 81.41 9.66
8267 13.2660 90.47 81.43 9.55
8268 13.2670 80.29 81.46 9.02
8269 13.2680 86.43 81.48 9.42
8270 13.2690 104.99 81.51 10.37
8271 13.2700 88.36 81.53 9.51
8272 13.2710 99.24 81.56 10.08
8273 13.2720 94.67 81.58 9.90
8274 13.2730 75.41 81.61 8.84
8275 13.2740 84.26 81.64 9.24
8276 13.2750 100.38 81.66 10.04
8277 13.2760 76.10 81.69 8.76
8278 13.2770 79.69 81.72 8.99
8279 13.2780 94.27 81.75 9.84
8280 13.2790 75.21 81.78 8.74
8281 13.2800 79.49 81.81 8.96
8282 13.2810 100.18 81.84 10.08
8283 13.2820 88.09 81.87 9.52
8284 13.2830 95.44 81.90 9.91
8285 13.2840 88.29 81.93 9.47
8286 13.2850 87.40 81.96 9.39
8287 13.2860 87.09 81.99 9.37
8288 13.2870 99.68 82.03 10.09
8289 13.2880 86.25 82.06 9.39
8290 13.2890 82.09 82.10 9.15
8291 13.2900 104.61 82.13 10.27
8292 13.2910 84.81 82.16 9.29
8293 13.2920 112.54 82.20 10.79
8294 13.2930 87.63 82.24 9.53
8295 13.2940 86.67 82.27 9.43
8296 13.2950 92.61 82.31 9.71
8297 13.2960 98.67 82.35 10.03
8298 13.2970 87.80 82.39 9.47
8299 13.2980 76.48 82.43 8.86
8300 13.2990 97.56 82.47 9.95
8301 13.3000 88.37 82.51 9.43
8302 13.3010 105.61 82.55 10.33
8303 13.3020 98.88 82.59 10.09
8304 13.3030 88.89 82.63 9.61
8305 13.3040 91.24 82.68 9.62
8306 13.3050 101.02 82.72 10.14
8307 13.3060 90.31 82.77 9.55
8308 13.3070 90.38 82.81 9.60
8309 13.3080 88.85 82.86 9.53
8310 13.3090 82.04 82.91 9.18
8311 13.3100 91.71 82.96 9.62
8312 13.3110 95.88 83.01 9.89
8313 13.3120 91.55 83.06 9.72
8314 13.3130 85.68 83.11 9.43
8315 13.3140 82.80 83.16 9.20
8316 13.3150 95.33 83.22 9.83
8317 13.3160 85.08 83.27 9.29
8318 13.3170 93.31 83.33 9.76
8319 13.3180 99.17 83.38 10.08
8320 13.3190 102.84 83.44 10.27
8321 13.3200 81.86 83.50 9.15
8322 13.3210 87.63 83.56 9.49
8323 13.3220 79.97 83.62 9.10
8324 13.3230 102.32 83.69 10.30
8325 13.3240 85.35 83.75 9.32
8326 13.3250 89.38 83.82 9.51
8327 13.3260 105.74 83.89 10.32
8328 13.3270 78.33 83.96 8.93
8329 13.3280 101.83 84.03 10.22
8330 13.3290 86.37 84.10 9.38
8331 13.3300 91.42 84.17 9.60
8332 13.3310 88.16 84.25 9.47
8333 13.3320 97.24 84.33 10.03
8334 13.3330 78.57 84.41 9.03
8335 13.3340 93.09 84.50 9.75
8336 13.3350 106.84 84.58 10.37
8337 13.3360 93.06 84.67 9.69
8338 13.3370 101.65 84.77 10.22
8339 13.3380 82.13 84.86 9.19
8340 13.3390 82.04 84.97 9.17
8341 13.3400 109.77 85.08 10.55
8342 13.3410 104.58 85.19 10.31
8343 13.3420 91.18 85.32 9.71
8344 13.3430 82.17 85.47 9.26
8345 13.3440 103.82 85.64 10.31
8346 13.3450 89.60 85.86 9.58
8347 13.3460 97.16 86.14 9.94
8348 13.3470 81.36 86.50 9.15
8349 13.3480 98.71 86.94 10.06
8350 13.3490 84.49 87.43 9.30
8351 13.3500 88.90 87.87 9.48
8352 13.3510 96.83 88.10 9.91
8353 13.3520 89.42 88.03 9.59
8354 13.3530 81.68 87.79 9.19
8355 13.3540 103.40 87.55 10.28
8356 13.3550 96.55 87.37 9.91
8357 13.3560 101.14 87.27 10.10
8358 13.3570 91.66 87.25 9.65
8359 13.3580 93.40 87.28 9.79
8360 13.3590 101.35 87.35 10.16
8361 13.3600 101.14 87.45 10.11
8362 13.3610 87.16 87.57 9.42
8363 13.3620 98.74 87.70 10.08
8364 13.3630 107.41 87.85 10.52
8365 13.3640 80.13 88.00 9.07
8366 13.3650 93.50 88.15 9.72
8367 13.3660 89.38 88.32 9.53
8368 13.3670 87.28 88.49 9.47
8369 13.3680 97.25 88.67 10.02
8370 13.3690 109.80 88.85 10.60
8371 13.3700 84.31 89.04 9.30
8372 13.3710 99.82 89.24 10.09
8373 13.3720 112.30 89.45 10.77
8374 13.3730 99.20 89.66 10.14
8375 13.3740 99.30 89.88 10.07
8376 13.3750 114.93 90.10 10.79
8377 13.3760 109.95 90.34 10.51
8378 13.3770 100.11 90.58 10.13
8379 13.3780 89.56 90.83 9.58
8380 13.3790 104.73 91.09 10.34
8381 13.3800 79.83 91.36 8.97
8382 13.3810 77.03 91.64 8.86
8383 13.3820 117.63 91.93 11.02
8384 13.3830 106.10 92.23 10.51
8385 13.3840 107.83 92.54 10.50
8386 13.3850 94.10 92.86 9.75
8387 13.3860 93.03 93.19 9.69
8388 13.3870 90.73 93.54 9.67
8389 13.3880 91.35 93.89 9.65
8390 13.3890 114.28 94.27 10.80
8391 13.3900 97.47 94.65 9.94
8392 13.3910 90.14 95.05 9.59
8393 13.3920 101.45 95.47 10.26
8394 13.3930 86.97 95.91 9.51
8395 13.3940 84.41 96.36 9.29
8396 13.3950 102.72 96.83 10.25
8397 13.3960 86.86 97.32 9.38
8398 13.3970 93.29 97.84 9.80
8399 13.3980 90.31 98.37 9.59
8400 13.3990 85.59 98.93 9.36
8401 13.4000 97.36 99.51 9.93
8402 13.4010 105.32 100.12 10.33
8403 13.4020 91.45 100.76 9.69
8404 13.4030 105.95 101.43 10.44
8405 13.4040 103.17 102.13 10.27
8406 13.4050 101.39 102.86 10.15
8407 13.4060 106.21 103.63 10.38
8408 13.4070 116.57 104.43 10.91
8409 13.4080 104.94 105.28 10.36
8410 13.4090 110.79 106.18 10.62
8411 13.4100 104.72 107.11 10.28
8412 13.4110 101.99 108.10 10.17
8413 13.4120 97.53 109.14 10.01
8414 13.4130 107.75 110.25 10.56
8415 13.4140 92.99 111.41 9.75
8416 13.4150 105.50 112.64 10.34
8417 13.4160 95.22 113.94 9.81
8418 13.4170 113.59 115.32 10.77
8419 13.4180 115.18 116.78 10.91
8420 13.4190 118.68 118.34 11.01
8421 13.4200 111.66 119.99 10.68
8422 13.4210 85.81 121.75 9.37
8423 13.4220 127.23 123.63 11.42
8424 13.4230 112.42 125.64 10.75
8425 13.4240 103.24 127.78 10.24
8426 13.4250 125.66 130.08 11.29
8427 13.4260 133.44 132.55 11.58
8428 13.4270 126.65 135.20 11.34
8429 13.4280 116.10 138.05 10.93
8430 13.4290 141.96 141.13 12.03
8431 13.4300 125.66 144.46 11.28
8432 13.4310 127.56 148.06 11.37
8433 13.4320 118.82 151.97 11.00
8434 13.4330 146.06 156.22 12.30
8435 13.4340 124.96 160.86 11.28
8436 13.4350 116.73 165.93 10.86
8437 13.4360 143.51 171.48 12.03
8438 13.4370 137.02 177.60 11.85
8439 13.4380 176.44 184.32 13.45
8440 13.4390 191.67 191.78 13.93
8441 13.4400 156.85 200.05 12.56
8442 13.4410 182.30 209.26 13.64
8443 13.4420 199.47 219.58 14.30
8444 13.4430 181.01 231.16 13.71
8445 13.4440 192.12 244.25 14.02
8446 13.4450 210.52 259.07 14.71
8447 13.4460 250.40 276.00 15.87
8448 13.4470 258.42 295.40 16.20
8449 13.4480 268.99 317.81 16.52
8450 13.4490 301.20 343.89 17.48
8451 13.4500 317.89 374.42 17.88
8452 13.4510 361.89 410.51 19.13
8453 13.4520 441.37 453.56 21.30
8454 13.4530 470.17 505.55 22.03
8455 13.4540 581.78 569.10 24.26
8456 13.4550 723.06 648.00 26.97
8457 13.4560 785.79 748.68 28.10
8458 13.4570 960.61 881.16 31.29
8459 13.4580 1214.56 1062.96 35.30
8460 13.4590 1589.91 1323.11 40.33
8461 13.4600 1878.08 1706.97 43.61
8462 13.4610 2325.65 2276.42 48.88
8463 13.4620 3088.67 3105.80 56.77
8464 13.4630 4167.60 4260.33 66.09
8465 13.4640 5102.06 5736.21 72.65
8466 13.4650 6867.78 7375.78 84.80
8467 13.4660 8650.31 8815.95 95.41
8468 13.4670 9674.72 9682.76 101.62
8469 13.4680 9661.17 9678.29 102.18
8470 13.4690 8669.43 8675.34 96.38
8471 13.4700 6710.71 7026.69 83.77
8472 13.4710 4918.85 5316.91 71.72
8473 13.4720 3787.56 3884.13 62.85
8474 13.4730 2955.83 2814.73 55.35
8475 13.4740 2343.75 2066.80 49.00
8476 13.4750 1817.45 1562.46 42.77
8477 13.4760 1433.10 1226.09 38.12
8478 13.4770 1102.80 997.19 33.59
8479 13.4780 940.06 835.09 30.99
8480 13.4790 763.10 714.85 27.80
8481 13.4800 647.39 622.29 25.56
8482 13.4810 573.53 548.69 24.08
8483 13.4820 534.72 489.07 23.36
8484 13.4830 405.24 440.08 20.34
8485 13.4840 364.82 399.31 19.28
8486 13.4850 315.70 365.02 17.88
8487 13.4860 293.43 335.90 17.18
8488 13.4870 298.84 311.02 17.47
8489 13.4880 256.20 289.56 16.20
8490 13.4890 250.67 270.93 15.97
8491 13.4900 229.27 254.68 15.16
8492 13.4910 204.26 240.39 14.41
8493 13.4920 193.64 227.78 14.16
8494 13.4930 167.98 216.59 13.22
8495 13.4940 166.84 206.62 13.07
8496 13.4950 153.74 197.70 12.51
8497 13.4960 152.82 189.67 12.40
8498 13.4970 159.86 182.45 12.74
8499 13.4980 155.27 175.91 12.56
8500 13.4990 131.28 169.97 11.52
8501 13.5000 151.58 164.57 12.34
8502 13.5010 134.81 159.63 11.61
8503 13.5020 132.41 155.12 11.66
8504 13.5030 121.24 150.97 11.16
8505 13.5040 124.57 147.16 11.27
8506 13.5050 112.35 143.64 10.64
8507 13.5060 130.98 140.39 11.48
8508 13.5070 107.79 137.39 10.46
8509 13.5080 125.66 134.60 11.31
8510 13.5090 127.32 132.01 11.43
8511 13.5100 112.96 129.60 10.67
8512 13.5110 116.61 127.35 10.89
8513 13.5120 104.79 125.25 10.38
8514 13.5130 118.32 123.29 11.00
8515 13.5140 111.62 121.44 10.65
8516 13.5150 123.19 119.72 11.17
8517 13.5160 119.16 118.10 10.95
8518 13.5170 114.33 116.57 10.83
8519 13.5180 107.52 115.14 10.52
8520 13.5190 98.21 113.79 10.04
8521 13.5200 123.40 112.51 11.21
8522 13.5210 95.07 111.31 9.82
8523 13.5220 98.16 110.17 10.02
8524 13.5230 108.52 109.09 10.55
8525 13.5240 93.65 108.07 9.75
8526 13.5250 91.69 107.10 9.59
8527 13.5260 115.16 106.18 10.79
8528 13.5270 110.01 105.30 10.59
8529 13.5280 94.02 104.47 9.81
8530 13.5290 91.45 103.68 9.67
8531 13.5300 118.43 102.92 10.93
8532 13.5310 85.86 102.20 9.34
8533 13.5320 111.09 101.52 10.66
8534 13.5330 105.37 100.86 10.44
8535 13.5340 101.36 100.24 10.19
8536 13.5350 102.77 99.64 10.19
8537 13.5360 106.50 99.07 10.37
8538 13.5370 91.58 98.52 9.72
8539 13.5380 106.34 98.00 10.43
8540 13.5390 103.39 97.50 10.25
8541 13.5400 106.90 97.01 10.41
8542 13.5410 109.60 96.55 10.58
8543 13.5420 105.22 96.11 10.44
8544 13.5430 90.42 95.68 9.71
8545 13.5440 90.57 95.27 9.68
8546 13.5450 117.73 94.88 10.96
8547 13.5460 109.21 94.50 10.51
8548 13.5470 94.57 94.14 9.81
8549 13.5480 92.18 93.79 9.72
8550 13.5490 109.96 93.45 10.56
8551 13.5500 95.24 93.12 9.85
8552 13.5510 91.92 92.81 9.68
8553 13.5520 101.77 92.51 10.26
8554 13.5530 94.64 92.21 9.89
8555 13.5540 99.17 91.93 10.08
8556 13.5550 88.37 91.66 9.47
8557 13.5560 88.15 91.40 9.42
8558 13.5570 83.37 91.14 9.24
8559 13.5580 71.93 90.90 8.63
8560 13.5590 77.59 90.66 8.92
8561 13.5600 90.12 90.43 9.61
8562 13.5610 94.02 90.21 9.77
8563 13.5620 103.93 89.99 10.34
8564 13.5630 103.75 89.78 10.37
8565 13.5640 96.00 89.58 9.90
8566 13.5650 95.05 89.38 9.79
8567 13.5660 105.13 89.19 10.33
8568 13.5670 93.84 89.01 9.82
8569 13.5680 87.73 88.83 9.54
8570 13.5690 89.03 88.66 9.57
8571 13.5700 100.12 88.49 10.09
8572 13.5710 92.49 88.32 9.71
8573 13.5720 98.18 88.17 10.06
8574 13.5730 102.34 88.01 10.28
8575 13.5740 92.54 87.86 9.70
8576 13.5750 85.06 87.72 9.27
8577 13.5760 96.17 87.57 9.87
8578 13.5770 72.68 87.44 8.62
8579 13.5780 88.23 87.30 9.52
8580 13.5790 76.25 87.17 8.81
8581 13.5800 94.06 87.05 9.77
8582 13.5810 96.95 86.92 9.90
8583 13.5820 100.82 86.80 10.20
8584 13.5830 102.78 86.69 10.30
8585 13.5840 98.97 86.57 10.06
8586 13.5850 90.29 86.46 9.56
8587 13.5860 111.78 86.35 10.63
8588 13.5870 106.52 86.25 10.39
8589 13.5880 96.94 86.15 9.98
8590 13.5890 88.57 86.05 9.47
8591 13.5900 100.31 85.95 10.11
8592 13.5910 92.05 85.85 9.69
8593 13.5920 94.86 85.76 9.92
8594 13.5930 89.71 85.67 9.66
8595 13.5940 101.66 85.58 10.21
8596 13.5950 90.31 85.50 9.59
8597 13.5960 83.41 85.41 9.23
8598 13.5970 98.33 85.33 10.01
8599 13.5980 90.17 85.25 9.62
8600 13.5990 87.91 85.17 9.47
8601 13.6000 92.42 85.10 9.66
8602 13.6010 88.26 85.02 9.48
8603 13.6020 103.77 84.95 10.31
8604 13.6030 86.35 84.88 9.44
8605 13.6040 75.53 84.81 8.80
8606 13.6050 92.52 84.74 9.68
8607 13.6060 82.13 84.67 9.08
8608 13.6070 96.49 84.61 9.93
8609 13.6080 94.17 84.54 9.80
8610 13.6090 93.41 84.48 9.77
8611 13.6100 95.07 84.42 9.80
8612 13.6110 97.24 84.36 9.94
8613 13.6120 105.96 84.30 10.46
8614 13.6130 102.52 84.25 10.28
8615 13.6140 112.08 84.19 10.71
8616 13.6150 120.23 84.14 11.05
8617 13.6160 100.55 84.08 10.11
8618 13.6170 70.38 84.03 8.52
8619 13.6180 111.60 83.98 10.71
8620 13.6190 104.89 83.93 10.37
8621 13.6200 84.08 83.88 9.24
8622 13.6210 95.88 83.83 9.87
8623 13.6220 91.30 83.78 9.69
8624 13.6230 96.02 83.74 9.93
8625 13.6240 96.56 83.69 9.93
8626 13.6250 67.31 83.65 8.28
8627 13.6260 83.46 83.60 9.16
8628 13.6270 92.67 83.56 9.74
8629 13.6280 100.43 83.52 10.12
8630 13.6290 103.21 83.48 10.30
8631 13.6300 94.61 83.44 9.76
8632 13.6310 105.32 83.40 10.33
8633 13.6320 93.38 83.36 9.78
8634 13.6330 108.43 83.32 10.57
8635 13.6340 102.41 83.28 10.22
8636 13.6350 101.73 83.25 10.14
8637 13.6360 95.56 83.21 9.82
8638 13.6370 89.23 83.18 9.58
8639 13.6380 86.72 83.14 9.44
8640 13.6390 84.79 83.11 9.33
8641 13.6400 89.06 83.08 9.52
8642 13.6410 79.57 83.04 9.05
8643 13.6420 92.01 83.01 9.76
8644 13.6430 108.28 82.98 10.62
8645 13.6440 87.77 82.95 9.50
8646 13.6450 94.82 82.92 9.82
8647 13.6460 85.35 82.89 9.29
8648 13.6470 86.45 82.86 9.39
8649 13.6480 92.07 82.83 9.73
8650 13.6490 73.83 82.80 8.70
8651 13.6500 65.00 82.78 8.12
8652 13.6510 92.45 82.75 9.69
8653 13.6520 97.09 82.72 10.04
8654 13.6530 77.97 82.70 8.99
8655 13.6540 99.19 82.67 10.05
8656 13.6550 84.21 82.64 9.25
8657 13.6560 107.36 82.62 10.40
8658 13.6570 92.07 82.60 9.69
8659 13.6580 108.48 82.57 10.55
8660 13.6590 91.41 82.55 9.66
8661 13.6600 86.20 82.53 9.37
8662 13.6610 93.26 82.50 9.73
8663 13.6620 99.41 82.48 10.11
8664 13.6630 101.13 82.46 10.22
8665 13.6640 102.61 82.44 10.23
8666 13.6650 82.15 82.42 9.14
8667 13.6660 90.09 82.39 9.60
8668 13.6670 84.38 82.37 9.32
8669 13.6680 79.54 82.35 9.06
8670 13.6690 94.24 82.33 9.82
8671 13.6700 90.68 82.31 9.58
8672 13.6710 93.91 81.57 9.77
8673 13.6720 91.00 81.56 9.65
8674 13.6730 90.50 80.83 9.67
8675 13.6740 84.97 80.11 9.30
8676 13.6750 97.20 80.11 9.88
8677 13.6760 84.37 80.11 9.24
8678 13.6770 94.26 80.11 9.79
8679 13.6780 93.57 80.12 9.79
8680 13.6790 95.73 80.12 9.88
8681 13.6800 82.14 80.12 9.11
8682 13.6810 81.98 80.12 9.11
8683 13.6820 98.68 80.13 10.08
8684 13.6830 97.53 80.13 10.05
8685 13.6840 83.08 80.13 9.25
8686 13.6850 84.79 80.14 9.30
8687 13.6860 81.02 80.14 9.09
8688 13.6870 82.02 80.14 9.13
8689 13.6880 81.18 80.14 9.13
8690 13.6890 73.76 80.15 8.69
8691 13.6900 85.56 80.15 9.31
8692 13.6910 94.49 80.15 9.83
8693 13.6920 84.48 80.15 9.36
8694 13.6930 86.82 80.16 9.49
8695 13.6940 92.05 80.16 9.69
8696 13.6950 86.20 80.16 9.32
8697 13.6960 89.98 80.16 9.53
8698 13.6970 92.48 80.17 9.66
8699 13.6980 89.00 80.17 9.52
8700 13.6990 80.55 80.17 9.05
8701 13.7000 81.48 80.17 9.08
8702 13.7010 85.07 80.18 9.32
8703 13.7020 78.78 80.18 9.02
8704 13.7030 95.81 80.18 9.94
8705 13.7040 99.12 80.18 10.05
8706 13.7050 96.52 80.19 9.89
8707 13.7060 93.02 80.19 9.68
8708 13.7070 98.90 80.19 10.03
8709 13.7080 109.27 80.19 10.58
8710 13.7090 84.10 80.20 9.26
8711 13.7100 98.97 80.20 10.00
8712 13.7110 74.65 80.20 8.73
8713 13.7120 79.65 80.21 9.07
8714 13.7130 101.19 80.21 10.25
8715 13.7140 67.56 80.21 8.31
8716 13.7150 87.67 80.21 9.44
8717 13.7160 74.78 80.22 8.71
8718 13.7170 92.06 80.24 9.69
8719 13.7180 85.02 80.25 9.34
8720 13.7190 87.28 80.25 9.43
8721 13.7200 85.62 80.25 9.33
8722 13.7210 77.81 80.26 8.86
8723 13.7220 84.23 80.26 9.28
8724 13.7230 81.55 80.26 9.14
8725 13.7240 83.32 80.27 9.22
8726 13.7250 97.33 80.27 9.93
8727 13.7260 85.85 80.27 9.31
8728 13.7270 84.03 80.27 9.26
8729 13.7280 97.48 80.28 10.00
8730 13.7290 103.20 80.28 10.24
8731 13.7300 95.25 80.28 9.81
8732 13.7310 91.25 80.29 9.61
8733 13.7320 88.41 80.29 9.53
8734 13.7330 99.95 80.29 10.18
8735 13.7340 88.73 80.29 9.55
8736 13.7350 87.60 80.30 9.42
8737 13.7360 82.56 80.30 9.17
8738 13.7370 87.69 80.30 9.47
8739 13.7380 83.05 80.31 9.23
8740 13.7390 95.77 80.31 9.88
8741 13.7400 92.04 80.31 9.70
8742 13.7410 81.25 80.32 9.08
8743 13.7420 91.65 80.32 9.72
8744 13.7430 79.89 80.32 9.10
8745 13.7440 76.36 80.32 8.85
8746 13.7450 92.20 80.33 9.66
8747 13.7460 88.42 80.33 9.44
8748 13.7470 83.97 80.33 9.24
8749 13.7480 93.23 80.34 9.78
8750 13.7490 83.42 80.34 9.21
8751 13.7500 93.92 80.34 9.78
8752 13.7510 96.91 80.35 9.91
8753 13.7520 93.05 80.35 9.81
8754 13.7530 86.76 80.35 9.48
8755 13.7540 88.17 80.36 9.49
8756 13.7550 79.74 80.36 9.00
8757 13.7560 66.48 80.36 8.22
8758 13.7570 95.11 80.37 9.88
8759 13.7580 88.78 80.37 9.57
8760 13.7590 90.95 80.37 9.63
8761 13.7600 80.66 80.37 9.08
8762 13.7610 84.59 80.38 9.29
8763 13.7620 94.15 80.38 9.85
8764 13.7630 85.65 80.38 9.43
8765 13.7640 77.92 80.39 8.95
8766 13.7650 91.39 80.39 9.66
8767 13.7660 77.12 80.39 8.85
8768 13.7670 80.64 80.40 9.08
8769 13.7680 71.79 80.40 8.63
8770 13.7690 80.67 80.40 9.11
8771 13.7700 84.37 80.41 9.27
8772 13.7710 86.39 80.41 9.38
8773 13.7720 95.52 80.41 9.96
8774 13.7730 84.26 80.42 9.36
8775 13.7740 71.31 80.42 8.55
8776 13.7750 77.90 80.42 8.89
8777 13.7760 71.08 80.43 8.51
8778 13.7770 95.21 80.43 9.85
8779 13.7780 97.42 80.43 10.03
8780 13.7790 91.30 80.44 9.64
8781 13.7800 80.70 80.44 9.04
8782 13.7810 89.92 80.44 9.59
8783 13.7820 93.12 80.45 9.81
8784 13.7830 91.87 80.45 9.77
8785 13.7840 84.23 80.46 9.27
8786 13.7850 87.58 80.46 9.45
8787 13.7860 81.64 80.46 9.13
8788 13.7870 93.73 80.47 9.80
8789 13.7880 74.84 80.47 8.79
8790 13.7890 88.42 80.47 9.50
8791 13.7900 93.10 80.48 9.74
8792 13.7910 85.07 80.48 9.35
8793 13.7920 89.53 80.48 9.66
8794 13.7930 89.79 80.49 9.68
8795 13.7940 90.88 80.49 9.67
8796 13.7950 85.78 80.50 9.35
8797 13.7960 74.83 80.50 8.71
8798 13.7970 76.80 80.50 8.85
8799 13.7980 92.03 80.51 9.71
8800 13.7990 75.67 80.51 8.83
8801 13.8000 73.98 80.51 8.68
8802 13.8010 79.71 80.52 9.05
8803 13.8020 75.98 80.52 8.87
8804 13.8030 89.01 80.53 9.61
8805 13.8040 85.39 80.53 9.34
8806 13.8050 94.16 80.53 9.79
8807 13.8060 79.01 80.54 8.94
8808 13.8070 80.72 80.54 9.09
8809 13.8080 72.65 80.55 8.65
8810 13.8090 74.68 80.55 8.74
8811 13.8100 75.42 80.56 8.76
8812 13.8110 86.07 80.56 9.37
8813 13.8120 79.70 80.56 9.09
8814 13.8130 84.11 80.57 9.32
8815 13.8140 88.72 80.57 9.53
8816 13.8150 76.98 80.58 8.89
8817 13.8160 88.68 80.58 9.50
8818 13.8170 74.95 80.59 8.79
8819 13.8180 72.10 80.59 8.63
8820 13.8190 85.54 80.60 9.37
8821 13.8200 92.02 80.60 9.67
8822 13.8210 92.41 80.60 9.71
8823 13.8220 90.12 80.61 9.62
8824 13.8230 93.06 80.61 9.79
8825 13.8240 86.87 80.62 9.43
8826 13.8250 103.64 80.62 10.27
8827 13.8260 91.70 80.63 9.65
8828 13.8270 92.47 80.63 9.73
8829 13.8280 77.47 80.64 8.91
8830 13.8290 84.35 80.65 9.29
8831 13.8300 93.36 80.65 9.69
8832 13.8310 93.98 80.66 9.77
8833 13.8320 96.65 80.66 9.96
8834 13.8330 83.04 80.67 9.27
8835 13.8340 95.33 80.67 9.89
8836 13.8350 79.80 80.68 9.02
8837 13.8360 99.84 80.68 10.06
8838 13.8370 84.31 80.69 9.29
8839 13.8380 85.97 80.70 9.39
8840 13.8390 76.65 80.70 8.88
8841 13.8400 61.39 80.71 7.91
8842 13.8410 79.66 80.72 9.05
8843 13.8420 83.12 80.72 9.25
8844 13.8430 75.58 80.73 8.87
8845 13.8440 96.05 80.74 9.90
8846 13.8450 76.73 80.74 8.85
8847 13.8460 89.59 80.75 9.48
8848 13.8470 74.96 80.76 8.76
8849 13.8480 100.04 80.77 10.13
8850 13.8490 73.18 80.77 8.66
8851 13.8500 84.75 80.78 9.28
8852 13.8510 89.88 80.79 9.56
8853 13.8520 80.70 80.80 9.14
8854 13.8530 86.74 80.81 9.52
8855 13.8540 72.51 80.82 8.56
8856 13.8550 64.48 80.83 8.08
8857 13.8560 99.24 80.84 9.99
8858 13.8570 94.11 80.85 9.80
8859 13.8580 90.38 80.86 9.60
8860 13.8590 97.72 80.87 9.97
8861 13.8600 87.52 80.88 9.43
8862 13.8610 84.12 80.89 9.26
8863 13.8620 84.28 80.90 9.34
8864 13.8630 85.34 80.91 9.43
8865 13.8640 82.94 80.93 9.19
8866 13.8650 79.84 80.94 9.03
8867 13.8660 85.82 80.95 9.32
8868 13.8670 94.07 80.97 9.83
8869 13.8680 98.18 80.98 10.04
8870 13.8690 70.30 81.00 8.51
8871 13.8700 92.08 81.01 9.67
8872 13.8710 86.88 81.03 9.41
8873 13.8720 80.37 81.05 9.11
8874 13.8730 76.51 81.07 8.87
8875 13.8740 93.43 81.09 9.76
8876 13.8750 93.12 81.11 9.74
8877 13.8760 86.10 81.13 9.32
8878 13.8770 77.09 81.15 8.91
8879 13.8780 76.04 81.18 8.82
8880 13.8790 85.12 81.20 9.37
8881 13.8800 90.62 81.23 9.59
8882 13.8810 78.66 81.26 8.96
8883 13.8820 84.29 81.29 9.34
8884 13.8830 86.92 81.32 9.51
8885 13.8840 83.17 81.36 9.22
8886 13.8850 78.44 81.39 8.93
8887 13.8860 88.28 81.43 9.45
8888 13.8870 77.60 81.48 8.93
8889 13.8880 93.75 81.52 9.80
8890 13.8890 71.95 81.57 8.58
8891 13.8900 87.23 81.62 9.41
8892 13.8910 91.30 81.68 9.64
8893 13.8920 72.18 81.75 8.63
8894 13.8930 70.04 81.81 8.51
8895 13.8940 99.78 81.89 10.09
8896 13.8950 88.36 81.97 9.47
8897 13.8960 74.81 82.06 8.69
8898 13.8970 85.64 82.16 9.35
8899 13.8980 91.61 82.28 9.67
8900 13.8990 79.97 82.40 9.05
8901 13.9000 92.17 82.54 9.69
8902 13.9010 89.20 82.69 9.56
8903 13.9020 85.45 82.87 9.39
8904 13.9030 93.56 83.07 9.85
8905 13.9040 96.88 83.29 9.94
8906 13.9050 106.79 83.55 10.36
8907 13.9060 96.62 83.85 9.90
8908 13.9070 86.29 84.20 9.37
8909 13.9080 70.48 84.61 8.48
8910 13.9090 76.03 85.09 8.83
8911 13.9100 96.77 85.67 9.90
8912 13.9110 97.82 86.37 10.02
8913 13.9120 91.73 87.22 9.75
8914 13.9130 89.89 88.28 9.67
8915 13.9140 94.86 89.62 9.86
8916 13.9150 100.15 91.40 10.10
8917 13.9160 114.79 93.83 10.80
8918 13.9170 106.09 97.31 10.42
8919 13.9180 110.08 102.48 10.60
8920 13.9190 109.25 110.18 10.55
8921 13.9200 117.41 121.47 10.90
8922 13.9210 133.33 137.21 11.65
8923 13.9220 144.92 157.53 12.17
8924 13.9230 159.87 180.30 12.87
8925 13.9240 185.96 199.20 13.74
8926 13.9250 196.96 205.16 14.17
8927 13.9260 202.54 195.01 14.28
8928 13.9270 173.40 174.76 13.28
8929 13.9280 169.48 152.57 13.14
8930 13.9290 140.07 133.42 11.94
8931 13.9300 111.00 118.77 10.56
8932 13.9310 111.70 108.38 10.63
8933 13.9320 96.22 101.29 9.96
8934 13.9330 93.81 96.55 9.85
8935 13.9340 110.02 93.32 10.63
8936 13.9350 87.68 91.04 9.46
8937 13.9360 102.67 89.38 10.22
8938 13.9370 84.02 88.10 9.31
8939 13.9380 79.99 87.10 9.07
8940 13.9390 83.92 86.29 9.24
8941 13.9400 90.30 85.62 9.55
8942 13.9410 91.69 85.07 9.64
8943 13.9420 91.80 84.61 9.74
8944 13.9430 97.45 84.22 10.04
8945 13.9440 81.77 83.89 9.11
8946 13.9450 83.85 83.61 9.23
8947 13.9460 69.77 83.36 8.40
8948 13.9470 89.97 83.15 9.60
8949 13.9480 94.40 82.96 9.79
8950 13.9490 102.49 82.80 10.24
8951 13.9500 103.12 82.65 10.21
8952 13.9510 88.09 82.52 9.48
8953 13.9520 103.73 82.41 10.32
8954 13.9530 87.40 82.30 9.51
8955 13.9540 86.64 82.21 9.41
8956 13.9550 118.32 82.13 10.96
8957 13.9560 87.28 82.05 9.41
8958 13.9570 84.36 81.98 9.27
8959 13.9580 96.33 81.92 9.93
8960 13.9590 97.53 81.87 10.02
8961 13.9600 82.75 81.81 9.18
8962 13.9610 86.64 81.77 9.43
8963 13.9620 95.93 81.72 9.96
8964 13.9630 64.94 81.68 8.22
8965 13.9640 67.34 81.65 8.30
8966 13.9650 93.63 81.61 9.74
8967 13.9660 89.71 81.58 9.52
8968 13.9670 82.10 81.55 9.15
8969 13.9680 78.34 81.53 8.98
8970 13.9690 98.24 81.50 10.04
8971 13.9700 104.04 81.48 10.26
8972 13.9710 95.63 81.46 9.90
8973 13.9720 89.83 81.44 9.61
8974 13.9730 80.99 81.42 9.16
8975 13.9740 98.86 81.41 10.05
8976 13.9750 84.79 81.39 9.27
8977 13.9760 80.52 81.38 9.05
8978 13.9770 96.25 81.36 9.94
8979 13.9780 102.13 81.35 10.24
8980 13.9790 90.66 81.34 9.63
8981 13.9800 76.32 81.33 8.80
8982 13.9810 93.23 81.32 9.77
8983 13.9820 78.93 81.31 9.04
8984 13.9830 86.65 81.30 9.49
8985 13.9840 80.24 81.29 9.10
8986 13.9850 100.30 81.28 10.10
8987 13.9860 96.29 81.27 9.91
8988 13.9870 77.23 81.27 8.91
8989 13.9880 87.51 81.26 9.47
8990 13.9890 99.04 81.25 10.07
8991 13.9900 91.84 81.25 9.67
8992 13.9910 78.09 81.24 8.93
8993 13.9920 84.42 81.24 9.38
8994 13.9930 90.33 81.23 9.70
8995 13.9940 115.45 81.23 10.86
8996 13.9950 86.70 81.23 9.39
8997 13.9960 78.87 81.22 8.97
8998 13.9970 87.46 81.22 9.46
8999 13.9980 82.16 81.22 9.17
9000 13.9990 75.92 81.21 8.80
9001 14.0000 82.74 81.21 9.19
9002 14.0010 82.12 81.21 9.14
9003 14.0020 87.34 81.21 9.50
9004 14.0030 84.54 81.21 9.37
9005 14.0040 90.90 81.20 9.67
9006 14.0050 80.90 81.20 9.08
9007 14.0060 97.04 81.20 9.91
9008 14.0070 104.24 81.20 10.35
9009 14.0080 95.96 81.20 9.95
9010 14.0090 86.18 81.20 9.40
9011 14.0100 85.79 81.23 9.37
9012 14.0110 93.47 81.27 9.77
9013 14.0120 92.43 81.31 9.80
9014 14.0130 85.67 81.31 9.43
9015 14.0140 72.50 81.31 8.60
9016 14.0150 90.33 81.31 9.60
9017 14.0160 86.22 81.31 9.37
9018 14.0170 93.95 81.31 9.86
9019 14.0180 79.64 81.31 9.09
9020 14.0190 99.56 81.32 10.10
9021 14.0200 80.59 81.32 9.09
9022 14.0210 85.70 81.32 9.36
9023 14.0220 85.42 81.32 9.41
9024 14.0230 95.40 81.32 9.94
9025 14.0240 86.93 81.32 9.43
9026 14.0250 90.31 81.33 9.59
9027 14.0260 79.04 81.33 8.95
9028 14.0270 79.18 81.33 9.00
9029 14.0280 91.08 81.33 9.67
9030 14.0290 84.78 81.33 9.30
9031 14.0300 82.70 81.34 9.15
9032 14.0310 80.41 81.34 9.05
9033 14.0320 91.80 81.34 9.73
9034 14.0330 86.54 81.34 9.49
9035 14.0340 79.53 81.35 9.04
9036 14.0350 80.41 81.35 9.04
9037 14.0360 94.30 81.35 9.82
9038 14.0370 86.39 81.36 9.42
9039 14.0380 89.19 81.36 9.57
9040 14.0390 88.26 81.36 9.47
9041 14.0400 96.97 81.36 9.92
9042 14.0410 82.95 81.37 9.21
9043 14.0420 97.54 81.37 10.09
9044 14.0430 81.83 81.37 9.24
9045 14.0440 79.03 81.38 9.03
9046 14.0450 71.67 81.38 8.54
9047 14.0460 86.64 81.38 9.36
9048 14.0470 88.21 81.39 9.49
9049 14.0480 85.29 81.39 9.35
9050 14.0490 103.10 81.40 10.26
9051 14.0500 85.04 81.40 9.30
9052 14.0510 82.96 81.40 9.24
9053 14.0520 80.82 81.41 9.13
9054 14.0530 94.70 81.41 9.89
9055 14.0540 97.67 81.42 9.95
9056 14.0550 81.57 81.42 9.08
9057 14.0560 77.66 81.42 8.84
9058 14.0570 71.48 81.43 8.56
9059 14.0580 79.04 81.43 9.03
9060 14.0590 93.77 81.44 9.84
9061 14.0600 102.97 81.44 10.26
9062 14.0610 74.85 81.44 8.72
9063 14.0620 81.00 81.45 9.17
9064 14.0630 100.01 81.45 10.16
9065 14.0640 83.16 81.46 9.20
9066 14.0650 88.06 81.46 9.41
9067 14.0660 85.82 81.47 9.31
9068 14.0670 82.48 81.47 9.21
9069 14.0680 79.86 81.48 9.06
9070 14.0690 93.75 81.48 9.76
9071 14.0700 89.39 81.49 9.53
9072 14.0710 88.14 81.49 9.47
9073 14.0720 91.99 81.50 9.77
9074 14.0730 94.27 81.50 9.82
9075 14.0740 89.98 81.51 9.55
9076 14.0750 79.41 81.51 8.97
9077 14.0760 87.56 81.52 9.40
9078 14.0770 86.11 81.53 9.34
9079 14.0780 85.73 81.53 9.37
9080 14.0790 87.95 81.54 9.45
9081 14.0800 82.27 81.70 9.12
9082 14.0810 85.04 81.71 9.27
9083 14.0820 88.61 82.01 9.54
9084 14.0830 79.36 82.02 9.08
9085 14.0840 94.43 82.04 9.85
9086 14.0850 88.14 82.05 9.46
9087 14.0860 95.41 82.06 9.85
9088 14.0870 97.89 82.07 9.98
9089 14.0880 103.69 82.08 10.29
9090 14.0890 92.45 82.09 9.65
9091 14.0900 91.04 82.10 9.59
9092 14.0910 86.82 82.11 9.42
9093 14.0920 89.44 82.13 9.60
9094 14.0930 81.81 82.14 9.22
9095 14.0940 82.78 82.15 9.19
9096 14.0950 110.03 82.16 10.54
9097 14.0960 89.97 82.18 9.51
9098 14.0970 104.83 82.19 10.30
9099 14.0980 93.18 82.20 9.73
9100 14.0990 95.85 82.22 9.87
9101 14.1000 98.32 82.23 9.99
9102 14.1010 81.20 82.24 9.09
9103 14.1020 79.14 82.26 9.05
9104 14.1030 82.14 82.27 9.23
9105 14.1040 88.55 82.29 9.51
9106 14.1050 84.28 82.30 9.22
9107 14.1060 95.05 82.32 9.76
9108 14.1070 87.50 82.33 9.43
9109 14.1080 86.53 82.35 9.43
9110 14.1090 96.15 82.37 9.92
9111 14.1100 88.03 82.38 9.43
9112 14.1110 86.49 82.40 9.34
9113 14.1120 99.22 82.42 10.11
9114 14.1130 88.42 82.43 9.57
9115 14.1140 87.84 82.45 9.44
9116 14.1150 86.48 82.47 9.31
9117 14.1160 102.68 82.49 10.22
9118 14.1170 98.57 82.51 10.05
9119 14.1180 89.45 82.53 9.56
9120 14.1190 90.81 82.55 9.63
9121 14.1200 78.08 82.57 8.88
9122 14.1210 89.88 82.59 9.54
9123 14.1220 86.29 82.61 9.39
9124 14.1230 72.36 82.63 8.66
9125 14.1240 93.24 82.65 9.73
9126 14.1250 87.96 82.67 9.45
9127 14.1260 91.97 82.69 9.63
9128 14.1270 93.41 82.72 9.74
9129 14.1280 77.78 82.74 8.92
9130 14.1290 90.33 82.77 9.58
9131 14.1300 101.46 82.79 10.07
9132 14.1310 93.08 82.82 9.70
9133 14.1320 78.96 82.84 9.01
9134 14.1330 82.26 82.85 9.25
9135 14.1340 91.03 82.88 9.66
9136 14.1350 89.68 82.90 9.57
9137 14.1360 90.99 82.93 9.59
9138 14.1370 96.34 82.96 9.91
9139 14.1380 91.67 82.99 9.67
9140 14.1390 80.48 83.02 9.04
9141 14.1400 85.09 83.05 9.29
9142 14.1410 89.31 83.09 9.51
9143 14.1420 96.49 83.12 9.98
9144 14.1430 81.05 83.16 9.17
9145 14.1440 91.90 83.19 9.66
9146 14.1450 80.40 83.23 9.02
9147 14.1460 102.04 83.27 10.16
9148 14.1470 93.06 83.31 9.72
9149 14.1480 76.90 83.35 8.86
9150 14.1490 73.13 83.39 8.65
9151 14.1500 83.90 83.44 9.22
9152 14.1510 93.89 83.48 9.75
9153 14.1520 94.89 83.53 9.86
9154 14.1530 88.92 83.58 9.53
9155 14.1540 88.66 83.63 9.49
9156 14.1550 94.94 83.68 9.79
9157 14.1560 115.75 83.73 10.79
9158 14.1570 86.81 83.79 9.41
9159 14.1580 89.88 83.84 9.63
9160 14.1590 81.83 83.90 9.17
9161 14.1600 98.94 83.97 10.07
9162 14.1610 86.06 84.03 9.30
9163 14.1620 78.27 84.10 8.98
9164 14.1630 84.40 84.17 9.34
9165 14.1640 74.24 84.24 8.69
9166 14.1650 99.73 84.32 10.01
9167 14.1660 92.74 84.40 9.68
9168 14.1670 93.26 84.48 9.73
9169 14.1680 79.46 84.57 8.99
9170 14.1690 77.52 84.66 8.89
9171 14.1700 102.77 84.76 10.21
9172 14.1710 109.63 84.86 10.55
9173 14.1720 91.57 84.96 9.68
9174 14.1730 93.86 85.07 9.86
9175 14.1740 97.49 85.19 9.96
9176 14.1750 91.34 85.31 9.61
9177 14.1760 84.96 85.45 9.28
9178 14.1770 80.69 85.58 9.06
9179 14.1780 85.61 85.73 9.34
9180 14.1790 91.48 85.89 9.66
9181 14.1800 83.43 86.05 9.18
9182 14.1810 87.12 86.23 9.39
9183 14.1820 90.34 86.42 9.65
9184 14.1830 107.17 86.62 10.57
9185 14.1840 101.98 86.83 10.24
9186 14.1850 81.15 87.07 9.10
9187 14.1860 97.57 87.31 9.95
9188 14.1870 96.26 87.58 9.92
9189 14.1880 77.49 87.87 8.89
9190 14.1890 96.71 88.19 9.91
9191 14.1900 85.70 88.53 9.31
9192 14.1910 93.72 88.91 9.75
9193 14.1920 90.45 89.32 9.68
9194 14.1930 96.64 89.76 9.98
9195 14.1940 84.31 90.26 9.30
9196 14.1950 102.01 90.81 10.21
9197 14.1960 89.85 91.42 9.57
9198 14.1970 93.09 92.10 9.74
9199 14.1980 99.81 92.86 10.12
9200 14.1990 93.96 93.72 9.80
9201 14.2000 100.79 94.69 10.13
9202 14.2010 101.38 95.80 10.12
9203 14.2020 102.00 97.07 10.24
9204 14.2030 117.40 98.55 11.01
9205 14.2040 105.81 100.26 10.36
9206 14.2050 107.80 102.28 10.47
9207 14.2060 110.16 104.68 10.58
9208 14.2070 126.32 107.56 11.41
9209 14.2080 102.07 111.07 10.30
9210 14.2090 114.20 115.41 10.81
9211 14.2100 130.51 120.92 11.48
9212 14.2110 141.33 128.12 11.95
9213 14.2120 166.26 137.92 13.08
9214 14.2130 167.83 151.77 13.15
9215 14.2140 189.23 171.80 13.84
9216 14.2150 210.46 201.07 14.60
9217 14.2160 271.35 243.03 16.58
9218 14.2170 326.55 300.67 18.20
9219 14.2180 395.84 374.01 20.14
9220 14.2190 489.46 455.49 22.36
9221 14.2200 599.78 528.76 24.66
9222 14.2210 663.92 573.62 25.97
9223 14.2220 597.58 571.52 24.78
9224 14.2230 542.34 517.84 23.60
9225 14.2240 462.23 434.44 21.70
9226 14.2250 365.54 349.94 19.29
9227 14.2260 289.73 279.84 17.08
9228 14.2270 254.88 227.35 16.08
9229 14.2280 197.28 190.30 14.23
9230 14.2290 191.71 165.01 13.96
9231 14.2300 180.75 147.93 13.50
9232 14.2310 152.24 136.17 12.45
9233 14.2320 136.75 127.81 11.87
9234 14.2330 144.97 121.63 12.31
9235 14.2340 127.52 116.90 11.38
9236 14.2350 106.49 113.18 10.40
9237 14.2360 115.51 110.22 10.80
9238 14.2370 112.92 107.83 10.71
9239 14.2380 101.36 105.90 10.21
9240 14.2390 94.73 104.32 9.83
9241 14.2400 101.40 103.04 10.12
9242 14.2410 102.95 101.99 10.22
9243 14.2420 102.58 101.15 10.30
9244 14.2430 112.89 100.48 10.76
9245 14.2440 91.47 99.95 9.67
9246 14.2450 91.15 99.56 9.60
9247 14.2460 97.54 99.28 9.91
9248 14.2470 93.49 99.10 9.76
9249 14.2480 85.15 99.02 9.34
9250 14.2490 93.50 99.02 9.75
9251 14.2500 96.62 99.11 9.90
9252 14.2510 88.68 99.28 9.47
9253 14.2520 106.17 99.52 10.43
9254 14.2530 108.20 99.85 10.53
9255 14.2540 97.00 100.26 9.92
9256 14.2550 104.16 100.75 10.24
9257 14.2560 89.39 101.32 9.50
9258 14.2570 104.41 101.98 10.32
9259 14.2580 91.86 102.74 9.74
9260 14.2590 99.45 103.61 10.05
9261 14.2600 107.20 104.58 10.44
9262 14.2610 106.10 105.68 10.37
9263 14.2620 127.91 106.92 11.44
9264 14.2630 88.15 108.31 9.52
9265 14.2640 96.18 109.88 9.88
9266 14.2650 101.43 111.64 10.11
9267 14.2660 127.81 113.63 11.33
9268 14.2670 107.03 115.87 10.41
9269 14.2680 107.09 118.41 10.49
9270 14.2690 119.29 121.31 11.03
9271 14.2700 111.00 124.61 10.60
9272 14.2710 132.22 128.39 11.58
9273 14.2720 123.66 132.75 11.29
9274 14.2730 141.01 137.80 12.04
9275 14.2740 157.30 143.71 12.63
9276 14.2750 178.24 150.64 13.36
9277 14.2760 163.87 158.86 12.82
9278 14.2770 179.83 168.69 13.46
9279 14.2780 174.77 180.57 13.26
9280 14.2790 186.50 195.14 13.73
9281 14.2800 236.11 213.27 15.40
9282 14.2810 241.22 236.46 15.62
9283 14.2820 290.33 267.01 17.26
9284 14.2830 362.39 308.88 19.40
9285 14.2840 450.38 368.52 21.50
9286 14.2850 510.32 455.46 22.74
9287 14.2860 613.07 582.81 24.89
9288 14.2870 786.09 765.53 28.20
9289 14.2880 1101.54 1016.03 33.57
9290 14.2890 1337.89 1331.70 36.83
9291 14.2900 1601.96 1677.19 40.30
9292 14.2910 2030.35 1969.43 45.43
9293 14.2920 2173.45 2110.29 47.62
9294 14.2930 2204.77 2033.64 47.84
9295 14.2940 1858.93 1759.59 43.76
9296 14.2950 1433.71 1402.33 38.17
9297 14.2960 1104.00 1069.00 33.40
9298 14.2970 866.45 802.69 29.71
9299 14.2980 700.73 607.58 26.64
9300 14.2990 555.13 471.76 23.72
9301 14.3000 416.42 379.17 20.52
9302 14.3010 377.69 316.15 19.49
9303 14.3020 324.51 272.12 18.20
9304 14.3030 281.58 240.20 17.01
9305 14.3040 261.84 216.06 16.28
9306 14.3050 225.44 197.18 15.13
9307 14.3060 186.79 182.07 13.73
9308 14.3070 165.67 169.73 13.01
9309 14.3080 155.10 159.53 12.60
9310 14.3090 150.43 151.00 12.37
9311 14.3100 145.07 143.79 12.06
9312 14.3110 127.30 137.66 11.34
9313 14.3120 124.66 132.38 11.29
9314 14.3130 116.71 127.84 10.95
9315 14.3140 129.32 123.87 11.46
9316 14.3150 117.38 120.40 10.88
9317 14.3160 119.51 117.35 11.02
9318 14.3170 113.00 114.64 10.71
9319 14.3180 112.81 112.24 10.68
9320 14.3190 116.84 110.09 10.86
9321 14.3200 116.53 108.17 10.85
9322 14.3210 101.72 106.44 10.15
9323 14.3220 98.51 104.88 10.03
9324 14.3230 99.82 103.46 10.14
9325 14.3240 88.21 102.17 9.50
9326 14.3250 87.14 101.00 9.40
9327 14.3260 99.66 99.92 10.03
9328 14.3270 103.24 98.94 10.23
9329 14.3280 97.99 98.04 9.96
9330 14.3290 98.45 97.21 10.02
9331 14.3300 110.42 96.44 10.55
9332 14.3310 98.06 95.73 9.99
9333 14.3320 95.57 95.07 9.96
9334 14.3330 92.74 94.46 9.81
9335 14.3340 87.37 93.89 9.43
9336 14.3350 93.48 93.37 9.69
9337 14.3360 90.14 92.87 9.52
9338 14.3370 78.94 92.41 8.94
9339 14.3380 91.81 91.98 9.66
9340 14.3390 69.82 91.57 8.42
9341 14.3400 83.66 91.19 9.20
9342 14.3410 89.43 90.84 9.52
9343 14.3420 97.91 90.50 10.03
9344 14.3430 95.08 90.19 9.90
9345 14.3440 91.46 89.89 9.64
9346 14.3450 93.41 89.61 9.73
9347 14.3460 74.45 89.34 8.68
9348 14.3470 114.60 89.09 10.76
9349 14.3480 93.72 88.85 9.79
9350 14.3490 89.02 88.62 9.49
9351 14.3500 95.19 88.41 9.82
9352 14.3510 87.23 88.21 9.39
9353 14.3520 103.99 88.01 10.32
9354 14.3530 96.10 87.83 9.91
9355 14.3540 95.39 87.65 9.85
9356 14.3550 95.81 87.49 9.87
9357 14.3560 99.30 87.33 10.01
9358 14.3570 82.29 87.18 9.19
9359 14.3580 96.16 87.03 9.91
9360 14.3590 100.29 86.89 10.11
9361 14.3600 91.18 86.76 9.56
9362 14.3610 84.54 86.64 9.26
9363 14.3620 81.20 86.51 9.11
9364 14.3630 79.01 86.40 9.00
9365 14.3640 99.10 86.29 10.05
9366 14.3650 89.67 86.18 9.50
9367 14.3660 100.23 86.08 10.05
9368 14.3670 81.25 85.98 9.08
9369 14.3680 90.46 85.89 9.62
9370 14.3690 92.59 85.80 9.72
9371 14.3700 89.07 85.71 9.51
9372 14.3710 94.53 85.63 9.77
9373 14.3720 97.53 85.55 10.00
9374 14.3730 83.42 85.47 9.25
9375 14.3740 68.26 85.39 8.34
9376 14.3750 98.24 85.32 9.96
9377 14.3760 103.57 85.25 10.19
9378 14.3770 91.16 85.19 9.61
9379 14.3780 90.81 85.12 9.60
9380 14.3790 86.12 85.06 9.37
9381 14.3800 101.17 85.00 10.15
9382 14.3810 105.76 84.94 10.37
9383 14.3820 91.71 84.89 9.74
9384 14.3830 83.97 84.83 9.32
9385 14.3840 92.46 84.78 9.72
9386 14.3850 85.18 84.73 9.25
9387 14.3860 82.52 84.68 9.12
9388 14.3870 95.32 84.64 9.81
9389 14.3880 97.12 84.59 9.91
9390 14.3890 87.64 84.55 9.42
9391 14.3900 95.95 84.50 9.82
9392 14.3910 100.53 84.46 10.09
9393 14.3920 79.68 84.42 9.06
9394 14.3930 100.19 84.38 10.17
9395 14.3940 82.65 84.35 9.16
9396 14.3950 96.65 84.31 9.92
9397 14.3960 84.04 84.28 9.20
9398 14.3970 93.20 84.24 9.73
9399 14.3980 83.94 84.21 9.26
9400 14.3990 87.14 84.18 9.40
9401 14.4000 85.98 84.14 9.30
9402 14.4010 101.57 84.11 10.09
9403 14.4020 84.01 84.08 9.24
9404 14.4030 90.98 84.06 9.68
9405 14.4040 79.66 84.03 9.03
9406 14.4050 75.49 84.00 8.76
9407 14.4060 99.02 83.98 10.02
9408 14.4070 80.76 83.95 9.08
9409 14.4080 86.53 83.93 9.41
9410 14.4090 98.44 83.90 10.00
9411 14.4100 86.82 83.88 9.33
9412 14.4110 76.25 83.86 8.76
9413 14.4120 99.90 83.83 10.08
9414 14.4130 88.31 83.81 9.52
9415 14.4140 97.58 83.79 9.93
9416 14.4150 98.87 83.77 9.98
9417 14.4160 98.87 83.75 10.01
9418 14.4170 95.07 83.73 9.82
9419 14.4180 87.06 83.71 9.43
9420 14.4190 95.40 83.70 9.86
9421 14.4200 80.68 83.68 9.03
9422 14.4210 92.12 83.66 9.67
9423 14.4220 97.56 83.65 9.97
9424 14.4230 94.07 83.63 9.82
9425 14.4240 89.66 83.61 9.55
9426 14.4250 91.48 83.60 9.61
9427 14.4260 80.74 83.58 8.98
9428 14.4270 97.34 83.57 9.92
9429 14.4280 79.01 83.55 8.97
9430 14.4290 92.70 83.54 9.74
9431 14.4300 97.48 83.53 9.95
9432 14.4310 81.55 83.48 9.09
9433 14.4320 93.53 83.47 9.77
9434 14.4330 89.94 83.42 9.65
9435 14.4340 98.09 83.37 9.97
9436 14.4350 89.32 83.36 9.48
9437 14.4360 84.35 83.35 9.18
9438 14.4370 84.24 83.34 9.26
9439 14.4380 72.17 83.33 8.60
9440 14.4390 93.38 83.32 9.71
9441 14.4400 84.50 83.31 9.25
9442 14.4410 85.27 83.30 9.32
9443 14.4420 98.44 83.29 10.05
9444 14.4430 96.20 83.28 9.96
9445 14.4440 80.15 83.27 9.03
9446 14.4450 85.47 83.26 9.31
9447 14.4460 90.70 83.26 9.54
9448 14.4470 100.41 83.25 10.07
9449 14.4480 87.18 83.24 9.43
9450 14.4490 89.20 83.23 9.48
9451 14.4500 84.10 83.23 9.23
9452 14.4510 76.61 83.22 8.81
9453 14.4520 95.70 83.21 9.91
9454 14.4530 89.91 83.21 9.67
9455 14.4540 89.40 83.20 9.59
9456 14.4550 64.97 83.19 8.12
9457 14.4560 78.86 83.19 8.93
9458 14.4570 93.41 83.18 9.74
9459 14.4580 83.38 83.18 9.21
9460 14.4590 96.80 83.17 9.89
9461 14.4600 78.94 83.17 8.92
9462 14.4610 88.81 83.16 9.50
9463 14.4620 81.23 83.15 9.12
9464 14.4630 107.31 83.15 10.53
9465 14.4640 91.99 83.15 9.69
9466 14.4650 91.19 83.14 9.61
9467 14.4660 101.71 83.14 10.13
9468 14.4670 101.01 83.13 10.16
9469 14.4680 84.45 83.13 9.28
9470 14.4690 85.51 83.12 9.34
9471 14.4700 98.80 83.12 10.02
9472 14.4710 103.00 83.12 10.25
9473 14.4720 76.54 83.11 8.90
9474 14.4730 100.18 83.11 10.16
9475 14.4740 99.49 83.10 10.04
9476 14.4750 97.44 83.10 9.91
9477 14.4760 94.57 83.10 9.74
9478 14.4770 94.18 83.10 9.78
9479 14.4780 93.24 83.09 9.80
9480 14.4790 92.16 83.09 9.73
9481 14.4800 93.77 83.09 9.77
9482 14.4810 81.85 83.08 9.16
9483 14.4820 87.75 83.08 9.52
9484 14.4830 96.11 83.08 10.00
9485 14.4840 89.19 83.08 9.53
9486 14.4850 86.14 83.07 9.35
9487 14.4860 81.16 83.07 9.04
9488 14.4870 83.08 83.07 9.19
9489 14.4880 89.76 83.07 9.59
9490 14.4890 61.70 83.06 7.91
9491 14.4900 79.29 83.06 8.98
9492 14.4910 93.17 83.06 9.74
9493 14.4920 90.76 83.06 9.72
9494 14.4930 105.07 83.06 10.40
9495 14.4940 90.21 83.06 9.60
9496 14.4950 91.20 83.05 9.63
9497 14.4960 81.73 83.05 9.09
9498 14.4970 89.36 83.05 9.53
9499 14.4980 100.21 83.05 10.08
9500 14.4990 98.02 83.05 9.97
9501 14.5000 100.26 83.05 10.01
9502 14.5010 92.90 83.05 9.67
9503 14.5020 99.20 83.04 10.08
9504 14.5030 95.97 82.89 9.99
9505 14.5040 88.02 82.89 9.53
9506 14.5050 85.81 82.60 9.38
9507 14.5060 86.37 82.60 9.40
9508 14.5070 84.55 82.60 9.32
9509 14.5080 101.21 82.60 10.14
9510 14.5090 99.80 82.61 10.09
9511 14.5100 89.36 82.61 9.47
9512 14.5110 87.02 82.61 9.40
9513 14.5120 111.98 82.62 10.71
9514 14.5130 90.23 82.62 9.64
9515 14.5140 93.45 82.62 9.77
9516 14.5150 100.42 82.63 10.10
9517 14.5160 85.04 82.63 9.30
9518 14.5170 96.72 82.63 9.96
9519 14.5180 78.15 82.64 8.95
9520 14.5190 90.47 82.64 9.60
9521 14.5200 90.07 82.64 9.57
9522 14.5210 84.29 82.65 9.26
9523 14.5220 100.51 82.65 10.19
9524 14.5230 109.95 82.65 10.63
9525 14.5240 88.82 82.66 9.52
9526 14.5250 87.56 82.66 9.42
9527 14.5260 89.79 82.66 9.50
9528 14.5270 102.43 82.67 10.24
9529 14.5280 78.23 82.67 8.96
9530 14.5290 88.60 82.67 9.56
9531 14.5300 88.70 82.68 9.50
9532 14.5310 92.36 82.68 9.70
9533 14.5320 82.60 82.68 9.21
9534 14.5330 102.14 82.69 10.26
9535 14.5340 76.90 82.69 8.86
9536 14.5350 91.06 82.69 9.58
9537 14.5360 89.41 82.70 9.53
9538 14.5370 86.15 82.70 9.40
9539 14.5380 96.23 82.70 9.92
9540 14.5390 105.10 82.71 10.35
9541 14.5400 95.51 82.71 9.82
9542 14.5410 83.89 82.71 9.26
9543 14.5420 91.57 82.72 9.68
9544 14.5430 85.66 82.72 9.37
9545 14.5440 80.47 82.72 9.02
9546 14.5450 81.80 82.73 9.14
9547 14.5460 80.55 82.73 9.03
9548 14.5470 99.41 82.73 10.06
9549 14.5480 111.21 82.74 10.67
9550 14.5490 81.25 82.74 9.10
9551 14.5500 82.12 82.74 9.12
9552 14.5510 84.79 82.75 9.28
9553 14.5520 78.54 82.75 9.01
9554 14.5530 86.91 82.75 9.48
9555 14.5540 83.55 82.76 9.28
9556 14.5550 100.44 82.76 10.11
9557 14.5560 68.59 82.76 8.36
9558 14.5570 80.32 82.77 9.08
9559 14.5580 93.85 82.77 9.79
9560 14.5590 92.31 82.77 9.67
9561 14.5600 88.58 82.78 9.43
9562 14.5610 84.13 82.78 9.24
9563 14.5620 85.17 82.78 9.35
9564 14.5630 119.82 82.79 11.13
9565 14.5640 103.51 82.79 10.26
9566 14.5650 87.92 82.79 9.48
9567 14.5660 98.98 82.80 10.03
9568 14.5670 103.32 82.80 10.26
9569 14.5680 109.32 82.80 10.57
9570 14.5690 105.69 82.81 10.39
9571 14.5700 95.98 82.81 9.86
9572 14.5710 98.02 82.81 9.97
9573 14.5720 100.11 82.82 10.10
9574 14.5730 89.23 82.82 9.59
9575 14.5740 95.78 82.82 9.87
9576 14.5750 91.46 82.83 9.62
9577 14.5760 106.90 82.83 10.35
9578 14.5770 103.58 82.83 10.30
9579 14.5780 70.47 82.84 8.52
9580 14.5790 93.87 82.84 9.84
9581 14.5800 101.77 82.84 10.16
9582 14.5810 103.42 82.85 10.26
9583 14.5820 90.12 82.85 9.64
9584 14.5830 109.92 82.85 10.61
9585 14.5840 92.07 82.86 9.68
9586 14.5850 93.47 82.86 9.73
9587 14.5860 103.47 82.86 10.18
9588 14.5870 98.46 82.87 10.02
9589 14.5880 97.88 82.87 9.97
9590 14.5890 94.26 82.87 9.81
9591 14.5900 111.40 82.88 10.63
9592 14.5910 95.70 82.88 9.90
9593 14.5920 102.99 82.88 10.31
9594 14.5930 98.13 82.89 10.09
9595 14.5940 110.11 82.89 10.62
9596 14.5950 92.69 82.89 9.72
9597 14.5960 95.21 82.90 9.82
9598 14.5970 86.43 82.90 9.39
9599 14.5980 85.93 82.90 9.35
9600 14.5990 94.01 82.91 9.81
9601 14.6000 95.03 82.91 9.83
9602 14.6010 79.84 82.91 9.05
9603 14.6020 93.82 82.92 9.86
9604 14.6030 102.69 82.92 10.35
9605 14.6040 109.93 82.92 10.60
9606 14.6050 97.30 82.93 10.01
9607 14.6060 77.34 82.93 8.87
9608 14.6070 93.77 82.93 9.76
9609 14.6080 77.07 82.94 8.85
9610 14.6090 98.14 82.94 9.99
9611 14.6100 104.26 82.94 10.25
9612 14.6110 94.85 82.95 9.81
9613 14.6120 108.39 82.95 10.55
9614 14.6130 76.07 82.95 8.87
9615 14.6140 87.67 82.96 9.48
9616 14.6150 90.52 82.96 9.61
9617 14.6160 87.01 82.96 9.42
9618 14.6170 94.73 82.97 9.87
9619 14.6180 70.71 82.97 8.53
9620 14.6190 93.14 82.97 9.77
9621 14.6200 96.73 82.98 9.87
9622 14.6210 84.22 82.98 9.26
9623 14.6220 80.58 82.98 9.10
9624 14.6230 82.50 82.99 9.24
9625 14.6240 86.42 82.99 9.35
9626 14.6250 82.95 82.99 9.16
9627 14.6260 91.33 83.00 9.64
9628 14.6270 93.17 83.00 9.75
9629 14.6280 96.14 83.00 9.95
9630 14.6290 85.53 83.01 9.38
9631 14.6300 101.14 83.01 10.17
9632 14.6310 105.58 83.01 10.33
9633 14.6320 100.32 83.02 10.14
9634 14.6330 113.17 83.02 10.78
9635 14.6340 94.31 83.02 9.79
9636 14.6350 104.78 83.03 10.30
9637 14.6360 103.68 83.03 10.24
9638 14.6370 97.36 83.03 9.96
9639 14.6380 105.82 83.04 10.43
9640 14.6390 94.39 83.04 9.81
9641 14.6400 89.26 83.04 9.51
9642 14.6410 108.12 83.05 10.49
9643 14.6420 101.95 83.05 10.28
9644 14.6430 101.64 83.05 10.25
9645 14.6440 91.42 83.06 9.65
9646 14.6450 91.05 83.06 9.63
9647 14.6460 98.64 83.06 9.99
9648 14.6470 100.24 83.07 10.13
9649 14.6480 101.33 83.07 10.13
9650 14.6490 81.63 83.07 9.13
9651 14.6500 106.91 83.08 10.36
9652 14.6510 106.14 83.08 10.40
9653 14.6520 85.98 83.08 9.39
9654 14.6530 94.40 83.09 9.90
9655 14.6540 85.72 83.09 9.38
9656 14.6550 85.16 83.09 9.35
9657 14.6560 84.11 83.10 9.21
9658 14.6570 92.57 83.10 9.71
9659 14.6580 94.65 83.10 9.83
9660 14.6590 79.12 83.11 8.96
9661 14.6600 91.83 83.11 9.62
9662 14.6610 85.26 83.11 9.28
9663 14.6620 78.66 83.12 9.01
9664 14.6630 82.35 83.12 9.23
9665 14.6640 89.16 83.12 9.54
9666 14.6650 90.88 83.13 9.61
9667 14.6660 101.71 83.13 10.16
9668 14.6670 93.95 83.13 9.81
9669 14.6680 100.43 83.14 10.12
9670 14.6690 95.97 83.14 9.90
9671 14.6700 92.75 83.14 9.68
9672 14.6710 86.27 83.15 9.37
9673 14.6720 80.60 83.15 9.09
9674 14.6730 88.57 83.15 9.54
9675 14.6740 91.16 83.16 9.61
9676 14.6750 101.17 83.16 10.13
9677 14.6760 91.78 83.16 9.64
9678 14.6770 99.05 83.17 10.08
9679 14.6780 98.68 83.17 10.06
9680 14.6790 101.75 83.17 10.20
9681 14.6800 81.58 83.18 9.11
9682 14.6810 94.15 83.18 9.78
9683 14.6820 114.29 83.18 10.80
9684 14.6830 87.45 83.19 9.47
9685 14.6840 96.08 83.19 9.88
9686 14.6850 85.13 83.19 9.28
9687 14.6860 100.13 83.20 10.05
9688 14.6870 86.41 83.20 9.38
9689 14.6880 86.55 83.20 9.39
9690 14.6890 104.14 83.21 10.30
9691 14.6900 96.64 83.21 9.90
9692 14.6910 74.22 83.21 8.70
9693 14.6920 105.06 83.22 10.39
9694 14.6930 91.27 83.22 9.70
9695 14.6940 87.76 83.22 9.50
9696 14.6950 89.03 83.23 9.50
9697 14.6960 85.31 83.23 9.29
9698 14.6970 85.62 83.23 9.35
9699 14.6980 90.31 83.24 9.56
9700 14.6990 96.92 83.24 9.91
9701 14.7000 92.58 83.24 9.68
9702 14.7010 63.51 83.25 8.04
9703 14.7020 80.48 83.25 9.13
9704 14.7030 107.50 83.25 10.59
9705 14.7040 90.84 83.26 9.63
9706 14.7050 84.40 83.26 9.27
9707 14.7060 108.96 83.26 10.50
9708 14.7070 87.24 83.27 9.42
9709 14.7080 90.08 83.27 9.57
9710 14.7090 89.10 83.27 9.50
9711 14.7100 79.05 83.28 8.93
9712 14.7110 83.80 83.28 9.20
9713 14.7120 89.13 83.28 9.56
9714 14.7130 104.18 83.29 10.40
9715 14.7140 125.28 83.29 11.32
9716 14.7150 110.95 83.29 10.63
9717 14.7160 83.51 83.30 9.22
9718 14.7170 91.00 83.30 9.65
9719 14.7180 81.89 83.30 9.15
9720 14.7190 87.66 83.31 9.45
9721 14.7200 89.06 83.31 9.47
9722 14.7210 79.73 83.31 8.96
9723 14.7220 79.91 83.32 9.07
9724 14.7230 81.34 83.32 9.15
9725 14.7240 86.52 83.32 9.38
9726 14.7250 92.85 83.33 9.71
9727 14.7260 82.90 83.33 9.18
9728 14.7270 98.35 83.33 10.04
9729 14.7280 85.38 83.34 9.39
9730 14.7290 95.30 83.34 9.85
9731 14.7300 112.28 83.35 10.68
9732 14.7310 88.35 83.35 9.49
9733 14.7320 95.86 83.35 9.89
9734 14.7330 82.62 83.36 9.21
9735 14.7340 78.32 83.36 8.92
9736 14.7350 82.45 83.36 9.13
9737 14.7360 94.41 83.37 9.76
9738 14.7370 98.14 83.37 10.03
9739 14.7380 103.67 83.37 10.29
9740 14.7390 93.56 83.38 9.80
9741 14.7400 95.03 83.38 9.81
9742 14.7410 86.19 83.38 9.36
9743 14.7420 87.18 83.39 9.47
9744 14.7430 104.28 83.39 10.39
9745 14.7440 89.83 83.39 9.56
9746 14.7450 86.95 83.40 9.41
9747 14.7460 80.61 83.40 9.02
9748 14.7470 84.61 83.40 9.26
9749 14.7480 85.04 83.41 9.30
9750 14.7490 97.09 83.41 9.93
9751 14.7500 89.66 83.41 9.54
9752 14.7510 89.40 83.42 9.54
9753 14.7520 87.79 83.42 9.53
9754 14.7530 82.34 83.42 9.24
9755 14.7540 96.65 83.43 9.95
9756 14.7550 76.19 83.43 8.80
9757 14.7560 79.27 83.43 8.93
9758 14.7570 97.42 83.44 9.95
9759 14.7580 79.58 83.44 9.01
9760 14.7590 98.55 83.44 10.01
9761 14.7600 90.14 83.45 9.51
9762 14.7610 86.98 83.45 9.44
9763 14.7620 67.18 83.45 8.31
9764 14.7630 88.64 83.46 9.58
9765 14.7640 98.56 83.46 10.02
9766 14.7650 95.43 83.46 9.83
9767 14.7660 60.93 83.47 7.85
9768 14.7670 97.71 83.47 9.99
9769 14.7680 83.67 83.47 9.24
9770 14.7690 91.90 83.48 9.66
9771 14.7700 94.98 83.48 9.80
9772 14.7710 90.35 83.48 9.56
9773 14.7720 100.63 83.49 10.12
9774 14.7730 77.41 83.49 8.92
9775 14.7740 98.96 83.49 10.03
9776 14.7750 85.73 83.50 9.32
9777 14.7760 86.77 83.50 9.37
9778 14.7770 94.27 83.50 9.85
9779 14.7780 92.44 83.51 9.78
9780 14.7790 84.83 83.51 9.31
9781 14.7800 96.09 83.51 9.87
9782 14.7810 92.21 83.52 9.66
9783 14.7820 91.64 83.52 9.70
9784 14.7830 95.46 83.52 9.89
9785 14.7840 97.87 83.53 9.94
9786 14.7850 98.67 83.53 10.00
9787 14.7860 87.01 83.53 9.35
9788 14.7870 79.82 83.54 9.05
9789 14.7880 98.83 83.54 10.07
9790 14.7890 95.15 83.54 9.84
9791 14.7900 91.11 83.55 9.64
9792 14.7910 84.41 83.55 9.22
9793 14.7920 83.93 83.55 9.31
9794 14.7930 100.72 83.56 10.16
9795 14.7940 109.29 83.56 10.50
9796 14.7950 84.47 83.56 9.24
9797 14.7960 87.33 83.57 9.35
9798 14.7970 110.91 83.57 10.57
9799 14.7980 93.52 83.57 9.73
9800 14.7990 85.24 83.58 9.30
9801 14.8000 93.44 83.58 9.73
9802 14.8010 85.79 83.58 9.35
9803 14.8020 95.50 83.59 9.93
9804 14.8030 85.50 83.59 9.44
9805 14.8040 107.80 83.59 10.47
9806 14.8050 92.68 83.60 9.67
9807 14.8060 96.22 83.60 9.84
9808 14.8070 97.87 83.60 9.96
9809 14.8080 102.89 83.61 10.21
9810 14.8090 95.28 83.61 9.81
9811 14.8100 96.56 83.61 9.84
9812 14.8110 95.88 83.62 9.83
9813 14.8120 95.13 83.62 9.88
9814 14.8130 103.89 83.63 10.37
9815 14.8140 103.69 83.63 10.28
9816 14.8150 93.19 83.63 9.73
9817 14.8160 92.44 83.64 9.67
9818 14.8170 100.61 83.64 10.12
9819 14.8180 114.53 83.64 10.80
9820 14.8190 97.99 83.65 9.97
9821 14.8200 80.04 83.65 8.96
9822 14.8210 100.88 83.65 10.06
9823 14.8220 89.94 83.66 9.57
9824 14.8230 89.79 83.66 9.58
9825 14.8240 81.96 83.66 9.13
9826 14.8250 86.99 83.67 9.39
9827 14.8260 87.77 83.67 9.44
9828 14.8270 94.43 83.67 9.81
9829 14.8280 105.18 83.68 10.37
9830 14.8290 90.64 83.68 9.59
9831 14.8300 102.72 83.68 10.16
9832 14.8310 82.05 83.69 9.09
9833 14.8320 80.50 83.69 9.05
9834 14.8330 84.37 83.69 9.28
9835 14.8340 99.31 83.70 10.04
9836 14.8350 86.68 83.70 9.34
9837 14.8360 83.05 83.70 9.15
9838 14.8370 86.98 83.71 9.41
9839 14.8380 69.20 83.71 8.42
9840 14.8390 90.84 83.71 9.61
9841 14.8400 82.29 83.72 9.11
9842 14.8410 100.64 83.72 10.10
9843 14.8420 82.46 83.72 9.21
9844 14.8430 104.29 83.73 10.35
9845 14.8440 89.44 83.73 9.53
9846 14.8450 90.15 83.73 9.52
9847 14.8460 94.99 83.74 9.78
9848 14.8470 95.65 83.74 9.84
9849 14.8480 92.22 83.74 9.67
9850 14.8490 82.59 83.75 9.17
9851 14.8500 84.05 83.75 9.23
9852 14.8510 88.13 83.75 9.49
9853 14.8520 83.73 83.76 9.30
9854 14.8530 89.94 83.76 9.62
9855 14.8540 93.73 83.76 9.74
9856 14.8550 80.70 83.77 9.02
9857 14.8560 107.12 83.77 10.30
9858 14.8570 101.44 83.77 10.13
9859 14.8580 94.26 83.78 9.76
9860 14.8590 101.31 83.78 10.15
9861 14.8600 93.14 83.78 9.68
9862 14.8610 87.76 83.79 9.46
9863 14.8620 92.64 83.79 9.79
9864 14.8630 100.29 83.79 10.15
9865 14.8640 104.13 83.80 10.28
9866 14.8650 80.91 83.80 9.06
9867 14.8660 99.11 83.80 10.03
9868 14.8670 100.79 83.81 10.09
9869 14.8680 103.05 83.81 10.26
9870 14.8690 90.24 83.81 9.56
9871 14.8700 82.60 83.82 9.10
9872 14.8710 96.59 83.82 9.84
9873 14.8720 89.21 83.82 9.55
9874 14.8730 92.44 83.83 9.78
9875 14.8740 93.84 83.83 9.79
9876 14.8750 100.63 83.83 10.13
9877 14.8760 101.52 83.84 10.13
9878 14.8770 107.81 83.84 10.49
9879 14.8780 102.19 83.85 10.23
9880 14.8790 75.97 83.85 8.76
9881 14.8800 87.91 83.85 9.40
9882 14.8810 93.93 83.86 9.74
9883 14.8820 77.41 83.86 8.90
9884 14.8830 97.60 83.86 10.01
9885 14.8840 90.80 83.87 9.62
9886 14.8850 94.22 83.87 9.77
9887 14.8860 79.34 83.87 8.96
9888 14.8870 87.46 83.88 9.46
9889 14.8880 93.99 83.88 9.82
9890 14.8890 90.57 83.88 9.61
9891 14.8900 103.27 83.89 10.23
9892 14.8910 94.40 83.89 9.80
9893 14.8920 95.17 83.89 9.85
9894 14.8930 100.27 83.90 10.13
9895 14.8940 99.31 83.90 10.05
9896 14.8950 77.21 83.90 8.82
9897 14.8960 107.62 83.91 10.40
9898 14.8970 92.75 83.91 9.70
9899 14.8980 87.90 83.91 9.48
9900 14.8990 95.82 83.92 9.88
9901 14.9000 107.59 83.92 10.45
9902 14.9010 104.15 83.92 10.29
9903 14.9020 84.02 83.93 9.30
9904 14.9030 80.52 83.93 9.13
9905 14.9040 87.42 83.93 9.42
9906 14.9050 92.55 83.94 9.65
9907 14.9060 105.58 83.94 10.31
9908 14.9070 100.38 83.94 10.05
9909 14.9080 108.05 83.95 10.49
9910 14.9090 82.50 83.95 9.14
9911 14.9100 89.26 83.95 9.51
9912 14.9110 97.00 83.96 9.91
9913 14.9120 94.37 83.96 9.86
9914 14.9130 100.35 83.96 10.17
9915 14.9140 87.48 83.97 9.48
9916 14.9150 94.37 83.97 9.77
9917 14.9160 80.55 83.97 9.02
9918 14.9170 102.61 83.98 10.22
9919 14.9180 97.78 83.98 9.98
9920 14.9190 93.49 83.98 9.72
9921 14.9200 96.53 83.99 9.83
9922 14.9210 75.19 83.99 8.69
9923 14.9220 95.92 83.99 9.92
9924 14.9230 105.40 84.00 10.45
9925 14.9240 91.27 84.00 9.68
9926 14.9250 74.02 84.00 8.69
9927 14.9260 94.97 84.01 9.84
9928 14.9270 102.92 84.01 10.27
9929 14.9280 88.06 84.01 9.52
9930 14.9290 103.58 84.02 10.24
9931 14.9300 88.49 84.02 9.46
9932 14.9310 87.95 84.02 9.39
9933 14.9320 92.19 84.03 9.71
9934 14.9330 108.01 84.03 10.55
9935 14.9340 117.03 84.03 10.87
9936 14.9350 94.53 84.04 9.80
9937 14.9360 99.53 84.04 10.05
9938 14.9370 83.83 84.04 9.27
9939 14.9380 94.20 84.05 9.85
9940 14.9390 119.23 84.05 11.01
9941 14.9400 94.71 84.06 9.77
9942 14.9410 96.51 84.06 9.92
9943 14.9420 77.11 84.06 8.92
9944 14.9430 91.41 84.07 9.70
9945 14.9440 84.32 84.07 9.26
9946 14.9450 97.75 84.07 9.95
9947 14.9460 99.93 84.08 10.03
9948 14.9470 89.78 84.08 9.56
9949 14.9480 95.37 84.08 9.87
9950 14.9490 90.33 84.09 9.61
9951 14.9500 101.66 84.09 10.17
9952 14.9510 100.72 84.09 10.14
9953 14.9520 92.33 84.10 9.80
9954 14.9530 108.98 84.10 10.61
9955 14.9540 107.18 84.10 10.43
9956 14.9550 94.80 84.11 9.77
9957 14.9560 100.73 84.11 10.06
9958 14.9570 113.72 84.11 10.74
9959 14.9580 102.63 84.12 10.23
9960 14.9590 109.51 84.12 10.53
9961 14.9600 93.10 84.12 9.72
9962 14.9610 85.65 84.13 9.36
9963 14.9620 95.39 84.13 9.91
9964 14.9630 104.19 84.13 10.36
9965 14.9640 104.56 84.14 10.34
9966 14.9650 94.72 84.14 9.83
9967 14.9660 95.62 84.14 9.85
9968 14.9670 108.62 84.15 10.51
9969 14.9680 104.66 84.15 10.36
9970 14.9690 92.12 84.15 9.66
9971 14.9700 117.11 84.16 10.82
9972 14.9710 96.05 84.16 9.84
9973 14.9720 101.75 84.16 10.17
9974 14.9730 84.88 84.17 9.37
9975 14.9740 90.22 84.17 9.58
9976 14.9750 91.03 84.17 9.63
9977 14.9760 94.89 84.18 9.78
9978 14.9770 83.01 84.18 9.23
9979 14.9780 91.27 84.18 9.68
9980 14.9790 93.36 84.19 9.69
9981 14.9800 111.20 84.19 10.57
9982 14.9810 81.96 84.19 9.09
9983 14.9820 84.93 84.20 9.32
9984 14.9830 92.14 84.20 9.73
9985 14.9840 115.59 84.20 10.86
9986 14.9850 99.44 84.21 10.04
9987 14.9860 83.80 84.21 9.23
9988 14.9870 94.68 84.21 9.83
9989 14.9880 102.43 84.22 10.27
9990 14.9890 110.10 84.22 10.57
9991 14.9900 84.44 84.22 9.24
9992 14.9910 76.71 84.23 8.80
9993 14.9920 93.12 84.23 9.75
9994 14.9930 96.38 84.23 9.98
9995 14.9940 106.14 84.24 10.37
9996 14.9950 101.58 84.24 10.12
9997 14.9960 102.62 84.25 10.16
9998 14.9970 91.06 84.25 9.65
9999 14.9980 91.77 84.25 9.70
10000 14.9990 98.20 84.26 10.01
10001 15.0000 90.97 84.26 9.60
10002 15.0010 94.38 84.26 9.81
10003 15.0020 96.75 84.27 10.00
10004 15.0030 113.53 84.27 10.81
10005 15.0040 97.49 84.27 9.94
10006 15.0050 99.07 84.28 10.01
10007 15.0060 90.38 84.28 9.54
10008 15.0070 93.25 84.28 9.73
10009 15.0080 87.87 84.29 9.49
10010 15.0090 101.41 84.29 10.17
10011 15.0100 100.61 84.29 10.10
10012 15.0110 111.99 84.30 10.66
10013 15.0120 93.64 84.30 9.83
10014 15.0130 88.03 84.30 9.56
10015 15.0140 100.66 84.31 10.14
10016 15.0150 109.40 84.31 10.54
10017 15.0160 82.92 84.31 9.16
10018 15.0170 94.36 84.32 9.80
10019 15.0180 113.11 84.32 10.76
10020 15.0190 102.69 84.32 10.15
10021 15.0200 79.79 84.33 8.93
10022 15.0210 97.07 84.33 9.94
10023 15.0220 102.42 84.33 10.28
10024 15.0230 88.98 84.34 9.58
10025 15.0240 95.18 84.34 9.85
10026 15.0250 89.96 84.34 9.57
10027 15.0260 107.67 84.35 10.43
10028 15.0270 100.34 84.35 10.10
10029 15.0280 104.88 84.35 10.36
10030 15.0290 92.27 84.36 9.68
10031 15.0300 92.52 84.36 9.66
10032 15.0310 101.39 84.36 10.12
10033 15.0320 97.91 84.37 10.01
10034 15.0330 92.44 84.37 9.75
10035 15.0340 98.71 84.37 10.06
10036 15.0350 94.22 84.38 9.75
10037 15.0360 87.35 84.38 9.41
10038 15.0370 90.22 84.38 9.61
10039 15.0380 104.18 84.39 10.34
10040 15.0390 88.56 84.39 9.48
10041 15.0400 84.47 84.39 9.21
10042 15.0410 114.05 84.40 10.74
10043 15.0420 80.62 84.40 9.06
10044 15.0430 98.78 84.40 10.05
10045 15.0440 92.72 84.41 9.66
10046 15.0450 119.32 84.41 10.99
10047 15.0460 105.28 84.41 10.30
10048 15.0470 89.09 84.42 9.52
10049 15.0480 91.49 84.42 9.68
10050 15.0490 99.85 84.42 10.07
10051 15.0500 93.09 84.43 9.71
10052 15.0510 95.65 84.43 9.82
10053 15.0520 84.14 84.43 9.27
10054 15.0530 109.60 84.44 10.61
10055 15.0540 99.24 84.44 10.05
10056 15.0550 103.56 84.44 10.17
10057 15.0560 79.31 84.45 8.94
10058 15.0570 90.58 84.45 9.58
10059 15.0580 92.97 84.46 9.76
10060 15.0590 102.98 84.46 10.20
10061 15.0600 87.71 84.46 9.43
10062 15.0610 108.71 84.47 10.51
10063 15.0620 102.79 84.47 10.29
10064 15.0630 84.26 84.47 9.31
10065 15.0640 84.20 84.48 9.25
10066 15.0650 98.11 84.48 9.98
10067 15.0660 86.73 84.48 9.35
10068 15.0670 88.91 84.49 9.48
10069 15.0680 82.42 84.49 9.14
10070 15.0690 97.64 84.49 9.92
10071 15.0700 88.18 84.50 9.43
10072 15.0710 101.77 84.50 10.13
10073 15.0720 111.46 84.50 10.68
10074 15.0730 95.70 84.51 9.96
10075 15.0740 98.08 84.51 9.98
10076 15.0750 95.27 84.51 9.84
10077 15.0760 109.97 84.52 10.53
10078 15.0770 99.34 84.52 10.04
10079 15.0780 112.83 84.52 10.69
10080 15.0790 109.77 84.53 10.53
10081 15.0800 115.09 84.53 10.73
10082 15.0810 109.11 84.53 10.48
10083 15.0820 94.94 84.54 9.89
10084 15.0830 85.65 84.54 9.40
10085 15.0840 97.31 84.54 9.98
10086 15.0850 111.01 84.55 10.63
10087 15.0860 101.67 84.55 10.15
10088 15.0870 108.17 84.55 10.48
10089 15.0880 95.87 84.56 9.93
10090 15.0890 107.79 84.56 10.43
10091 15.0900 104.53 84.56 10.24
10092 15.0910 99.09 84.57 10.00
10093 15.0920 97.84 84.57 9.99
10094 15.0930 95.85 84.57 9.93
10095 15.0940 95.93 84.58 9.85
10096 15.0950 101.25 84.58 10.13
10097 15.0960 107.86 84.58 10.42
10098 15.0970 99.30 84.59 10.05
10099 15.0980 96.69 84.59 9.93
10100 15.0990 99.40 84.59 10.05
10101 15.1000 94.91 84.60 9.79
10102 15.1010 95.83 84.60 9.87
10103 15.1020 92.78 84.60 9.77
10104 15.1030 100.49 84.61 10.16
10105 15.1040 94.11 84.61 9.79
10106 15.1050 102.72 84.61 10.19
10107 15.1060 89.22 84.62 9.49
10108 15.1070 98.39 84.62 9.96
10109 15.1080 94.54 84.62 9.88
10110 15.1090 105.75 84.63 10.39
10111 15.1100 99.89 84.63 10.04
10112 15.1110 91.75 84.63 9.65
10113 15.1120 100.98 84.64 10.16
10114 15.1130 103.19 84.64 10.31
10115 15.1140 78.95 84.64 8.97
10116 15.1150 96.58 84.65 9.86
10117 15.1160 85.79 84.65 9.30
10118 15.1170 100.23 84.65 10.11
10119 15.1180 85.19 84.66 9.34
10120 15.1190 103.35 84.66 10.23
10121 15.1200 90.50 84.67 9.53
10122 15.1210 91.13 84.67 9.62
10123 15.1220 123.03 84.67 11.20
10124 15.1230 99.53 84.68 10.13
10125 15.1240 81.24 84.68 9.12
10126 15.1250 88.36 84.68 9.52
10127 15.1260 103.23 84.69 10.20
10128 15.1270 96.94 84.69 9.92
10129 15.1280 105.78 84.69 10.38
10130 15.1290 99.66 85.21 10.07
10131 15.1300 86.17 85.21 9.27
10132 15.1310 94.72 86.30 9.76
10133 15.1320 99.73 86.32 10.13
10134 15.1330 93.17 86.34 9.81
10135 15.1340 92.85 86.36 9.77
10136 15.1350 116.33 86.37 10.88
10137 15.1360 111.20 86.39 10.64
10138 15.1370 79.56 86.41 9.00
10139 15.1380 94.83 86.43 9.86
10140 15.1390 97.83 86.45 9.97
10141 15.1400 98.99 86.47 9.97
10142 15.1410 99.63 86.49 10.05
10143 15.1420 96.94 86.51 9.96
10144 15.1430 83.18 86.53 9.23
10145 15.1440 84.10 86.55 9.24
10146 15.1450 96.08 86.57 9.86
10147 15.1460 97.97 86.60 9.93
10148 15.1470 101.24 86.62 10.13
10149 15.1480 103.61 86.64 10.29
10150 15.1490 110.54 86.66 10.60
10151 15.1500 101.10 86.68 10.13
10152 15.1510 110.81 86.71 10.57
10153 15.1520 105.83 86.73 10.40
10154 15.1530 105.97 86.75 10.41
10155 15.1540 83.12 86.78 9.17
10156 15.1550 101.75 86.80 10.11
10157 15.1560 93.86 86.82 9.74
10158 15.1570 90.29 86.85 9.58
10159 15.1580 118.17 86.87 11.04
10160 15.1590 121.89 86.90 11.12
10161 15.1600 104.16 86.92 10.25
10162 15.1610 87.78 86.95 9.46
10163 15.1620 93.53 86.98 9.81
10164 15.1630 76.44 87.00 8.88
10165 15.1640 110.64 87.03 10.64
10166 15.1650 103.49 87.06 10.27
10167 15.1660 96.95 87.08 9.89
10168 15.1670 117.77 87.11 10.94
10169 15.1680 95.52 87.14 9.86
10170 15.1690 109.24 87.17 10.54
10171 15.1700 106.38 87.20 10.33
10172 15.1710 105.97 87.23 10.35
10173 15.1720 108.31 87.26 10.53
10174 15.1730 118.99 87.29 11.11
10175 15.1740 83.47 87.32 9.24
10176 15.1750 97.98 87.35 9.98
10177 15.1760 90.20 87.39 9.55
10178 15.1770 103.72 87.42 10.27
10179 15.1780 101.61 87.45 10.16
10180 15.1790 95.83 87.49 9.82
10181 15.1800 90.96 87.52 9.56
10182 15.1810 96.24 87.56 9.85
10183 15.1820 108.02 87.59 10.56
10184 15.1830 95.46 87.63 9.93
10185 15.1840 97.26 87.66 9.98
10186 15.1850 121.50 87.70 11.14
10187 15.1860 100.99 87.74 10.11
10188 15.1870 71.36 87.78 8.52
10189 15.1880 115.40 87.82 10.86
10190 15.1890 85.29 87.86 9.33
10191 15.1900 110.31 87.90 10.53
10192 15.1910 105.06 87.94 10.30
10193 15.1920 105.39 87.98 10.37
10194 15.1930 98.28 88.02 10.06
10195 15.1940 99.63 88.07 10.05
10196 15.1950 110.56 88.11 10.57
10197 15.1960 109.51 88.15 10.52
10198 15.1970 113.38 88.20 10.76
10199 15.1980 105.37 88.25 10.38
10200 15.1990 97.22 88.29 9.90
10201 15.2000 103.15 88.34 10.21
10202 15.2010 103.20 88.39 10.19
10203 15.2020 109.59 88.44 10.60
10204 15.2030 100.68 88.49 10.17
10205 15.2040 98.93 88.55 10.00
10206 15.2050 111.69 88.60 10.61
10207 15.2060 86.76 88.65 9.36
10208 15.2070 110.29 88.71 10.61
10209 15.2080 113.67 88.76 10.78
10210 15.2090 111.28 88.82 10.67
10211 15.2100 97.30 88.88 9.93
10212 15.2110 113.70 88.94 10.74
10213 15.2120 100.31 89.00 10.15
10214 15.2130 96.35 89.06 10.00
10215 15.2140 94.89 89.13 9.84
10216 15.2150 95.52 89.19 9.81
10217 15.2160 103.14 89.26 10.23
10218 15.2170 93.64 89.33 9.76
10219 15.2180 89.20 89.40 9.56
10220 15.2190 122.24 89.47 11.12
10221 15.2200 112.34 89.54 10.63
10222 15.2210 120.75 89.61 11.08
10223 15.2220 101.46 89.69 10.20
10224 15.2230 103.24 89.77 10.33
10225 15.2240 106.20 89.85 10.43
10226 15.2250 99.06 89.93 10.04
10227 15.2260 104.31 90.01 10.28
10228 15.2270 99.14 90.09 10.03
10229 15.2280 97.59 90.18 9.97
10230 15.2290 114.44 90.27 10.76
10231 15.2300 108.05 90.36 10.45
10232 15.2310 92.33 90.45 9.65
10233 15.2320 86.42 90.55 9.44
10234 15.2330 106.11 90.65 10.49
10235 15.2340 100.53 90.75 10.14
10236 15.2350 101.61 90.85 10.15
10237 15.2360 108.10 90.96 10.45
10238 15.2370 91.68 91.06 9.68
10239 15.2380 114.09 91.18 10.78
10240 15.2390 89.73 91.29 9.56
10241 15.2400 112.84 91.41 10.64
10242 15.2410 109.50 91.53 10.54
10243 15.2420 120.89 91.65 11.13
10244 15.2430 120.68 91.78 11.12
10245 15.2440 109.51 91.91 10.56
10246 15.2450 112.52 92.04 10.70
10247 15.2460 95.58 92.18 9.85
10248 15.2470 99.33 92.32 10.06
10249 15.2480 106.37 92.47 10.42
10250 15.2490 116.17 92.62 10.88
10251 15.2500 111.88 92.77 10.61
10252 15.2510 104.41 92.93 10.30
10253 15.2520 127.31 93.09 11.41
10254 15.2530 110.80 93.26 10.67
10255 15.2540 101.98 93.44 10.20
10256 15.2550 101.34 93.62 10.14
10257 15.2560 113.32 93.80 10.72
10258 15.2570 111.81 93.99 10.69
10259 15.2580 96.91 94.19 9.98
10260 15.2590 101.72 94.39 10.20
10261 15.2600 109.40 94.60 10.52
10262 15.2610 107.79 94.82 10.47
10263 15.2620 95.54 95.04 9.92
10264 15.2630 98.63 95.28 10.09
10265 15.2640 91.88 95.52 9.68
10266 15.2650 110.37 95.76 10.59
10267 15.2660 122.87 96.02 11.17
10268 15.2670 102.50 96.29 10.19
10269 15.2680 117.01 96.56 10.96
10270 15.2690 110.02 96.85 10.56
10271 15.2700 95.59 97.15 9.85
10272 15.2710 105.06 97.46 10.29
10273 15.2720 111.99 97.78 10.75
10274 15.2730 115.52 98.11 10.91
10275 15.2740 119.25 98.45 11.03
10276 15.2750 101.01 98.81 10.14
10277 15.2760 112.56 99.19 10.71
10278 15.2770 110.22 99.58 10.61
10279 15.2780 118.32 99.98 11.01
10280 15.2790 99.00 100.40 10.03
10281 15.2800 91.14 100.85 9.60
10282 15.2810 97.48 101.31 9.97
10283 15.2820 109.03 101.79 10.59
10284 15.2830 106.18 102.29 10.52
10285 15.2840 110.54 102.81 10.63
10286 15.2850 121.25 103.36 11.17
10287 15.2860 112.00 103.93 10.65
10288 15.2870 106.16 104.53 10.41
10289 15.2880 119.50 105.16 11.12
10290 15.2890 111.48 105.82 10.64
10291 15.2900 110.39 106.52 10.58
10292 15.2910 111.68 107.25 10.65
10293 15.2920 119.46 108.02 11.09
10294 15.2930 116.29 108.82 10.93
10295 15.2940 118.92 109.68 11.02
10296 15.2950 112.29 110.57 10.66
10297 15.2960 115.65 111.52 10.84
10298 15.2970 117.77 112.52 10.95
10299 15.2980 95.93 113.58 9.94
10300 15.2990 105.60 114.71 10.35
10301 15.3000 109.38 115.89 10.55
10302 15.3010 120.13 117.16 11.03
10303 15.3020 116.63 118.50 10.93
10304 15.3030 116.39 119.93 10.96
10305 15.3040 110.79 121.45 10.65
10306 15.3050 118.09 123.07 10.96
10307 15.3060 115.71 124.80 10.83
10308 15.3070 128.63 126.66 11.49
10309 15.3080 130.08 128.65 11.53
10310 15.3090 125.06 130.78 11.29
10311 15.3100 114.00 133.08 10.79
10312 15.3110 143.73 135.55 12.09
10313 15.3120 123.39 138.22 11.24
10314 15.3130 128.18 141.10 11.50
10315 15.3140 116.58 144.23 10.91
10316 15.3150 113.80 147.63 10.72
10317 15.3160 146.69 151.32 12.18
10318 15.3170 144.54 155.36 12.16
10319 15.3180 137.32 159.77 11.88
10320 15.3190 147.21 164.61 12.22
10321 15.3200 167.58 169.94 13.00
10322 15.3210 152.33 175.82 12.43
10323 15.3220 172.86 182.33 13.33
10324 15.3230 184.37 189.57 13.79
10325 15.3240 163.38 197.64 12.90
10326 15.3250 171.04 206.67 13.21
10327 15.3260 192.90 216.84 13.99
10328 15.3270 201.35 228.31 14.30
10329 15.3280 202.05 241.36 14.42
10330 15.3290 225.54 256.27 15.18
10331 15.3300 269.63 273.37 16.53
10332 15.3310 280.92 293.17 16.90
10333 15.3320 307.64 316.19 17.82
10334 15.3330 311.89 343.24 17.98
10335 15.3340 353.12 375.27 19.01
10336 15.3350 430.27 413.55 20.90
10337 15.3360 449.79 459.76 21.34
10338 15.3370 524.75 516.50 23.16
10339 15.3380 655.15 587.39 26.00
10340 15.3390 724.78 677.99 27.13
10341 15.3400 890.14 797.85 30.04
10342 15.3410 1108.20 961.41 33.56
10343 15.3420 1323.16 1192.17 37.01
10344 15.3430 1681.46 1522.79 41.75
10345 15.3440 2131.82 1994.41 46.71
10346 15.3450 2829.69 2653.85 53.87
10347 15.3460 3566.54 3530.03 60.60
10348 15.3470 4544.92 4603.75 68.80
10349 15.3480 5900.94 5732.95 78.97
10350 15.3490 6944.05 6629.99 85.71
10351 15.3500 7501.35 6968.58 88.65
10352 15.3510 6889.59 6564.36 84.97
10353 15.3520 5769.79 5578.63 78.13
10354 15.3530 4646.51 4404.11 70.04
10355 15.3540 3458.76 3341.85 59.76
10356 15.3550 2657.91 2501.71 52.42
10357 15.3560 1972.86 1880.53 45.04
10358 15.3570 1621.38 1440.38 40.74
10359 15.3580 1332.31 1134.69 37.06
10360 15.3590 1067.30 921.08 33.11
10361 15.3600 885.23 769.06 29.94
10362 15.3610 771.98 656.83 27.99
10363 15.3620 606.11 571.16 24.97
10364 15.3630 531.47 503.88 23.50
10365 15.3640 500.92 449.62 22.69
10366 15.3650 389.98 405.28 19.88
10367 15.3660 349.18 368.42 18.82
10368 15.3670 302.06 337.52 17.52
10369 15.3680 288.67 311.36 17.21
10370 15.3690 269.98 289.07 16.56
10371 15.3700 245.56 269.86 15.72
10372 15.3710 240.32 253.23 15.58
10373 15.3720 218.52 238.76 14.99
10374 15.3730 221.03 226.05 15.11
10375 15.3740 196.56 214.86 14.17
10376 15.3750 176.46 204.94 13.39
10377 15.3760 157.32 196.11 12.65
10378 15.3770 151.45 188.24 12.42
10379 15.3780 144.15 181.16 12.14
10380 15.3790 167.17 174.79 13.03
10381 15.3800 144.01 169.04 12.08
10382 15.3810 155.40 163.82 12.56
10383 15.3820 154.35 159.07 12.59
10384 15.3830 148.79 154.74 12.41
10385 15.3840 150.74 150.79 12.40
10386 15.3850 115.03 147.16 10.84
10387 15.3860 133.55 143.83 11.68
10388 15.3870 137.46 140.75 11.87
10389 15.3880 135.66 137.92 11.82
10390 15.3890 132.90 135.30 11.66
10391 15.3900 129.83 132.87 11.45
10392 15.3910 132.89 130.62 11.61
10393 15.3920 131.79 128.52 11.61
10394 15.3930 126.65 126.57 11.44
10395 15.3940 117.52 124.74 10.97
10396 15.3950 106.62 123.04 10.41
10397 15.3960 131.12 121.44 11.54
10398 15.3970 132.83 119.95 11.66
10399 15.3980 122.83 118.54 11.25
10400 15.3990 113.87 117.22 10.79
10401 15.4000 126.26 115.98 11.29
10402 15.4010 119.84 114.82 11.03
10403 15.4020 107.30 113.71 10.52
10404 15.4030 117.53 112.67 11.01
10405 15.4040 120.49 111.68 11.12
10406 15.4050 111.78 110.76 10.68
10407 15.4060 114.49 109.87 10.81
10408 15.4070 96.83 109.04 9.99
10409 15.4080 121.58 108.25 11.18
10410 15.4090 104.82 107.49 10.32
10411 15.4100 102.36 106.78 10.19
10412 15.4110 103.73 106.10 10.26
10413 15.4120 106.44 105.45 10.45
10414 15.4130 130.22 104.83 11.61
10415 15.4140 144.69 104.24 12.19
10416 15.4150 135.53 103.68 11.75
10417 15.4160 103.32 103.14 10.22
10418 15.4170 108.78 102.63 10.52
10419 15.4180 109.23 102.14 10.52
10420 15.4190 103.52 101.67 10.25
10421 15.4200 102.82 101.22 10.22
10422 15.4210 115.68 100.79 10.82
10423 15.4220 128.61 100.38 11.49
10424 15.4230 126.55 99.98 11.44
10425 15.4240 120.42 99.60 11.11
10426 15.4250 116.49 99.24 10.88
10427 15.4260 112.04 98.89 10.67
10428 15.4270 118.90 98.55 11.02
10429 15.4280 127.65 98.23 11.44
10430 15.4290 114.41 97.92 10.80
10431 15.4300 108.69 97.62 10.53
10432 15.4310 103.31 97.33 10.27
10433 15.4320 108.54 97.05 10.60
10434 15.4330 100.13 96.79 10.17
10435 15.4340 113.71 96.53 10.79
10436 15.4350 119.66 96.28 11.08
10437 15.4360 110.10 96.04 10.59
10438 15.4370 113.47 95.81 10.76
10439 15.4380 116.94 95.58 10.93
10440 15.4390 108.61 95.37 10.48
10441 15.4400 123.84 95.16 11.17
10442 15.4410 111.82 94.95 10.65
10443 15.4420 104.89 94.76 10.38
10444 15.4430 101.47 94.57 10.26
10445 15.4440 129.69 94.39 11.52
10446 15.4450 111.36 94.21 10.63
10447 15.4460 104.14 94.04 10.27
10448 15.4470 105.40 93.87 10.38
10449 15.4480 128.06 93.71 11.42
10450 15.4490 105.39 93.55 10.36
10451 15.4500 119.52 93.40 11.01
10452 15.4510 107.28 93.26 10.45
10453 15.4520 95.51 93.11 9.92
10454 15.4530 94.64 92.98 9.89
10455 15.4540 105.09 92.84 10.36
10456 15.4550 108.53 92.71 10.52
10457 15.4560 108.41 92.58 10.50
10458 15.4570 105.29 92.46 10.36
10459 15.4580 113.43 92.34 10.77
10460 15.4590 105.99 92.23 10.38
10461 15.4600 105.74 92.11 10.35
10462 15.4610 113.35 92.00 10.70
10463 15.4620 104.90 91.90 10.37
10464 15.4630 110.49 92.29 10.67
10465 15.4640 121.88 92.19 11.19
10466 15.4650 108.77 93.12 10.52
10467 15.4660 86.67 93.04 9.38
10468 15.4670 102.31 92.96 10.20
10469 15.4680 106.03 92.88 10.42
10470 15.4690 104.29 92.81 10.28
10471 15.4700 108.07 92.74 10.42
10472 15.4710 114.97 92.67 10.77
10473 15.4720 88.49 92.60 9.56
10474 15.4730 101.55 92.54 10.24
10475 15.4740 92.84 92.48 9.74
10476 15.4750 102.26 92.42 10.20
10477 15.4760 108.97 92.36 10.54
10478 15.4770 118.43 92.30 10.99
10479 15.4780 108.64 92.25 10.56
10480 15.4790 95.43 92.20 9.84
10481 15.4800 109.70 92.15 10.55
10482 15.4810 118.09 92.10 10.93
10483 15.4820 102.29 92.05 10.30
10484 15.4830 129.42 92.01 11.55
10485 15.4840 122.02 91.96 11.18
10486 15.4850 101.82 91.92 10.17
10487 15.4860 113.73 91.88 10.80
10488 15.4870 95.68 91.84 9.86
10489 15.4880 102.38 91.81 10.23
10490 15.4890 98.99 91.77 10.01
10491 15.4900 107.15 91.74 10.38
10492 15.4910 132.18 91.71 11.53
10493 15.4920 123.62 91.68 11.24
10494 15.4930 112.36 91.65 10.74
10495 15.4940 98.57 91.62 10.00
10496 15.4950 103.01 91.59 10.20
10497 15.4960 105.49 91.57 10.36
10498 15.4970 106.85 91.55 10.43
10499 15.4980 93.96 91.52 9.81
10500 15.4990 102.75 91.50 10.23
10501 15.5000 102.79 91.48 10.18
10502 15.5010 110.97 91.46 10.61
10503 15.5020 104.43 91.45 10.37
10504 15.5030 99.70 91.43 10.12
10505 15.5040 107.56 91.42 10.48
10506 15.5050 114.21 91.40 10.73
10507 15.5060 109.17 91.39 10.52
10508 15.5070 101.13 91.38 10.18
10509 15.5080 91.14 91.37 9.69
10510 15.5090 109.97 91.36 10.55
10511 15.5100 104.43 91.35 10.30
10512 15.5110 117.33 91.35 10.93
10513 15.5120 98.20 91.34 10.06
10514 15.5130 101.21 91.34 10.20
10515 15.5140 102.47 91.34 10.22
10516 15.5150 112.19 91.33 10.66
10517 15.5160 98.31 91.33 10.01
10518 15.5170 114.46 91.33 10.79
10519 15.5180 90.75 91.34 9.63
10520 15.5190 100.74 91.34 10.09
10521 15.5200 100.39 91.34 10.09
10522 15.5210 111.93 91.35 10.63
10523 15.5220 93.11 91.35 9.82
10524 15.5230 109.17 91.36 10.61
10525 15.5240 107.92 91.37 10.54
10526 15.5250 114.10 91.38 10.74
10527 15.5260 98.01 91.39 9.98
10528 15.5270 120.05 91.40 11.08
10529 15.5280 117.32 91.41 10.99
10530 15.5290 125.84 91.43 11.28
10531 15.5300 118.59 91.44 10.97
10532 15.5310 125.81 91.46 11.34
10533 15.5320 111.70 91.48 10.75
10534 15.5330 111.71 91.50 10.73
10535 15.5340 102.74 91.52 10.27
10536 15.5350 101.99 91.54 10.18
10537 15.5360 112.42 91.56 10.72
10538 15.5370 107.90 91.59 10.52
10539 15.5380 103.27 91.61 10.26
10540 15.5390 89.37 91.64 9.55
10541 15.5400 98.25 91.66 9.99
10542 15.5410 105.35 91.69 10.33
10543 15.5420 101.72 91.72 10.21
10544 15.5430 106.99 91.76 10.51
10545 15.5440 125.50 91.79 11.33
10546 15.5450 123.49 91.82 11.18
10547 15.5460 124.69 91.86 11.23
10548 15.5470 104.39 91.90 10.34
10549 15.5480 99.13 91.93 10.11
10550 15.5490 122.53 91.98 11.16
10551 15.5500 100.28 92.02 10.08
10552 15.5510 124.30 92.06 11.21
10553 15.5520 100.03 92.11 10.19
10554 15.5530 113.84 92.15 10.89
10555 15.5540 109.44 92.20 10.58
10556 15.5550 103.35 92.25 10.28
10557 15.5560 116.20 92.30 10.91
10558 15.5570 123.86 92.36 11.26
10559 15.5580 118.56 92.41 11.03
10560 15.5590 108.44 92.47 10.52
10561 15.5600 103.28 92.53 10.28
10562 15.5610 98.33 92.59 10.01
10563 15.5620 131.81 92.65 11.68
10564 15.5630 110.76 92.72 10.71
10565 15.5640 96.63 92.78 9.97
10566 15.5650 100.66 92.85 10.13
10567 15.5660 117.24 92.93 10.92
10568 15.5670 105.40 93.00 10.37
10569 15.5680 115.32 93.08 10.90
10570 15.5690 118.18 92.65 10.96
10571 15.5700 117.04 92.74 10.91
10572 15.5710 117.37 91.76 10.90
10573 15.5720 105.77 91.86 10.44
10574 15.5730 104.46 91.96 10.46
10575 15.5740 99.55 92.07 10.10
10576 15.5750 109.18 92.17 10.59
10577 15.5760 132.85 92.29 11.61
10578 15.5770 106.75 92.40 10.44
10579 15.5780 103.29 92.52 10.31
10580 15.5790 105.61 92.64 10.35
10581 15.5800 107.45 92.76 10.44
10582 15.5810 108.21 92.89 10.52
10583 15.5820 100.10 93.02 10.15
10584 15.5830 128.85 93.16 11.58
10585 15.5840 106.76 93.30 10.46
10586 15.5850 89.25 93.44 9.55
10587 15.5860 121.52 93.59 11.15
10588 15.5870 114.31 93.74 10.81
10589 15.5880 119.14 93.89 11.07
10590 15.5890 111.45 94.05 10.67
10591 15.5900 105.66 94.22 10.35
10592 15.5910 100.29 94.39 10.08
10593 15.5920 103.94 94.57 10.33
10594 15.5930 99.23 94.75 10.11
10595 15.5940 103.54 94.93 10.27
10596 15.5950 118.61 95.13 10.96
10597 15.5960 112.68 95.33 10.70
10598 15.5970 91.38 95.53 9.67
10599 15.5980 97.46 95.74 10.01
10600 15.5990 117.12 95.96 10.97
10601 15.6000 111.33 96.19 10.62
10602 15.6010 121.59 96.43 11.13
10603 15.6020 109.19 96.67 10.61
10604 15.6030 116.11 96.92 10.96
10605 15.6040 99.46 97.18 10.09
10606 15.6050 118.65 97.46 11.00
10607 15.6060 116.97 97.74 10.92
10608 15.6070 110.53 98.03 10.65
10609 15.6080 101.24 98.33 10.19
10610 15.6090 103.56 98.64 10.27
10611 15.6100 98.36 98.97 10.00
10612 15.6110 124.07 99.31 11.17
10613 15.6120 103.38 99.66 10.33
10614 15.6130 124.44 100.03 11.33
10615 15.6140 109.87 100.41 10.59
10616 15.6150 118.70 100.80 10.96
10617 15.6160 110.52 101.22 10.59
10618 15.6170 90.98 101.65 9.63
10619 15.6180 106.76 102.10 10.44
10620 15.6190 120.51 102.57 11.03
10621 15.6200 124.80 103.06 11.24
10622 15.6210 127.16 103.57 11.38
10623 15.6220 119.35 104.11 11.13
10624 15.6230 118.07 104.67 11.06
10625 15.6240 112.88 105.26 10.80
10626 15.6250 112.84 105.88 10.73
10627 15.6260 112.29 106.53 10.70
10628 15.6270 124.65 107.20 11.29
10629 15.6280 120.20 107.92 11.13
10630 15.6290 127.08 108.67 11.36
10631 15.6300 125.33 109.46 11.28
10632 15.6310 121.46 110.29 11.14
10633 15.6320 122.40 111.17 11.26
10634 15.6330 126.73 112.10 11.47
10635 15.6340 125.43 113.08 11.34
10636 15.6350 133.69 114.12 11.64
10637 15.6360 119.32 115.22 11.02
10638 15.6370 126.58 116.38 11.38
10639 15.6380 121.02 117.62 11.13
10640 15.6390 107.07 118.94 10.45
10641 15.6400 118.34 120.33 10.94
10642 15.6410 133.60 121.83 11.65
10643 15.6420 121.05 123.42 11.13
10644 15.6430 121.90 125.12 11.23
10645 15.6440 131.34 126.95 11.57
10646 15.6450 138.05 128.91 11.83
10647 15.6460 142.31 131.02 12.06
10648 15.6470 138.29 133.30 11.90
10649 15.6480 136.96 135.76 11.88
10650 15.6490 143.20 138.44 12.11
10651 15.6500 133.70 141.35 11.67
10652 15.6510 140.91 144.51 11.96
10653 15.6520 121.19 147.93 11.17
10654 15.6530 122.35 151.58 11.29
10655 15.6540 157.14 155.49 12.70
10656 15.6550 139.40 159.69 11.91
10657 15.6560 154.24 164.29 12.56
10658 15.6570 151.36 169.37 12.45
10659 15.6580 159.43 175.01 12.83
10660 15.6590 170.79 181.29 13.12
10661 15.6600 179.89 188.27 13.50
10662 15.6610 176.90 196.09 13.39
10663 15.6620 175.95 204.84 13.49
10664 15.6630 199.56 214.70 14.36
10665 15.6640 181.87 225.82 13.64
10666 15.6650 202.46 238.47 14.32
10667 15.6660 225.91 252.91 15.12
10668 15.6670 242.00 269.47 15.68
10669 15.6680 263.30 288.63 16.38
10670 15.6690 296.05 310.92 17.35
10671 15.6700 336.98 337.01 18.47
10672 15.6710 349.62 367.92 18.77
10673 15.6720 429.77 404.82 21.08
10674 15.6730 430.58 449.30 21.08
10675 15.6740 467.81 503.85 21.89
10676 15.6750 576.15 571.88 24.20
10677 15.6760 708.40 658.61 26.89
10678 15.6770 894.76 772.93 30.26
10679 15.6780 1004.75 928.41 32.10
10680 15.6790 1232.57 1145.53 35.49
10681 15.6800 1480.83 1454.72 38.77
10682 15.6810 1894.83 1892.75 44.01
10683 15.6820 2510.87 2502.15 50.93
10684 15.6830 3239.04 3310.12 58.44
10685 15.6840 4147.90 4302.60 65.67
10686 15.6850 5379.84 5357.17 75.02
10687 15.6860 6231.97 6218.88 80.85
10688 15.6870 6631.61 6590.39 83.44
10689 15.6880 6371.19 6284.68 82.10
10690 15.6890 5611.96 5411.94 76.42
10691 15.6900 4246.19 4320.62 66.13
10692 15.6910 3226.07 3307.21 57.48
10693 15.6920 2551.40 2491.09 51.39
10694 15.6930 2036.55 1882.00 46.02
10695 15.6940 1555.13 1444.74 39.72
10696 15.6950 1230.49 1138.34 35.49
10697 15.6960 990.92 923.05 31.77
10698 15.6970 812.46 769.58 28.85
10699 15.6980 683.27 656.44 26.46
10700 15.6990 623.03 570.33 25.23
10701 15.7000 500.60 502.89 22.49
10702 15.7010 416.18 448.62 20.56
10703 15.7020 385.22 404.33 19.89
10704 15.7030 338.78 367.55 18.73
10705 15.7040 293.09 336.74 17.32
10706 15.7050 265.42 310.67 16.44
10707 15.7060 259.92 288.47 16.22
10708 15.7070 259.43 269.36 16.27
10709 15.7080 235.63 252.81 15.56
10710 15.7090 215.93 238.42 14.85
10711 15.7100 197.84 225.78 14.10
10712 15.7110 216.64 214.65 14.81
10713 15.7120 192.44 204.82 14.05
10714 15.7130 159.93 196.05 12.83
10715 15.7140 185.15 188.24 13.71
10716 15.7150 177.49 181.21 13.40
10717 15.7160 168.85 174.90 13.09
10718 15.7170 177.20 169.19 13.41
10719 15.7180 151.93 164.01 12.40
10720 15.7190 159.14 159.32 12.70
10721 15.7200 142.16 155.02 11.93
10722 15.7210 154.48 151.10 12.50
10723 15.7220 126.08 147.51 11.41
10724 15.7230 136.32 144.21 11.90
10725 15.7240 140.23 141.17 12.01
10726 15.7250 115.51 138.36 10.85
10727 15.7260 142.65 135.77 12.00
10728 15.7270 120.78 133.36 11.12
10729 15.7280 120.00 131.13 11.08
10730 15.7290 124.21 129.06 11.22
10731 15.7300 135.23 127.13 11.68
10732 15.7310 125.27 125.32 11.29
10733 15.7320 125.77 123.64 11.38
10734 15.7330 127.41 122.06 11.52
10735 15.7340 111.75 120.58 10.69
10736 15.7350 111.87 119.19 10.67
10737 15.7360 116.03 117.89 10.88
10738 15.7370 99.96 116.66 10.14
10739 15.7380 114.12 115.51 10.79
10740 15.7390 104.70 114.42 10.29
10741 15.7400 109.69 113.39 10.51
10742 15.7410 138.22 112.42 11.85
10743 15.7420 123.89 111.50 11.26
10744 15.7430 120.85 110.63 11.15
10745 15.7440 119.87 109.80 11.07
10746 15.7450 99.35 109.02 10.05
10747 15.7460 111.66 108.27 10.65
10748 15.7470 121.18 107.57 11.15
10749 15.7480 125.80 106.89 11.36
10750 15.7490 130.49 106.25 11.55
10751 15.7500 121.95 105.64 11.18
10752 15.7510 105.88 105.06 10.37
10753 15.7520 116.75 104.51 10.97
10754 15.7530 111.11 103.98 10.73
10755 15.7540 120.33 103.47 11.09
10756 15.7550 106.84 102.99 10.43
10757 15.7560 132.13 102.52 11.61
10758 15.7570 126.71 102.08 11.41
10759 15.7580 108.73 101.66 10.59
10760 15.7590 117.10 101.25 10.95
10761 15.7600 110.44 100.86 10.56
10762 15.7610 110.09 100.49 10.58
10763 15.7620 114.24 100.12 10.91
10764 15.7630 119.58 99.78 11.12
10765 15.7640 117.26 99.45 10.96
10766 15.7650 125.22 99.13 11.31
10767 15.7660 97.14 98.82 9.92
10768 15.7670 109.30 98.53 10.56
10769 15.7680 96.76 98.24 9.92
10770 15.7690 130.33 97.97 11.54
10771 15.7700 123.03 97.70 11.15
10772 15.7710 106.80 97.45 10.44
10773 15.7720 124.05 97.20 11.30
10774 15.7730 113.07 96.97 10.86
10775 15.7740 107.56 96.74 10.50
10776 15.7750 105.73 96.52 10.43
10777 15.7760 114.30 96.30 10.79
10778 15.7770 113.53 96.10 10.80
10779 15.7780 96.18 95.90 9.93
10780 15.7790 107.15 95.71 10.47
10781 15.7800 125.26 95.52 11.27
10782 15.7810 120.11 95.34 11.08
10783 15.7820 102.38 95.16 10.33
10784 15.7830 120.72 94.99 11.22
10785 15.7840 107.50 94.83 10.50
10786 15.7850 101.86 94.67 10.23
10787 15.7860 100.68 94.52 10.13
10788 15.7870 115.96 94.37 10.93
10789 15.7880 130.89 94.22 11.63
10790 15.7890 108.82 94.08 10.55
10791 15.7900 93.06 93.95 9.69
10792 15.7910 112.07 93.81 10.65
10793 15.7920 118.33 93.68 11.03
10794 15.7930 121.30 93.56 11.19
10795 15.7940 116.94 93.44 10.91
10796 15.7950 127.09 93.32 11.40
10797 15.7960 103.28 93.21 10.29
10798 15.7970 99.23 93.09 10.11
10799 15.7980 108.98 92.99 10.61
10800 15.7990 95.50 92.88 9.89
10801 15.8000 107.29 92.78 10.44
10802 15.8010 104.46 92.68 10.31
10803 15.8020 101.86 92.58 10.24
10804 15.8030 98.90 92.49 10.13
10805 15.8040 101.88 92.40 10.26
10806 15.8050 108.20 92.31 10.54
10807 15.8060 104.74 92.22 10.33
10808 15.8070 115.29 92.13 10.90
10809 15.8080 88.95 92.05 9.61
10810 15.8090 97.69 91.97 9.98
10811 15.8100 115.45 91.89 10.80
10812 15.8110 116.63 91.81 10.91
10813 15.8120 116.60 91.74 10.97
10814 15.8130 96.67 91.67 10.02
10815 15.8140 114.44 91.60 10.83
10816 15.8150 120.29 91.53 11.07
10817 15.8160 102.76 91.46 10.22
10818 15.8170 126.36 91.39 11.34
10819 15.8180 103.32 91.33 10.25
10820 15.8190 117.40 91.26 10.95
10821 15.8200 107.83 91.20 10.48
10822 15.8210 130.87 91.14 11.57
10823 15.8220 119.23 91.08 11.09
10824 15.8230 111.23 91.03 10.75
10825 15.8240 115.56 90.97 10.89
10826 15.8250 109.32 90.92 10.56
10827 15.8260 102.70 90.86 10.20
10828 15.8270 103.11 90.81 10.28
10829 15.8280 105.11 90.76 10.37
10830 15.8290 100.53 90.71 10.14
10831 15.8300 110.83 90.66 10.64
10832 15.8310 115.67 90.61 10.88
10833 15.8320 104.79 90.57 10.37
10834 15.8330 122.61 90.52 11.31
10835 15.8340 92.17 90.48 9.72
10836 15.8350 106.72 90.43 10.45
10837 15.8360 120.78 90.39 11.12
10838 15.8370 93.59 90.35 9.80
10839 15.8380 105.38 90.31 10.37
10840 15.8390 98.82 90.27 10.03
10841 15.8400 85.51 90.23 9.28
10842 15.8410 98.78 90.19 10.00
10843 15.8420 113.35 90.15 10.76
10844 15.8430 127.99 90.11 11.47
10845 15.8440 97.68 90.08 9.97
10846 15.8450 100.34 90.04 10.08
10847 15.8460 105.76 90.01 10.40
10848 15.8470 114.17 89.97 10.82
10849 15.8480 104.63 89.94 10.41
10850 15.8490 107.46 89.91 10.49
10851 15.8500 109.73 89.87 10.56
10852 15.8510 87.92 89.84 9.47
10853 15.8520 100.11 89.81 10.17
10854 15.8530 108.06 89.78 10.57
10855 15.8540 108.96 89.75 10.58
10856 15.8550 112.22 89.72 10.71
10857 15.8560 108.12 89.70 10.53
10858 15.8570 109.68 89.67 10.64
10859 15.8580 93.08 89.64 9.78
10860 15.8590 107.01 89.61 10.45
10861 15.8600 106.95 89.59 10.44
10862 15.8610 104.58 89.56 10.29
10863 15.8620 94.10 89.54 9.83
10864 15.8630 96.66 89.51 10.02
10865 15.8640 101.19 89.49 10.18
10866 15.8650 97.94 89.46 9.97
10867 15.8660 119.81 89.44 10.99
10868 15.8670 97.09 89.42 9.93
10869 15.8680 106.01 89.39 10.42
10870 15.8690 101.93 89.37 10.14
10871 15.8700 99.03 89.35 10.01
10872 15.8710 108.47 89.33 10.49
10873 15.8720 109.65 89.31 10.63
10874 15.8730 98.62 89.29 10.15
10875 15.8740 99.67 89.27 10.11
10876 15.8750 114.57 89.25 10.79
10877 15.8760 99.46 89.23 10.05
10878 15.8770 108.44 89.21 10.56
10879 15.8780 125.08 89.19 11.34
10880 15.8790 100.96 89.17 10.14
10881 15.8800 107.00 89.15 10.41
10882 15.8810 105.62 89.14 10.37
10883 15.8820 111.21 89.12 10.72
10884 15.8830 104.89 89.10 10.42
10885 15.8840 102.54 89.09 10.29
10886 15.8850 100.49 89.07 10.11
10887 15.8860 129.58 89.05 11.48
10888 15.8870 107.84 89.04 10.54
10889 15.8880 96.72 89.02 9.94
10890 15.8890 109.13 89.01 10.54
10891 15.8900 114.32 88.99 10.72
10892 15.8910 112.29 88.98 10.64
10893 15.8920 120.06 88.96 11.08
10894 15.8930 112.23 88.95 10.76
10895 15.8940 122.86 88.93 11.21
10896 15.8950 107.46 88.92 10.46
10897 15.8960 111.52 88.91 10.68
10898 15.8970 98.56 88.89 10.10
10899 15.8980 115.80 88.88 10.89
10900 15.8990 105.17 88.87 10.37
10901 15.9000 108.36 88.85 10.49
10902 15.9010 104.31 88.84 10.29
10903 15.9020 104.29 88.83 10.38
10904 15.9030 104.18 88.82 10.36
10905 15.9040 105.62 88.81 10.43
10906 15.9050 116.14 88.79 10.90
10907 15.9060 108.73 88.78 10.50
10908 15.9070 108.37 88.77 10.54
10909 15.9080 101.29 88.76 10.20
10910 15.9090 105.06 88.26 10.36
10911 15.9100 106.17 88.25 10.35
10912 15.9110 102.16 87.23 10.18
10913 15.9120 107.23 87.23 10.52
10914 15.9130 113.00 87.23 10.84
10915 15.9140 117.99 87.24 10.96
10916 15.9150 109.55 87.24 10.54
10917 15.9160 104.69 87.24 10.27
10918 15.9170 112.62 87.25 10.70
10919 15.9180 106.84 87.26 10.41
10920 15.9190 111.71 87.26 10.68
10921 15.9200 105.17 87.27 10.35
10922 15.9210 94.29 87.27 9.80
10923 15.9220 97.95 87.28 10.05
10924 15.9230 120.42 87.28 11.16
10925 15.9240 110.77 87.28 10.66
10926 15.9250 110.59 87.28 10.64
10927 15.9260 98.35 87.29 10.00
10928 15.9270 97.15 87.29 9.96
10929 15.9280 81.89 87.29 9.19
10930 15.9290 105.35 87.30 10.37
10931 15.9300 96.03 87.30 9.85
10932 15.9310 98.44 87.30 9.98
10933 15.9320 104.67 87.31 10.39
10934 15.9330 107.48 87.31 10.53
10935 15.9340 112.22 87.31 10.70
10936 15.9350 102.58 87.32 10.26
10937 15.9360 102.70 87.32 10.26
10938 15.9370 120.61 87.32 11.12
10939 15.9380 111.85 87.33 10.68
10940 15.9390 100.92 87.33 10.13
10941 15.9400 101.18 87.33 10.10
10942 15.9410 93.70 87.34 9.72
10943 15.9420 101.11 87.34 10.15
10944 15.9430 113.66 87.34 10.81
10945 15.9440 115.12 87.34 10.89
10946 15.9450 101.13 87.35 10.15
10947 15.9460 101.51 87.35 10.17
10948 15.9470 108.99 87.35 10.60
10949 15.9480 108.59 87.36 10.56
10950 15.9490 99.62 87.36 10.10
10951 15.9500 105.16 87.36 10.33
10952 15.9510 100.89 87.37 10.13
10953 15.9520 107.04 87.37 10.48
10954 15.9530 102.96 87.37 10.32
10955 15.9540 85.88 87.38 9.35
10956 15.9550 105.17 87.38 10.36
10957 15.9560 116.77 87.38 10.90
10958 15.9570 95.52 87.39 9.90
10959 15.9580 101.47 87.39 10.24
10960 15.9590 111.24 87.39 10.66
10961 15.9600 109.50 87.40 10.54
10962 15.9610 98.66 87.40 10.03
10963 15.9620 91.81 87.40 9.75
10964 15.9630 100.51 87.41 10.19
10965 15.9640 105.22 87.41 10.34
10966 15.9650 88.29 87.41 9.45
10967 15.9660 111.21 87.41 10.61
10968 15.9670 117.22 87.42 10.92
10969 15.9680 123.32 87.42 11.24
10970 15.9690 104.47 87.42 10.33
10971 15.9700 105.15 87.43 10.32
10972 15.9710 86.50 87.43 9.37
10973 15.9720 103.79 87.43 10.37
10974 15.9730 119.88 87.44 11.16
10975 15.9740 89.01 87.44 9.57
10976 15.9750 95.55 87.44 9.83
10977 15.9760 110.43 87.45 10.60
10978 15.9770 97.73 87.45 10.03
10979 15.9780 100.52 87.45 10.16
10980 15.9790 90.67 87.46 9.63
10981 15.9800 106.94 87.46 10.41
10982 15.9810 98.76 87.46 10.05
10983 15.9820 101.33 87.47 10.22
10984 15.9830 100.62 87.47 10.21
10985 15.9840 115.34 87.47 10.91
10986 15.9850 113.58 87.48 10.80
10987 15.9860 101.87 87.48 10.21
10988 15.9870 99.07 87.48 10.11
10989 15.9880 92.02 87.49 9.72
10990 15.9890 102.74 87.49 10.23
10991 15.9900 98.86 87.49 9.98
10992 15.9910 105.64 87.50 10.31
10993 15.9920 115.29 87.50 10.88
10994 15.9930 106.53 87.50 10.53
10995 15.9940 101.51 87.51 10.20
10996 15.9950 86.30 87.51 9.43
10997 15.9960 101.98 87.51 10.22
10998 15.9970 99.82 87.52 10.12
10999 15.9980 107.49 87.52 10.55
11000 15.9990 101.23 87.52 10.16
11001 16.0000 104.65 87.53 10.32
11002 16.0010 93.27 87.53 9.75
11003 16.0020 88.47 87.53 9.55
11004 16.0030 96.56 87.54 10.02
11005 16.0040 86.97 87.54 9.46
11006 16.0050 91.59 87.54 9.68
11007 16.0060 97.12 87.55 9.97
11008 16.0070 90.82 87.55 9.65
11009 16.0080 85.71 87.55 9.44
11010 16.0090 102.51 87.56 10.26
11011 16.0100 118.44 87.56 11.00
11012 16.0110 103.16 87.56 10.26
11013 16.0120 106.14 87.57 10.46
11014 16.0130 99.27 87.57 10.14
11015 16.0140 101.98 87.58 10.21
11016 16.0150 102.19 87.58 10.19
11017 16.0160 110.34 87.58 10.58
11018 16.0170 104.57 87.59 10.38
11019 16.0180 101.15 87.59 10.24
11020 16.0190 113.89 87.59 10.77
11021 16.0200 120.04 87.60 11.10
11022 16.0210 103.86 87.60 10.31
11023 16.0220 112.93 87.60 10.82
11024 16.0230 117.50 87.61 11.00
11025 16.0240 101.96 87.61 10.25
11026 16.0250 102.34 87.62 10.21
11027 16.0260 105.07 87.62 10.34
11028 16.0270 114.14 87.62 10.82
11029 16.0280 101.39 87.63 10.20
11030 16.0290 100.67 87.63 10.17
11031 16.0300 86.78 87.63 9.41
11032 16.0310 100.89 87.64 10.13
11033 16.0320 112.49 87.64 10.78
11034 16.0330 119.32 87.65 11.14
11035 16.0340 90.90 87.65 9.64
11036 16.0350 104.53 87.65 10.33
11037 16.0360 101.35 87.66 10.20
11038 16.0370 105.61 87.66 10.39
11039 16.0380 99.66 87.67 10.14
11040 16.0390 90.53 87.67 9.60
11041 16.0400 82.86 87.67 9.16
11042 16.0410 102.14 87.68 10.16
11043 16.0420 103.93 87.68 10.33
11044 16.0430 110.12 87.69 10.67
11045 16.0440 95.83 87.69 9.95
11046 16.0450 104.02 87.69 10.29
11047 16.0460 84.52 87.70 9.32
11048 16.0470 92.64 87.70 9.72
11049 16.0480 110.08 87.71 10.61
11050 16.0490 89.37 87.71 9.54
11051 16.0500 103.25 87.72 10.24
11052 16.0510 101.24 87.72 10.12
11053 16.0520 93.92 87.73 9.87
11054 16.0530 102.32 87.73 10.33
11055 16.0540 116.72 87.74 10.93
11056 16.0550 106.48 87.74 10.44
11057 16.0560 113.49 87.75 10.76
11058 16.0570 108.35 87.75 10.53
11059 16.0580 84.08 87.75 9.31
11060 16.0590 94.39 87.76 9.84
11061 16.0600 111.10 87.76 10.61
11062 16.0610 116.97 87.77 10.91
11063 16.0620 114.36 87.78 10.85
11064 16.0630 121.47 87.78 11.17
11065 16.0640 123.11 87.79 11.16
11066 16.0650 108.75 87.79 10.49
11067 16.0660 99.14 87.80 10.02
11068 16.0670 91.81 87.80 9.66
11069 16.0680 108.79 87.81 10.58
11070 16.0690 88.07 87.81 9.46
11071 16.0700 94.99 87.82 9.83
11072 16.0710 98.30 87.83 9.99
11073 16.0720 89.81 87.83 9.62
11074 16.0730 99.91 87.84 10.22
11075 16.0740 112.88 87.85 10.72
11076 16.0750 120.88 87.85 11.08
11077 16.0760 98.26 87.86 9.98
11078 16.0770 96.50 87.87 9.92
11079 16.0780 99.62 87.88 10.10
11080 16.0790 94.92 87.88 9.83
11081 16.0800 111.35 87.89 10.62
11082 16.0810 90.38 87.90 9.61
11083 16.0820 103.63 87.91 10.38
11084 16.0830 102.92 87.91 10.35
11085 16.0840 92.00 87.92 9.71
11086 16.0850 97.82 87.93 9.99
11087 16.0860 104.70 87.94 10.32
11088 16.0870 113.51 87.95 10.70
11089 16.0880 101.75 87.96 10.18
11090 16.0890 95.93 87.97 9.86
11091 16.0900 91.13 87.98 9.57
11092 16.0910 104.65 87.99 10.22
11093 16.0920 78.49 88.01 9.00
11094 16.0930 95.41 88.02 9.94
11095 16.0940 104.90 88.03 10.36
11096 16.0950 99.09 88.04 10.04
11097 16.0960 92.59 88.06 9.74
11098 16.0970 91.42 88.07 9.69
11099 16.0980 97.12 88.09 10.00
11100 16.0990 97.48 88.11 9.95
11101 16.1000 103.26 88.12 10.25
11102 16.1010 97.92 88.14 9.95
11103 16.1020 87.78 88.16 9.49
11104 16.1030 105.97 88.18 10.45
11105 16.1040 113.89 88.20 10.79
11106 16.1050 115.77 88.23 10.82
11107 16.1060 116.65 88.25 10.90
11108 16.1070 98.37 88.28 10.04
11109 16.1080 87.89 88.31 9.51
11110 16.1090 103.17 88.34 10.28
11111 16.1100 97.80 88.37 9.94
11112 16.1110 97.63 88.40 9.96
11113 16.1120 107.05 88.44 10.43
11114 16.1130 94.84 88.48 9.87
11115 16.1140 98.47 88.53 9.99
11116 16.1150 96.92 88.58 9.89
11117 16.1160 101.47 88.63 10.13
11118 16.1170 111.05 88.69 10.67
11119 16.1180 106.01 88.76 10.41
11120 16.1190 107.62 88.83 10.48
11121 16.1200 99.52 88.92 10.05
11122 16.1210 101.47 89.01 10.15
11123 16.1220 101.38 89.11 10.23
11124 16.1230 92.19 89.23 9.78
11125 16.1240 96.80 89.36 9.94
11126 16.1250 106.39 89.51 10.43
11127 16.1260 115.20 89.69 10.79
11128 16.1270 102.50 89.89 10.22
11129 16.1280 101.93 90.13 10.20
11130 16.1290 118.43 90.41 10.95
11131 16.1300 115.29 90.75 10.79
11132 16.1310 101.93 91.15 10.14
11133 16.1320 103.47 91.65 10.30
11134 16.1330 119.38 92.27 11.11
11135 16.1340 94.50 93.08 9.86
11136 16.1350 112.09 94.14 10.68
11137 16.1360 112.26 95.58 10.68
11138 16.1370 108.41 97.58 10.48
11139 16.1380 115.25 100.38 10.86
11140 16.1390 100.15 104.23 10.03
11141 16.1400 106.44 109.40 10.31
11142 16.1410 112.05 115.98 10.60
11143 16.1420 127.70 123.49 11.48
11144 16.1430 122.52 130.60 11.27
11145 16.1440 127.35 135.57 11.45
11146 16.1450 144.37 137.92 12.10
11147 16.1460 136.15 137.99 11.77
11148 16.1470 135.50 135.31 11.73
11149 16.1480 123.12 129.46 11.20
11150 16.1490 134.23 121.77 11.65
11151 16.1500 112.71 114.24 10.69
11152 16.1510 112.19 107.96 10.66
11153 16.1520 118.77 103.11 11.06
11154 16.1530 129.02 99.57 11.55
11155 16.1540 112.31 97.02 10.69
11156 16.1550 102.76 95.19 10.20
11157 16.1560 114.40 93.88 10.77
11158 16.1570 99.45 92.91 10.08
11159 16.1580 99.53 92.17 10.15
11160 16.1590 104.96 91.59 10.35
11161 16.1600 116.28 91.12 10.83
11162 16.1610 116.35 90.74 10.83
11163 16.1620 90.94 90.43 9.65
11164 16.1630 107.20 90.17 10.45
11165 16.1640 103.18 89.94 10.22
11166 16.1650 78.62 89.75 8.94
11167 16.1660 105.32 89.59 10.33
11168 16.1670 109.97 89.45 10.58
11169 16.1680 82.05 89.33 9.19
11170 16.1690 92.22 89.22 9.70
11171 16.1700 102.40 89.12 10.19
11172 16.1710 112.37 89.04 10.70
11173 16.1720 94.92 88.97 9.89
11174 16.1730 89.12 88.90 9.59
11175 16.1740 93.17 88.84 9.77
11176 16.1750 93.34 88.79 9.73
11177 16.1760 104.01 88.74 10.27
11178 16.1770 106.22 88.70 10.40
11179 16.1780 114.95 88.66 10.86
11180 16.1790 103.22 88.62 10.22
11181 16.1800 92.14 88.59 9.68
11182 16.1810 100.93 88.56 10.10
11183 16.1820 101.47 88.53 10.22
11184 16.1830 99.04 88.51 10.13
11185 16.1840 109.73 88.49 10.61
11186 16.1850 93.50 88.47 9.75
11187 16.1860 88.76 88.45 9.48
11188 16.1870 103.35 88.43 10.26
11189 16.1880 102.23 88.42 10.21
11190 16.1890 84.31 88.40 9.20
11191 16.1900 87.09 88.39 9.36
11192 16.1910 93.48 88.38 9.71
11193 16.1920 105.05 88.36 10.39
11194 16.1930 95.12 88.35 9.94
11195 16.1940 91.03 88.34 9.68
11196 16.1950 106.89 88.34 10.42
11197 16.1960 95.68 88.33 9.89
11198 16.1970 93.19 88.32 9.76
11199 16.1980 126.64 88.31 11.42
11200 16.1990 89.09 88.31 9.56
11201 16.2000 88.86 88.30 9.48
11202 16.2010 103.62 88.29 10.26
11203 16.2020 93.35 88.29 9.82
11204 16.2030 94.92 88.28 9.91
11205 16.2040 84.72 88.28 9.34
11206 16.2050 86.18 88.28 9.35
11207 16.2060 88.68 88.27 9.55
11208 16.2070 116.76 88.27 10.93
11209 16.2080 99.62 88.27 10.12
11210 16.2090 106.41 88.26 10.39
11211 16.2100 93.75 88.26 9.74
11212 16.2110 100.55 88.26 10.05
11213 16.2120 94.67 88.26 9.85
11214 16.2130 104.06 88.25 10.32
11215 16.2140 102.48 88.25 10.23
11216 16.2150 98.11 88.25 9.95
11217 16.2160 92.41 88.25 9.68
11218 16.2170 98.72 88.25 10.02
11219 16.2180 89.60 88.25 9.62
11220 16.2190 95.03 88.25 9.85
11221 16.2200 105.05 88.25 10.35
11222 16.2210 112.03 88.25 10.67
11223 16.2220 103.62 88.25 10.34
11224 16.2230 94.08 88.25 9.87
11225 16.2240 91.94 88.25 9.71
11226 16.2250 104.07 88.25 10.31
11227 16.2260 111.27 88.25 10.64
11228 16.2270 107.60 88.25 10.48
11229 16.2280 94.53 88.25 9.88
11230 16.2290 95.21 88.25 9.82
11231 16.2300 99.82 88.25 10.07
11232 16.2310 96.68 88.25 9.89
11233 16.2320 110.84 88.25 10.74
11234 16.2330 92.58 88.25 9.82
11235 16.2340 89.18 88.25 9.58
11236 16.2350 88.40 88.25 9.49
11237 16.2360 89.34 88.25 9.52
11238 16.2370 111.89 88.25 10.69
11239 16.2380 113.24 88.25 10.71
11240 16.2390 111.57 88.25 10.61
11241 16.2400 91.66 88.25 9.62
11242 16.2410 96.33 88.26 9.90
11243 16.2420 97.24 88.26 10.02
11244 16.2430 100.85 88.26 10.23
11245 16.2440 101.64 88.26 10.22
11246 16.2450 109.01 88.26 10.51
11247 16.2460 100.60 88.26 10.12
11248 16.2470 83.88 88.26 9.25
11249 16.2480 105.69 88.26 10.38
11250 16.2490 101.92 88.27 10.12
11251 16.2500 92.10 88.27 9.68
11252 16.2510 98.68 88.27 9.97
11253 16.2520 109.31 88.27 10.62
11254 16.2530 93.68 88.27 9.81
11255 16.2540 103.90 88.27 10.31
11256 16.2550 99.54 88.28 10.02
11257 16.2560 103.72 88.28 10.28
11258 16.2570 98.48 88.28 10.02
11259 16.2580 90.87 88.28 9.68
11260 16.2590 91.16 88.28 9.61
11261 16.2600 89.06 88.28 9.47
11262 16.2610 91.01 88.29 9.56
11263 16.2620 85.60 88.29 9.36
11264 16.2630 84.29 88.29 9.31
11265 16.2640 99.44 88.29 10.04
11266 16.2650 98.43 88.29 9.99
11267 16.2660 90.88 88.30 9.62
11268 16.2670 79.10 88.30 9.01
11269 16.2680 96.68 88.30 9.98
11270 16.2690 105.61 88.30 10.35
11271 16.2700 107.54 88.30 10.45
11272 16.2710 108.77 88.31 10.46
11273 16.2720 92.76 88.31 9.76
11274 16.2730 95.64 88.31 9.92
11275 16.2740 90.74 88.31 9.63
11276 16.2750 94.58 88.31 9.77
11277 16.2760 118.92 88.32 10.97
11278 16.2770 104.49 88.32 10.35
11279 16.2780 100.79 88.32 10.20
11280 16.2790 95.36 88.32 9.84
11281 16.2800 103.25 88.32 10.19
11282 16.2810 99.80 88.33 10.04
11283 16.2820 88.70 88.33 9.52
11284 16.2830 119.04 88.33 11.08
11285 16.2840 100.32 88.33 10.13
11286 16.2850 92.17 88.33 9.65
11287 16.2860 117.07 88.34 10.87
11288 16.2870 89.06 88.34 9.50
11289 16.2880 126.76 88.34 11.33
11290 16.2890 119.00 88.34 10.93
11291 16.2900 102.88 88.35 10.17
11292 16.2910 98.18 88.35 9.97
11293 16.2920 108.67 88.35 10.56
11294 16.2930 103.76 88.35 10.38
11295 16.2940 103.71 88.35 10.28
11296 16.2950 86.03 88.36 9.38
11297 16.2960 110.17 88.36 10.56
11298 16.2970 99.36 88.36 10.09
11299 16.2980 93.61 88.36 9.78
11300 16.2990 110.29 88.37 10.55
11301 16.3000 100.97 88.37 10.09
11302 16.3010 100.05 88.37 10.07
11303 16.3020 106.29 88.37 10.47
11304 16.3030 113.92 88.38 10.85
11305 16.3040 87.93 88.38 9.51
11306 16.3050 98.37 88.38 9.95
11307 16.3060 99.61 88.38 10.11
11308 16.3070 107.07 88.38 10.46
11309 16.3080 98.22 88.39 10.04
11310 16.3090 98.13 88.39 9.96
11311 16.3100 104.79 88.39 10.31
11312 16.3110 94.48 88.39 9.74
11313 16.3120 113.17 88.40 10.71
11314 16.3130 115.34 88.40 10.89
11315 16.3140 93.05 88.40 9.73
11316 16.3150 87.34 88.40 9.42
11317 16.3160 84.80 88.41 9.29
11318 16.3170 93.44 88.41 9.79
11319 16.3180 99.06 88.41 10.12
11320 16.3190 111.21 88.41 10.64
11321 16.3200 129.15 88.42 11.44
11322 16.3210 114.90 88.42 10.79
11323 16.3220 107.98 88.42 10.50
11324 16.3230 112.17 88.42 10.75
11325 16.3240 113.30 88.43 10.73
11326 16.3250 101.50 88.43 10.14
11327 16.3260 115.82 88.43 10.84
11328 16.3270 112.09 88.43 10.69
11329 16.3280 113.77 88.43 10.81
11330 16.3290 113.48 88.44 10.69
11331 16.3300 90.16 88.44 9.52
11332 16.3310 97.88 88.44 9.96
11333 16.3320 91.43 88.44 9.69
11334 16.3330 90.85 88.45 9.66
11335 16.3340 90.87 88.45 9.64
11336 16.3350 101.33 88.45 10.11
11337 16.3360 105.36 88.45 10.31
11338 16.3370 103.32 88.46 10.22
11339 16.3380 103.63 88.46 10.23
11340 16.3390 88.10 88.46 9.42
11341 16.3400 108.53 88.46 10.43
11342 16.3410 93.44 88.47 9.74
11343 16.3420 99.00 88.47 10.10
11344 16.3430 101.63 88.47 10.28
11345 16.3440 118.29 88.47 10.98
11346 16.3450 98.19 88.48 9.97
11347 16.3460 98.31 88.48 9.98
11348 16.3470 113.09 88.48 10.70
11349 16.3480 101.51 88.48 10.16
11350 16.3490 94.75 88.49 9.79
11351 16.3500 101.20 88.49 10.11
11352 16.3510 96.40 88.49 9.85
11353 16.3520 110.11 88.49 10.61
11354 16.3530 96.89 88.50 9.97
11355 16.3540 100.16 88.50 10.11
11356 16.3550 99.75 88.50 10.06
11357 16.3560 95.70 88.50 9.82
11358 16.3570 82.43 88.51 9.18
11359 16.3580 110.74 88.51 10.64
11360 16.3590 108.21 88.51 10.45
11361 16.3600 107.38 88.51 10.37
11362 16.3610 100.33 88.52 10.05
11363 16.3620 101.92 88.52 10.13
11364 16.3630 115.00 88.52 10.85
11365 16.3640 96.43 88.52 9.87
11366 16.3650 108.38 88.53 10.47
11367 16.3660 97.07 88.53 9.94
11368 16.3670 88.54 88.53 9.51
11369 16.3680 84.12 88.53 9.27
11370 16.3690 97.46 88.54 9.96
11371 16.3700 87.14 88.54 9.40
11372 16.3710 96.32 88.53 9.84
11373 16.3720 87.98 88.54 9.48
11374 16.3730 101.88 88.54 10.24
11375 16.3740 92.87 88.54 9.74
11376 16.3750 119.82 88.54 11.03
11377 16.3760 95.62 88.54 9.86
11378 16.3770 100.49 88.54 10.12
11379 16.3780 96.84 88.55 9.98
11380 16.3790 93.65 88.55 9.75
11381 16.3800 106.41 88.55 10.37
11382 16.3810 111.11 88.55 10.61
11383 16.3820 116.68 88.56 10.94
11384 16.3830 106.76 88.56 10.46
11385 16.3840 102.55 88.56 10.21
11386 16.3850 94.96 88.56 9.76
11387 16.3860 105.33 88.57 10.32
11388 16.3870 113.12 88.57 10.67
11389 16.3880 96.19 88.57 9.92
11390 16.3890 98.09 88.57 9.96
11391 16.3900 87.09 88.58 9.37
11392 16.3910 96.20 88.58 9.92
11393 16.3920 114.49 88.58 10.82
11394 16.3930 110.93 88.58 10.70
11395 16.3940 106.04 88.59 10.39
11396 16.3950 100.95 88.59 10.12
11397 16.3960 107.43 88.59 10.44
11398 16.3970 104.24 88.59 10.27
11399 16.3980 99.74 88.60 10.08
11400 16.3990 103.99 88.60 10.27
11401 16.4000 95.88 88.60 9.84
11402 16.4010 96.39 88.60 9.87
11403 16.4020 101.25 88.61 10.20
11404 16.4030 93.20 88.61 9.79
11405 16.4040 79.65 88.61 9.01
11406 16.4050 97.42 88.62 9.95
11407 16.4060 104.59 88.62 10.33
11408 16.4070 109.39 88.62 10.59
11409 16.4080 94.57 88.62 9.82
11410 16.4090 92.41 88.63 9.67
11411 16.4100 93.99 88.63 9.70
11412 16.4110 98.18 88.63 9.92
11413 16.4120 90.35 88.63 9.58
11414 16.4130 105.82 88.64 10.41
11415 16.4140 120.82 88.64 11.07
11416 16.4150 94.23 88.64 9.79
11417 16.4160 103.26 88.64 10.22
11418 16.4170 92.14 88.65 9.72
11419 16.4180 99.38 88.65 10.08
11420 16.4190 93.77 88.65 9.75
11421 16.4200 102.43 88.65 10.13
11422 16.4210 88.32 88.66 9.49
11423 16.4220 101.18 88.66 10.15
11424 16.4230 95.61 88.66 9.92
11425 16.4240 115.89 88.66 10.87
11426 16.4250 107.28 88.67 10.43
11427 16.4260 106.29 88.67 10.41
11428 16.4270 111.99 88.67 10.66
11429 16.4280 105.89 88.67 10.40
11430 16.4290 109.76 88.68 10.54
11431 16.4300 121.96 88.68 11.11
11432 16.4310 104.97 88.68 10.29
11433 16.4320 103.81 88.68 10.29
11434 16.4330 91.26 88.69 9.71
11435 16.4340 106.39 88.69 10.41
11436 16.4350 103.90 88.69 10.23
11437 16.4360 100.21 88.70 10.01
11438 16.4370 112.00 88.70 10.63
11439 16.4380 95.49 88.70 9.84
11440 16.4390 95.80 88.70 9.82
11441 16.4400 92.82 88.71 9.67
11442 16.4410 114.13 88.71 10.79
11443 16.4420 90.27 88.71 9.66
11444 16.4430 94.25 88.71 9.87
11445 16.4440 100.91 88.72 10.15
11446 16.4450 80.55 88.72 9.04
11447 16.4460 93.64 88.72 9.75
11448 16.4470 102.58 88.73 10.22
11449 16.4480 94.36 88.73 9.80
11450 16.4490 118.98 88.73 10.96
11451 16.4500 100.23 88.74 10.07
11452 16.4510 111.98 88.74 10.65
11453 16.4520 105.33 88.74 10.42
11454 16.4530 85.88 88.75 9.43
11455 16.4540 95.96 88.75 9.92
11456 16.4550 102.72 88.75 10.23
11457 16.4560 97.33 88.76 9.94
11458 16.4570 110.62 88.76 10.59
11459 16.4580 103.70 88.77 10.33
11460 16.4590 103.27 88.77 10.19
11461 16.4600 112.00 88.78 10.61
11462 16.4610 104.30 88.79 10.21
11463 16.4620 107.57 88.81 10.45
11464 16.4630 110.41 88.83 10.68
11465 16.4640 97.89 88.85 9.97
11466 16.4650 112.57 88.88 10.73
11467 16.4660 105.14 88.91 10.34
11468 16.4670 95.91 88.93 9.94
11469 16.4680 91.92 88.93 9.71
11470 16.4690 105.21 88.92 10.33
11471 16.4700 95.50 88.90 9.80
11472 16.4710 103.55 88.88 10.21
11473 16.4720 98.86 88.86 10.05
11474 16.4730 101.74 88.84 10.23
11475 16.4740 92.78 88.83 9.77
11476 16.4750 85.69 88.82 9.36
11477 16.4760 113.44 88.82 10.74
11478 16.4770 104.78 88.82 10.36
11479 16.4780 87.60 88.82 9.50
11480 16.4790 113.76 88.82 10.75
11481 16.4800 101.83 88.82 10.11
11482 16.4810 83.36 88.82 9.18
11483 16.4820 75.74 88.82 8.82
11484 16.4830 90.37 88.82 9.64
11485 16.4840 87.36 88.82 9.42
11486 16.4850 93.28 88.82 9.72
11487 16.4860 86.09 88.82 9.36
11488 16.4870 116.32 88.83 10.89
11489 16.4880 96.20 88.83 9.91
11490 16.4890 81.81 88.83 9.13
11491 16.4900 123.23 88.83 11.20
11492 16.4910 108.80 88.83 10.52
11493 16.4920 111.08 88.84 10.68
11494 16.4930 104.49 88.84 10.38
11495 16.4940 117.58 88.84 10.96
11496 16.4950 98.81 88.84 10.02
11497 16.4960 106.60 88.85 10.38
11498 16.4970 106.99 88.85 10.48
11499 16.4980 88.21 88.85 9.50
11500 16.4990 120.91 88.85 11.13
11501 16.5000 105.23 88.86 10.30
11502 16.5010 88.28 88.86 9.49
11503 16.5020 98.43 88.86 10.07
11504 16.5030 99.36 88.86 10.16
11505 16.5040 119.79 88.86 11.07
11506 16.5050 100.03 88.87 10.09
11507 16.5060 100.25 88.87 10.09
11508 16.5070 99.60 88.87 10.08
11509 16.5080 111.43 88.87 10.65
11510 16.5090 99.90 88.88 10.07
11511 16.5100 99.58 88.88 10.00
11512 16.5110 101.67 88.88 10.11
11513 16.5120 92.70 88.88 9.70
11514 16.5130 83.02 88.89 9.26
11515 16.5140 107.40 88.89 10.51
11516 16.5150 111.24 88.89 10.65
11517 16.5160 101.70 88.89 10.21
11518 16.5170 90.28 88.90 9.64
11519 16.5180 94.69 88.90 9.89
11520 16.5190 110.37 88.90 10.59
11521 16.5200 95.21 88.90 9.81
11522 16.5210 97.02 88.91 9.94
11523 16.5220 116.69 88.91 10.93
11524 16.5230 111.89 88.91 10.75
11525 16.5240 107.15 88.91 10.43
11526 16.5250 104.50 88.92 10.29
11527 16.5260 91.74 88.92 9.68
11528 16.5270 114.38 88.92 10.84
11529 16.5280 100.63 88.92 10.18
11530 16.5290 104.78 88.93 10.37
11531 16.5300 104.34 88.93 10.29
11532 16.5310 116.26 88.93 10.85
11533 16.5320 109.20 88.93 10.60
11534 16.5330 101.10 88.93 10.19
11535 16.5340 106.75 88.94 10.43
11536 16.5350 109.23 88.94 10.48
11537 16.5360 106.82 88.94 10.41
11538 16.5370 102.18 88.94 10.25
11539 16.5380 102.66 88.95 10.27
11540 16.5390 92.51 88.95 9.73
11541 16.5400 97.72 88.95 9.94
11542 16.5410 97.76 88.95 9.98
11543 16.5420 101.50 88.96 10.20
11544 16.5430 99.25 88.96 10.14
11545 16.5440 89.87 88.96 9.59
11546 16.5450 92.76 88.96 9.73
11547 16.5460 113.12 88.97 10.69
11548 16.5470 113.40 88.97 10.82
11549 16.5480 90.57 88.97 9.63
11550 16.5490 109.38 88.97 10.53
11551 16.5500 99.65 88.98 10.07
11552 16.5510 87.89 88.98 9.44
11553 16.5520 121.25 88.98 11.16
11554 16.5530 99.54 88.98 10.13
11555 16.5540 111.46 88.99 10.71
11556 16.5550 109.19 88.99 10.55
11557 16.5560 119.24 88.99 11.00
11558 16.5570 110.96 88.99 10.65
11559 16.5580 99.35 88.99 10.09
11560 16.5590 86.23 89.00 9.36
11561 16.5600 95.81 89.00 9.78
11562 16.5610 83.80 89.00 9.21
11563 16.5620 104.93 89.00 10.38
11564 16.5630 107.27 89.01 10.50
11565 16.5640 106.75 89.01 10.47
11566 16.5650 92.03 89.01 9.69
11567 16.5660 98.43 89.01 10.02
11568 16.5670 92.87 89.02 9.77
11569 16.5680 104.28 89.02 10.33
11570 16.5690 108.97 89.02 10.53
11571 16.5700 86.03 89.02 9.31
11572 16.5710 104.12 89.03 10.30
11573 16.5720 93.61 89.03 9.80
11574 16.5730 102.07 89.03 10.27
11575 16.5740 94.08 89.03 9.83
11576 16.5750 96.83 89.04 9.97
11577 16.5760 98.97 89.04 10.04
11578 16.5770 90.18 89.04 9.62
11579 16.5780 111.05 89.04 10.68
11580 16.5790 98.47 89.04 10.01
11581 16.5800 100.26 89.05 10.07
11582 16.5810 104.57 89.05 10.29
11583 16.5820 108.92 89.05 10.59
11584 16.5830 87.59 89.05 9.51
11585 16.5840 103.34 89.06 10.25
11586 16.5850 97.24 89.06 9.92
11587 16.5860 106.28 89.06 10.40
11588 16.5870 107.89 89.06 10.51
11589 16.5880 86.98 89.07 9.42
11590 16.5890 97.27 89.07 9.94
11591 16.5900 105.99 89.07 10.39
11592 16.5910 84.22 89.07 9.26
11593 16.5920 85.39 89.08 9.38
11594 16.5930 101.17 89.08 10.22
11595 16.5940 106.24 89.08 10.39
11596 16.5950 109.87 89.08 10.56
11597 16.5960 105.44 89.08 10.36
11598 16.5970 103.55 89.09 10.27
11599 16.5980 94.57 89.09 9.88
11600 16.5990 109.81 89.09 10.60
11601 16.6000 111.55 89.09 10.66
11602 16.6010 102.35 89.10 10.21
11603 16.6020 91.55 89.10 9.73
11604 16.6030 92.27 89.10 9.79
11605 16.6040 98.31 89.10 10.07
11606 16.6050 84.94 89.11 9.28
11607 16.6060 92.72 89.11 9.71
11608 16.6070 90.86 89.11 9.61
11609 16.6080 106.90 89.11 10.45
11610 16.6090 86.74 89.12 9.36
11611 16.6100 100.94 89.12 10.08
11612 16.6110 92.76 89.12 9.69
11613 16.6120 90.05 89.12 9.63
11614 16.6130 116.42 89.12 10.96
11615 16.6140 108.71 89.13 10.56
11616 16.6150 93.04 89.13 9.74
11617 16.6160 104.37 89.13 10.29
11618 16.6170 89.19 89.13 9.55
11619 16.6180 105.26 89.14 10.39
11620 16.6190 115.55 89.14 10.82
11621 16.6200 112.23 89.14 10.65
11622 16.6210 108.07 89.14 10.46
11623 16.6220 87.74 89.15 9.47
11624 16.6230 90.57 89.15 9.70
11625 16.6240 86.94 89.15 9.46
11626 16.6250 92.99 89.15 9.71
11627 16.6260 100.60 89.15 10.15
11628 16.6270 99.63 89.16 10.14
11629 16.6280 109.55 89.16 10.62
11630 16.6290 107.01 89.16 10.45
11631 16.6300 106.50 89.16 10.40
11632 16.6310 106.76 89.17 10.36
11633 16.6320 99.43 89.17 10.06
11634 16.6330 111.19 89.17 10.69
11635 16.6340 100.55 89.17 10.09
11636 16.6350 102.72 89.18 10.20
11637 16.6360 82.85 89.18 9.17
11638 16.6370 95.38 89.18 9.90
11639 16.6380 93.78 89.18 9.81
11640 16.6390 91.81 89.18 9.65
11641 16.6400 97.14 89.19 9.89
11642 16.6410 111.37 89.19 10.60
11643 16.6420 94.97 89.19 9.87
11644 16.6430 89.59 89.19 9.65
11645 16.6440 99.69 89.20 10.08
11646 16.6450 110.44 89.20 10.63
11647 16.6460 91.04 89.20 9.64
11648 16.6470 93.77 89.20 9.79
11649 16.6480 95.46 89.21 9.86
11650 16.6490 112.84 89.21 10.72
11651 16.6500 95.87 89.21 9.85
11652 16.6510 97.08 89.21 9.93
11653 16.6520 105.67 89.21 10.45
11654 16.6530 92.26 89.22 9.78
11655 16.6540 100.38 89.22 10.13
11656 16.6550 99.76 89.22 10.08
11657 16.6560 106.50 89.22 10.40
11658 16.6570 101.81 89.23 10.17
11659 16.6580 97.11 89.23 9.94
11660 16.6590 91.60 89.23 9.61
11661 16.6600 102.66 89.23 10.20
11662 16.6610 84.10 89.24 9.24
11663 16.6620 96.66 89.24 10.00
11664 16.6630 100.70 89.24 10.21
11665 16.6640 98.68 89.24 10.04
11666 16.6650 85.55 89.24 9.33
11667 16.6660 86.66 89.25 9.37
11668 16.6670 88.84 89.25 9.55
11669 16.6680 98.47 89.25 10.03
11670 16.6690 92.52 89.25 9.71
11671 16.6700 96.23 89.26 9.86
11672 16.6710 96.28 89.26 9.89
11673 16.6720 99.49 89.26 10.11
11674 16.6730 86.70 89.26 9.47
11675 16.6740 100.80 89.26 10.18
11676 16.6750 107.82 89.27 10.50
11677 16.6760 105.24 89.27 10.37
11678 16.6770 99.12 89.27 10.06
11679 16.6780 94.38 89.27 9.88
11680 16.6790 101.11 89.28 10.15
11681 16.6800 105.02 89.28 10.25
11682 16.6810 113.16 89.28 10.72
11683 16.6820 108.48 89.28 10.47
11684 16.6830 94.78 89.28 9.87
11685 16.6840 90.84 89.29 9.61
11686 16.6850 110.25 89.29 10.55
11687 16.6860 96.51 89.29 9.92
11688 16.6870 97.27 89.29 9.99
11689 16.6880 128.22 89.30 11.44
11690 16.6890 98.29 89.30 9.98
11691 16.6900 89.25 89.30 9.50
11692 16.6910 97.21 89.30 9.92
11693 16.6920 93.42 89.31 9.75
11694 16.6930 80.21 89.31 9.10
11695 16.6940 112.87 89.31 10.73
11696 16.6950 112.79 89.31 10.74
11697 16.6960 94.98 89.31 9.87
11698 16.6970 95.09 89.32 9.85
11699 16.6980 101.94 89.32 10.26
11700 16.6990 90.18 89.32 9.60
11701 16.7000 96.94 89.43 9.90
11702 16.7010 74.33 89.44 8.71
11703 16.7020 88.55 89.49 9.54
11704 16.7030 104.62 89.50 10.42
11705 16.7040 87.32 89.50 9.47
11706 16.7050 95.19 89.50 9.82
11707 16.7060 75.43 89.51 8.74
11708 16.7070 86.18 89.51 9.35
11709 16.7080 89.26 89.51 9.55
11710 16.7090 81.75 89.52 9.11
11711 16.7100 96.50 89.52 9.87
11712 16.7110 109.97 89.53 10.53
11713 16.7120 121.95 89.53 11.17
11714 16.7130 109.34 89.53 10.66
11715 16.7140 111.06 89.54 10.64
11716 16.7150 111.68 89.54 10.63
11717 16.7160 100.90 89.54 10.11
11718 16.7170 97.90 89.55 10.01
11719 16.7180 104.31 89.55 10.35
11720 16.7190 95.20 89.56 9.82
11721 16.7200 98.37 89.56 9.97
11722 16.7210 105.98 89.56 10.40
11723 16.7220 96.61 89.57 9.94
11724 16.7230 100.02 89.57 10.17
11725 16.7240 96.03 89.58 9.90
11726 16.7250 97.80 89.58 10.01
11727 16.7260 93.69 89.58 9.77
11728 16.7270 100.76 89.59 10.16
11729 16.7280 99.26 89.59 10.08
11730 16.7290 94.61 89.60 9.81
11731 16.7300 81.09 89.60 9.01
11732 16.7310 92.65 89.61 9.67
11733 16.7320 100.75 89.61 10.13
11734 16.7330 101.82 89.61 10.23
11735 16.7340 80.34 89.62 9.05
11736 16.7350 100.99 89.62 10.15
11737 16.7360 105.20 89.63 10.35
11738 16.7370 107.99 89.63 10.51
11739 16.7380 110.18 89.64 10.66
11740 16.7390 101.47 89.64 10.15
11741 16.7400 93.85 89.65 9.76
11742 16.7410 93.61 89.65 9.73
11743 16.7420 99.05 89.65 10.08
11744 16.7430 102.57 89.66 10.29
11745 16.7440 108.69 89.66 10.56
11746 16.7450 103.07 89.67 10.20
11747 16.7460 93.09 89.67 9.72
11748 16.7470 92.49 89.68 9.70
11749 16.7480 104.14 89.68 10.32
11750 16.7490 107.09 89.69 10.40
11751 16.7500 103.46 89.69 10.23
11752 16.7510 95.06 89.70 9.86
11753 16.7520 97.29 89.70 9.99
11754 16.7530 103.33 89.71 10.33
11755 16.7540 95.01 89.71 9.84
11756 16.7550 82.80 89.72 9.16
11757 16.7560 93.75 89.72 9.72
11758 16.7570 94.44 89.73 9.79
11759 16.7580 101.96 89.73 10.18
11760 16.7590 115.41 89.74 10.82
11761 16.7600 95.17 89.75 9.79
11762 16.7610 93.80 89.75 9.78
11763 16.7620 103.40 89.76 10.28
11764 16.7630 102.35 89.76 10.29
11765 16.7640 103.85 89.77 10.30
11766 16.7650 101.46 89.77 10.12
11767 16.7660 99.73 89.78 10.02
11768 16.7670 103.73 89.79 10.26
11769 16.7680 92.64 89.79 9.73
11770 16.7690 100.30 89.80 10.08
11771 16.7700 87.21 89.80 9.38
11772 16.7710 106.44 89.81 10.37
11773 16.7720 104.38 89.82 10.31
11774 16.7730 100.54 89.82 10.19
11775 16.7740 95.67 89.83 9.87
11776 16.7750 99.08 89.83 10.03
11777 16.7760 99.28 89.84 10.06
11778 16.7770 94.48 89.85 9.85
11779 16.7780 96.55 89.85 9.93
11780 16.7790 96.79 89.86 9.92
11781 16.7800 105.83 89.87 10.31
11782 16.7810 101.56 89.88 10.13
11783 16.7820 91.68 89.88 9.68
11784 16.7830 105.87 89.89 10.42
11785 16.7840 86.99 89.90 9.42
11786 16.7850 94.21 89.90 9.81
11787 16.7860 98.37 89.91 10.01
11788 16.7870 106.98 89.92 10.47
11789 16.7880 82.04 89.93 9.15
11790 16.7890 108.43 89.93 10.49
11791 16.7900 88.32 89.94 9.42
11792 16.7910 99.25 89.95 9.99
11793 16.7920 119.32 89.96 10.99
11794 16.7930 90.24 89.97 9.64
11795 16.7940 87.23 89.98 9.42
11796 16.7950 92.59 89.98 9.72
11797 16.7960 101.44 89.99 10.14
11798 16.7970 112.09 90.00 10.71
11799 16.7980 93.07 90.01 9.77
11800 16.7990 88.69 90.02 9.52
11801 16.8000 92.54 90.03 9.66
11802 16.8010 94.90 90.04 9.79
11803 16.8020 100.74 90.05 10.19
11804 16.8030 116.84 90.06 10.98
11805 16.8040 81.21 90.07 9.10
11806 16.8050 90.53 90.08 9.56
11807 16.8060 108.16 90.09 10.45
11808 16.8070 97.63 90.10 9.93
11809 16.8080 126.31 90.11 11.36
11810 16.8090 112.60 90.12 10.67
11811 16.8100 97.60 90.13 9.93
11812 16.8110 90.77 90.14 9.58
11813 16.8120 99.02 90.15 10.08
11814 16.8130 99.56 90.16 10.14
11815 16.8140 104.68 90.18 10.30
11816 16.8150 92.05 90.19 9.66
11817 16.8160 82.56 90.20 9.12
11818 16.8170 107.42 90.21 10.46
11819 16.8180 95.09 90.23 9.85
11820 16.8190 109.21 90.24 10.51
11821 16.8200 95.26 90.25 9.81
11822 16.8210 104.45 90.27 10.27
11823 16.8220 99.70 90.28 10.12
11824 16.8230 106.10 90.30 10.46
11825 16.8240 107.82 90.31 10.52
11826 16.8250 109.32 90.33 10.55
11827 16.8260 125.96 90.34 11.36
11828 16.8270 119.15 90.36 10.99
11829 16.8280 102.44 90.37 10.22
11830 16.8290 94.89 90.39 9.77
11831 16.8300 96.43 90.41 9.82
11832 16.8310 91.01 90.43 9.54
11833 16.8320 92.33 90.44 9.69
11834 16.8330 92.61 90.46 9.72
11835 16.8340 116.35 90.48 10.90
11836 16.8350 98.30 90.50 10.01
11837 16.8360 102.04 90.52 10.16
11838 16.8370 88.97 90.54 9.53
11839 16.8380 100.32 90.56 10.11
11840 16.8390 103.30 90.58 10.22
11841 16.8400 100.68 90.61 10.07
11842 16.8410 106.01 90.63 10.31
11843 16.8420 110.39 90.65 10.64
11844 16.8430 101.66 90.68 10.22
11845 16.8440 99.65 90.70 10.07
11846 16.8450 101.79 90.73 10.14
11847 16.8460 93.17 90.76 9.70
11848 16.8470 82.89 90.78 9.19
11849 16.8480 106.04 90.81 10.44
11850 16.8490 105.63 90.84 10.37
11851 16.8500 103.83 90.87 10.26
11852 16.8510 114.91 90.90 10.78
11853 16.8520 116.12 90.94 10.91
11854 16.8530 105.15 90.97 10.38
11855 16.8540 127.56 91.00 11.34
11856 16.8550 76.07 91.04 8.77
11857 16.8560 101.02 91.08 10.12
11858 16.8570 96.49 91.12 9.91
11859 16.8580 82.25 91.16 9.17
11860 16.8590 95.43 91.20 9.86
11861 16.8600 96.03 91.24 9.87
11862 16.8610 102.64 91.28 10.20
11863 16.8620 95.88 91.33 9.87
11864 16.8630 99.98 91.38 10.14
11865 16.8640 90.94 91.43 9.64
11866 16.8650 112.11 91.48 10.64
11867 16.8660 98.78 91.54 10.01
11868 16.8670 81.01 91.59 9.10
11869 16.8680 98.69 91.65 10.05
11870 16.8690 110.81 91.71 10.59
11871 16.8700 89.43 91.78 9.50
11872 16.8710 96.97 91.85 9.90
11873 16.8720 91.65 91.92 9.68
11874 16.8730 107.52 91.99 10.53
11875 16.8740 102.37 92.07 10.22
11876 16.8750 90.21 92.15 9.59
11877 16.8760 107.50 92.23 10.47
11878 16.8770 101.96 92.32 10.19
11879 16.8780 115.57 92.42 10.84
11880 16.8790 94.67 92.52 9.80
11881 16.8800 97.10 92.62 9.89
11882 16.8810 101.96 92.73 10.09
11883 16.8820 97.87 92.85 10.01
11884 16.8830 98.23 92.97 10.08
11885 16.8840 90.24 93.10 9.60
11886 16.8850 94.81 93.24 9.84
11887 16.8860 102.75 93.38 10.20
11888 16.8870 110.76 93.54 10.65
11889 16.8880 99.15 93.70 10.03
11890 16.8890 111.51 93.88 10.62
11891 16.8900 107.63 94.06 10.40
11892 16.8910 109.08 94.26 10.52
11893 16.8920 117.48 94.47 10.96
11894 16.8930 112.98 94.70 10.80
11895 16.8940 99.75 94.95 10.09
11896 16.8950 98.47 95.21 9.99
11897 16.8960 100.15 95.49 10.09
11898 16.8970 131.39 95.79 11.58
11899 16.8980 103.62 96.12 10.31
11900 16.8990 123.49 96.48 11.22
11901 16.9000 93.74 96.86 9.74
11902 16.9010 91.81 97.28 9.63
11903 16.9020 104.94 97.74 10.36
11904 16.9030 98.56 98.24 10.07
11905 16.9040 92.28 98.78 9.67
11906 16.9050 116.13 99.38 10.84
11907 16.9060 112.77 100.04 10.66
11908 16.9070 115.84 100.77 10.89
11909 16.9080 120.29 101.58 11.08
11910 16.9090 114.78 102.49 10.77
11911 16.9100 105.25 103.50 10.32
11912 16.9110 108.37 104.63 10.49
11913 16.9120 108.50 105.90 10.51
11914 16.9130 97.66 107.35 10.04
11915 16.9140 94.46 108.99 9.80
11916 16.9150 117.73 110.88 10.92
11917 16.9160 111.22 113.05 10.62
11918 16.9170 126.46 115.57 11.34
11919 16.9180 108.69 118.51 10.55
11920 16.9190 113.99 121.99 10.76
11921 16.9200 110.17 126.12 10.55
11922 16.9210 138.46 131.07 11.85
11923 16.9220 136.67 137.12 11.83
11924 16.9230 143.85 144.62 12.21
11925 16.9240 185.17 154.10 13.78
11926 16.9250 164.28 166.43 12.92
11927 16.9260 171.83 182.99 13.18
11928 16.9270 209.00 205.62 14.57
11929 16.9280 265.06 237.06 16.37
11930 16.9290 307.56 280.88 17.66
11931 16.9300 361.64 340.52 18.97
11932 16.9310 401.89 419.08 20.13
11933 16.9320 530.51 516.34 23.37
11934 16.9330 605.90 622.63 25.00
11935 16.9340 715.86 713.18 27.11
11936 16.9350 822.42 756.31 28.98
11937 16.9360 802.47 737.59 28.47
11938 16.9370 736.88 668.64 27.28
11939 16.9380 611.65 572.05 25.06
11940 16.9390 506.70 471.87 22.62
11941 16.9400 449.33 383.78 21.25
11942 16.9410 342.75 314.10 18.63
11943 16.9420 280.12 261.74 16.97
11944 16.9430 238.10 223.42 15.67
11945 16.9440 200.21 195.88 14.29
11946 16.9450 181.51 175.92 13.56
11947 16.9460 175.42 161.18 13.33
11948 16.9470 152.02 150.05 12.46
11949 16.9480 151.31 141.43 12.47
11950 16.9490 165.55 134.55 13.01
11951 16.9500 166.50 128.98 12.95
11952 16.9510 123.75 124.39 11.20
11953 16.9520 131.91 120.55 11.60
11954 16.9530 121.09 117.31 11.15
11955 16.9540 118.85 114.55 11.00
11956 16.9550 114.49 112.19 10.77
11957 16.9560 115.68 110.14 10.80
11958 16.9570 117.31 108.37 10.94
11959 16.9580 110.67 106.81 10.65
11960 16.9590 121.93 105.44 11.17
11961 16.9600 101.59 104.24 10.13
11962 16.9610 126.04 103.16 11.27
11963 16.9620 111.33 102.20 10.67
11964 16.9630 109.49 101.34 10.62
11965 16.9640 104.20 100.57 10.29
11966 16.9650 92.35 99.87 9.70
11967 16.9660 103.76 99.24 10.28
11968 16.9670 98.77 98.67 10.03
11969 16.9680 103.67 98.15 10.29
11970 16.9690 109.02 97.67 10.49
11971 16.9700 100.28 97.23 10.06
11972 16.9710 84.37 96.83 9.23
11973 16.9720 112.57 96.47 10.75
11974 16.9730 95.52 96.13 9.90
11975 16.9740 101.99 95.81 10.24
11976 16.9750 106.34 95.52 10.41
11977 16.9760 118.34 95.25 10.96
11978 16.9770 112.82 95.00 10.73
11979 16.9780 111.46 94.77 10.65
11980 16.9790 113.34 94.55 10.74
11981 16.9800 124.07 94.35 11.16
11982 16.9810 94.16 94.16 9.75
11983 16.9820 96.28 93.98 9.95
11984 16.9830 88.56 93.81 9.60
11985 16.9840 99.66 93.66 10.09
11986 16.9850 86.02 93.51 9.36
11987 16.9860 96.47 93.37 9.91
11988 16.9870 99.07 93.24 10.03
11989 16.9880 115.43 93.12 10.83
11990 16.9890 90.82 93.00 9.59
11991 16.9900 90.07 92.89 9.53
11992 16.9910 112.54 92.79 10.68
11993 16.9920 106.30 92.69 10.48
11994 16.9930 98.45 92.60 10.06
11995 16.9940 87.14 92.51 9.46
11996 16.9950 102.17 92.43 10.14
11997 16.9960 94.31 92.35 9.77
11998 16.9970 94.25 92.27 9.82
11999 16.9980 91.14 92.20 9.65
12000 16.9990 102.18 92.13 10.24
12001 17.0000 108.78 92.07 10.48
12002 17.0010 97.00 92.00 9.91
12003 17.0020 104.47 91.94 10.34
12004 17.0030 112.09 91.89 10.74
12005 17.0040 89.88 91.83 9.57
12006 17.0050 102.23 91.78 10.19
12007 17.0060 89.96 91.73 9.57
12008 17.0070 101.86 91.68 10.24
12009 17.0080 114.23 91.64 10.86
12010 17.0090 102.37 91.59 10.18
12011 17.0100 111.55 91.55 10.59
12012 17.0110 99.38 91.51 10.01
12013 17.0120 97.77 91.47 9.99
12014 17.0130 93.65 91.44 9.78
12015 17.0140 83.90 91.40 9.25
12016 17.0150 93.66 91.37 9.75
12017 17.0160 87.21 91.33 9.41
12018 17.0170 91.69 91.30 9.66
12019 17.0180 91.70 91.27 9.66
12020 17.0190 101.75 91.24 10.16
12021 17.0200 90.26 91.22 9.52
12022 17.0210 102.50 91.19 10.19
12023 17.0220 95.86 91.16 9.95
12024 17.0230 110.42 91.14 10.65
12025 17.0240 90.45 91.11 9.64
12026 17.0250 109.36 91.09 10.51
12027 17.0260 100.41 91.07 10.10
12028 17.0270 98.24 91.05 9.99
12029 17.0280 121.84 91.02 11.11
12030 17.0290 109.18 91.00 10.50
12031 17.0300 94.96 90.98 9.75
12032 17.0310 96.46 90.97 9.92
12033 17.0320 85.41 90.95 9.36
12034 17.0330 95.40 90.93 9.91
12035 17.0340 110.29 90.91 10.61
12036 17.0350 103.07 90.90 10.22
12037 17.0360 102.99 90.88 10.18
12038 17.0370 99.09 90.86 9.99
12039 17.0380 92.98 90.85 9.74
12040 17.0390 83.31 90.84 9.22
12041 17.0400 92.28 90.82 9.65
12042 17.0410 96.02 90.81 9.83
12043 17.0420 101.80 90.79 10.23
12044 17.0430 100.14 90.78 10.18
12045 17.0440 110.84 90.77 10.61
12046 17.0450 92.09 90.76 9.65
12047 17.0460 89.25 90.75 9.56
12048 17.0470 91.14 90.73 9.70
12049 17.0480 99.28 90.72 10.10
12050 17.0490 97.68 90.71 9.96
12051 17.0500 91.79 90.70 9.62
12052 17.0510 99.93 90.69 10.02
12053 17.0520 121.87 90.68 11.15
12054 17.0530 100.92 90.67 10.12
12055 17.0540 122.66 90.66 11.15
12056 17.0550 97.41 90.66 9.98
12057 17.0560 96.23 90.65 9.92
12058 17.0570 120.73 90.64 11.11
12059 17.0580 97.05 90.63 9.96
12060 17.0590 96.58 90.62 9.88
12061 17.0600 93.31 90.62 9.69
12062 17.0610 93.26 90.61 9.66
12063 17.0620 82.51 90.60 9.21
12064 17.0630 102.18 90.59 10.29
12065 17.0640 104.99 90.59 10.39
12066 17.0650 102.81 90.58 10.21
12067 17.0660 84.89 90.57 9.30
12068 17.0670 114.45 90.57 10.79
12069 17.0680 97.88 90.56 9.98
12070 17.0690 104.83 90.56 10.28
12071 17.0700 98.81 90.55 9.97
12072 17.0710 100.55 90.55 10.09
12073 17.0720 89.56 90.54 9.62
12074 17.0730 87.56 90.54 9.50
12075 17.0740 89.39 90.53 9.58
12076 17.0750 99.62 90.53 10.02
12077 17.0760 99.23 90.52 10.01
12078 17.0770 100.94 90.52 10.09
12079 17.0780 100.58 90.51 10.10
12080 17.0790 119.21 90.51 10.97
12081 17.0800 89.47 90.50 9.53
12082 17.0810 81.12 90.50 9.08
12083 17.0820 94.98 90.49 9.90
12084 17.0830 119.63 90.49 11.11
12085 17.0840 117.86 90.49 10.96
12086 17.0850 104.97 90.48 10.30
12087 17.0860 92.54 90.48 9.63
12088 17.0870 87.43 90.48 9.45
12089 17.0880 89.79 90.47 9.60
12090 17.0890 104.92 90.47 10.31
12091 17.0900 114.02 90.47 10.69
12092 17.0910 101.40 90.46 10.12
12093 17.0920 94.48 90.46 9.83
12094 17.0930 103.27 90.46 10.25
12095 17.0940 91.24 90.45 9.64
12096 17.0950 93.26 90.45 9.71
12097 17.0960 98.57 90.45 10.02
12098 17.0970 90.76 90.45 9.64
12099 17.0980 111.96 90.44 10.70
12100 17.0990 99.91 90.44 10.04
12101 17.1000 93.96 90.44 9.74
12102 17.1010 108.11 90.44 10.42
12103 17.1020 105.14 90.43 10.33
12104 17.1030 96.64 90.43 9.96
12105 17.1040 116.53 90.43 10.89
12106 17.1050 122.28 90.43 11.17
12107 17.1060 96.56 90.43 9.90
12108 17.1070 103.37 90.42 10.31
12109 17.1080 112.90 90.42 10.74
12110 17.1090 76.89 90.42 8.81
12111 17.1100 109.92 90.42 10.51
12112 17.1110 102.39 90.42 10.16
12113 17.1120 103.61 90.42 10.28
12114 17.1130 99.57 90.41 10.14
12115 17.1140 111.63 90.41 10.70
12116 17.1150 85.04 90.41 9.29
12117 17.1160 84.84 90.41 9.28
12118 17.1170 113.34 90.41 10.72
12119 17.1180 87.16 90.41 9.44
12120 17.1190 100.26 90.41 10.08
12121 17.1200 97.54 90.41 9.92
12122 17.1210 100.22 90.40 10.09
12123 17.1220 94.46 90.40 9.87
12124 17.1230 91.84 90.40 9.74
12125 17.1240 100.70 90.40 10.13
12126 17.1250 94.27 90.40 9.77
12127 17.1260 99.44 90.40 10.03
12128 17.1270 99.01 90.40 10.01
12129 17.1280 94.18 90.40 9.83
12130 17.1290 102.95 90.40 10.20
12131 17.1300 104.75 90.40 10.31
12132 17.1310 94.19 90.39 9.81
12133 17.1320 96.66 90.39 9.95
12134 17.1330 96.34 90.39 9.96
12135 17.1340 100.02 90.39 10.11
12136 17.1350 90.49 90.39 9.55
12137 17.1360 108.86 90.39 10.51
12138 17.1370 88.89 90.39 9.48
12139 17.1380 107.82 90.39 10.53
12140 17.1390 99.90 90.39 10.10
12141 17.1400 89.55 90.39 9.49
12142 17.1410 100.59 90.39 10.06
12143 17.1420 94.36 90.39 9.84
12144 17.1430 93.70 90.39 9.86
12145 17.1440 104.16 90.39 10.29
12146 17.1450 86.34 90.39 9.36
12147 17.1460 105.52 90.39 10.37
12148 17.1470 95.31 90.39 9.89
12149 17.1480 99.72 90.39 10.13
12150 17.1490 116.14 90.39 10.81
12151 17.1500 92.57 90.39 9.66
12152 17.1510 114.58 90.39 10.76
12153 17.1520 98.44 90.39 10.00
12154 17.1530 94.07 90.39 9.81
12155 17.1540 91.86 90.39 9.72
12156 17.1550 109.00 90.39 10.58
12157 17.1560 96.41 90.39 9.89
12158 17.1570 102.81 90.39 10.27
12159 17.1580 111.01 90.39 10.63
12160 17.1590 98.20 90.39 9.98
12161 17.1600 100.85 90.39 10.06
12162 17.1610 102.75 90.39 10.14
12163 17.1620 95.23 90.39 9.86
12164 17.1630 104.08 90.39 10.37
12165 17.1640 70.28 90.39 8.50
12166 17.1650 113.15 90.39 10.68
12167 17.1660 97.47 90.39 9.96
12168 17.1670 95.23 90.39 9.88
12169 17.1680 121.83 90.39 11.16
12170 17.1690 93.93 90.39 9.75
12171 17.1700 100.57 90.28 10.05
12172 17.1710 103.08 90.28 10.28
12173 17.1720 106.83 90.23 10.46
12174 17.1730 110.02 90.23 10.66
12175 17.1740 115.22 90.23 10.85
12176 17.1750 92.65 90.23 9.69
12177 17.1760 90.09 90.23 9.55
12178 17.1770 106.62 90.24 10.38
12179 17.1780 120.94 90.24 11.13
12180 17.1790 104.32 90.24 10.29
12181 17.1800 106.33 90.24 10.42
12182 17.1810 96.32 90.24 9.89
12183 17.1820 89.41 90.24 9.61
12184 17.1830 88.02 90.25 9.54
12185 17.1840 102.00 90.25 10.16
12186 17.1850 101.95 90.25 10.17
12187 17.1860 101.42 90.25 10.13
12188 17.1870 105.85 90.25 10.38
12189 17.1880 90.59 90.25 9.64
12190 17.1890 86.55 90.25 9.38
12191 17.1900 107.61 90.26 10.43
12192 17.1910 116.36 90.26 10.84
12193 17.1920 107.43 90.26 10.51
12194 17.1930 96.46 90.26 9.96
12195 17.1940 96.20 90.26 9.90
12196 17.1950 93.40 90.26 9.76
12197 17.1960 110.83 90.27 10.62
12198 17.1970 119.89 90.27 11.06
12199 17.1980 88.22 90.27 9.52
12200 17.1990 106.56 90.27 10.39
12201 17.2000 94.78 90.27 9.79
12202 17.2010 102.11 90.27 10.14
12203 17.2020 92.19 90.27 9.73
12204 17.2030 93.65 90.28 9.84
12205 17.2040 89.75 90.28 9.60
12206 17.2050 109.01 90.28 10.56
12207 17.2060 90.19 90.28 9.58
12208 17.2070 100.35 90.28 10.13
12209 17.2080 106.85 90.28 10.40
12210 17.2090 106.77 90.29 10.37
12211 17.2100 106.61 90.29 10.36
12212 17.2110 93.64 90.29 9.72
12213 17.2120 99.10 90.64 10.10
12214 17.2130 115.48 90.82 10.92
12215 17.2140 81.17 90.82 9.15
12216 17.2150 91.72 90.83 9.67
12217 17.2160 88.23 90.84 9.45
12218 17.2170 106.46 90.84 10.41
12219 17.2180 99.96 90.85 10.11
12220 17.2190 86.96 90.86 9.41
12221 17.2200 101.68 90.86 10.13
12222 17.2210 105.08 90.87 10.36
12223 17.2220 100.06 90.87 10.18
12224 17.2230 130.18 90.88 11.59
12225 17.2240 102.21 90.89 10.21
12226 17.2250 92.93 90.89 9.70
12227 17.2260 93.97 90.90 9.78
12228 17.2270 91.20 90.91 9.66
12229 17.2280 118.23 90.91 11.02
12230 17.2290 96.48 90.92 9.93
12231 17.2300 109.05 90.93 10.50
12232 17.2310 99.96 90.94 10.06
12233 17.2320 104.91 90.94 10.39
12234 17.2330 98.30 90.95 10.03
12235 17.2340 102.06 90.96 10.19
12236 17.2350 82.67 90.96 9.14
12237 17.2360 103.70 90.97 10.25
12238 17.2370 106.03 90.98 10.40
12239 17.2380 97.46 90.99 10.02
12240 17.2390 106.12 90.99 10.39
12241 17.2400 100.92 91.00 10.10
12242 17.2410 98.65 91.01 9.98
12243 17.2420 90.72 91.02 9.67
12244 17.2430 98.59 91.03 10.11
12245 17.2440 117.99 91.03 10.97
12246 17.2450 90.90 91.04 9.63
12247 17.2460 96.74 91.05 9.92
12248 17.2470 112.01 91.06 10.71
12249 17.2480 91.20 91.07 9.67
12250 17.2490 109.73 91.08 10.55
12251 17.2500 104.62 91.08 10.26
12252 17.2510 95.68 91.09 9.84
12253 17.2520 103.94 91.10 10.33
12254 17.2530 89.92 91.11 9.66
12255 17.2540 104.44 91.12 10.36
12256 17.2550 101.93 91.13 10.19
12257 17.2560 99.62 91.14 10.09
12258 17.2570 105.00 91.15 10.34
12259 17.2580 99.78 91.16 10.07
12260 17.2590 87.88 91.17 9.41
12261 17.2600 90.06 91.18 9.52
12262 17.2610 106.05 91.19 10.36
12263 17.2620 96.86 91.20 9.99
12264 17.2630 103.01 91.21 10.32
12265 17.2640 103.76 91.22 10.32
12266 17.2650 88.74 91.23 9.48
12267 17.2660 84.62 91.24 9.29
12268 17.2670 103.15 91.25 10.26
12269 17.2680 100.22 91.26 10.16
12270 17.2690 115.60 91.27 10.84
12271 17.2700 89.08 91.28 9.51
12272 17.2710 112.76 91.33 10.71
12273 17.2720 115.31 91.34 10.92
12274 17.2730 113.33 91.38 10.80
12275 17.2740 122.93 91.42 11.19
12276 17.2750 100.79 91.43 10.12
12277 17.2760 118.54 91.45 10.97
12278 17.2770 85.61 91.46 9.36
12279 17.2780 114.61 91.47 10.86
12280 17.2790 114.14 91.49 10.83
12281 17.2800 102.27 91.50 10.22
12282 17.2810 86.27 91.52 9.38
12283 17.2820 96.70 91.53 9.96
12284 17.2830 120.19 91.55 11.10
12285 17.2840 102.49 91.56 10.21
12286 17.2850 96.49 91.58 9.89
12287 17.2860 96.98 91.59 9.91
12288 17.2870 82.69 91.61 9.22
12289 17.2880 118.87 91.62 11.07
12290 17.2890 100.23 91.64 10.08
12291 17.2900 83.98 91.65 9.23
12292 17.2910 87.41 91.67 9.42
12293 17.2920 89.43 91.69 9.59
12294 17.2930 104.50 91.71 10.39
12295 17.2940 96.86 91.72 10.00
12296 17.2950 97.09 91.74 9.99
12297 17.2960 97.62 91.76 9.96
12298 17.2970 112.45 91.78 10.70
12299 17.2980 109.38 91.80 10.58
12300 17.2990 97.04 91.82 9.89
12301 17.3000 103.70 91.83 10.23
12302 17.3010 87.18 91.85 9.42
12303 17.3020 93.86 91.87 9.85
12304 17.3030 97.58 91.89 10.09
12305 17.3040 94.96 91.92 9.92
12306 17.3050 102.03 91.94 10.20
12307 17.3060 112.85 91.96 10.74
12308 17.3070 92.38 91.98 9.68
12309 17.3080 114.46 92.00 10.82
12310 17.3090 99.10 92.03 10.01
12311 17.3100 106.09 92.05 10.37
12312 17.3110 92.33 92.07 9.68
12313 17.3120 84.79 92.10 9.34
12314 17.3130 109.10 92.12 10.61
12315 17.3140 101.89 92.15 10.24
12316 17.3150 100.26 92.17 10.09
12317 17.3160 110.39 92.20 10.57
12318 17.3170 106.04 92.23 10.40
12319 17.3180 109.93 92.25 10.61
12320 17.3190 112.54 92.28 10.73
12321 17.3200 101.51 92.31 10.14
12322 17.3210 111.65 92.34 10.66
12323 17.3220 108.75 92.37 10.60
12324 17.3230 118.84 92.40 11.08
12325 17.3240 118.89 92.43 11.02
12326 17.3250 96.07 92.46 9.86
12327 17.3260 117.93 92.50 10.97
12328 17.3270 104.86 92.53 10.38
12329 17.3280 124.68 92.56 11.31
12330 17.3290 123.19 92.60 11.25
12331 17.3300 110.93 92.63 10.61
12332 17.3310 95.15 92.67 9.82
12333 17.3320 106.32 92.71 10.46
12334 17.3330 103.22 92.75 10.29
12335 17.3340 92.87 92.79 9.75
12336 17.3350 101.94 92.83 10.18
12337 17.3360 101.84 92.87 10.19
12338 17.3370 120.50 92.91 11.13
12339 17.3380 116.76 92.95 10.97
12340 17.3390 108.56 93.00 10.55
12341 17.3400 101.51 93.04 10.14
12342 17.3410 97.23 93.09 9.95
12343 17.3420 92.64 93.14 9.74
12344 17.3430 106.58 93.19 10.51
12345 17.3440 98.53 93.24 10.10
12346 17.3450 104.85 93.29 10.34
12347 17.3460 111.14 93.34 10.63
12348 17.3470 133.48 93.40 11.70
12349 17.3480 97.18 93.45 10.00
12350 17.3490 102.03 93.51 10.19
12351 17.3500 108.54 93.57 10.49
12352 17.3510 90.71 93.63 9.60
12353 17.3520 103.18 93.69 10.35
12354 17.3530 105.00 93.76 10.49
12355 17.3540 92.16 93.82 9.76
12356 17.3550 106.30 93.89 10.43
12357 17.3560 92.06 93.96 9.72
12358 17.3570 96.57 94.04 9.91
12359 17.3580 102.09 94.11 10.20
12360 17.3590 114.77 94.19 10.77
12361 17.3600 97.19 94.27 9.92
12362 17.3610 102.95 94.35 10.20
12363 17.3620 94.17 94.44 9.87
12364 17.3630 110.48 94.52 10.67
12365 17.3640 88.31 94.61 9.54
12366 17.3650 108.11 94.71 10.50
12367 17.3660 97.59 94.81 9.98
12368 17.3670 103.61 94.91 10.31
12369 17.3680 109.90 95.01 10.64
12370 17.3690 100.55 95.12 10.11
12371 17.3700 125.14 95.23 11.27
12372 17.3710 98.66 95.34 10.03
12373 17.3720 99.17 95.46 10.13
12374 17.3730 113.53 95.59 10.83
12375 17.3740 101.63 95.72 10.17
12376 17.3750 121.07 95.85 11.09
12377 17.3760 90.02 95.99 9.58
12378 17.3770 119.28 96.13 11.08
12379 17.3780 101.35 96.28 10.27
12380 17.3790 96.95 96.44 9.96
12381 17.3800 90.40 96.60 9.62
12382 17.3810 121.57 96.77 11.12
12383 17.3820 117.54 96.95 10.95
12384 17.3830 96.62 97.13 9.98
12385 17.3840 113.56 97.32 10.77
12386 17.3850 97.85 97.52 9.95
12387 17.3860 86.83 97.73 9.43
12388 17.3870 97.50 97.95 10.00
12389 17.3880 118.27 98.18 11.03
12390 17.3890 94.43 98.42 9.84
12391 17.3900 96.57 98.67 9.88
12392 17.3910 87.50 98.93 9.47
12393 17.3920 93.88 99.21 9.84
12394 17.3930 116.81 99.50 11.02
12395 17.3940 100.71 99.81 10.19
12396 17.3950 95.60 100.13 9.87
12397 17.3960 112.71 100.46 10.73
12398 17.3970 107.04 100.82 10.46
12399 17.3980 100.64 101.19 10.15
12400 17.3990 121.18 101.59 11.10
12401 17.4000 125.16 102.01 11.25
12402 17.4010 105.35 102.45 10.34
12403 17.4020 111.49 102.92 10.75
12404 17.4030 101.64 103.42 10.28
12405 17.4040 105.63 103.95 10.46
12406 17.4050 111.76 104.51 10.72
12407 17.4060 99.82 105.11 10.08
12408 17.4070 97.12 105.75 9.93
12409 17.4080 106.09 106.43 10.43
12410 17.4090 93.27 107.16 9.72
12411 17.4100 112.72 107.94 10.68
12412 17.4110 111.37 108.77 10.67
12413 17.4120 114.28 109.67 10.88
12414 17.4130 99.14 110.64 10.15
12415 17.4140 102.47 111.68 10.26
12416 17.4150 110.14 112.81 10.60
12417 17.4160 111.35 114.03 10.65
12418 17.4170 108.95 115.35 10.57
12419 17.4180 114.08 116.79 10.82
12420 17.4190 94.06 118.36 9.76
12421 17.4200 118.30 120.07 10.96
12422 17.4210 103.65 121.95 10.25
12423 17.4220 111.41 124.01 10.70
12424 17.4230 124.46 126.28 11.32
12425 17.4240 142.58 128.80 12.08
12426 17.4250 125.05 131.58 11.26
12427 17.4260 128.53 134.69 11.42
12428 17.4270 145.41 138.16 12.23
12429 17.4280 140.86 142.05 12.05
12430 17.4290 144.22 146.45 12.16
12431 17.4300 153.31 151.44 12.49
12432 17.4310 158.72 157.11 12.66
12433 17.4320 165.47 163.60 13.06
12434 17.4330 149.76 171.12 12.39
12435 17.4340 174.68 179.81 13.36
12436 17.4350 177.18 189.98 13.43
12437 17.4360 182.81 202.00 13.61
12438 17.4370 201.32 216.27 14.36
12439 17.4380 224.10 233.44 15.20
12440 17.4390 265.37 254.42 16.43
12441 17.4400 303.56 280.49 17.50
12442 17.4410 353.74 313.53 18.88
12443 17.4420 418.61 356.65 20.69
12444 17.4430 468.26 414.34 21.87
12445 17.4440 519.40 493.17 23.06
12446 17.4450 639.98 601.80 25.51
12447 17.4460 818.74 751.17 28.91
12448 17.4470 1053.74 953.55 32.77
12449 17.4480 1196.53 1215.98 35.05
12450 17.4490 1598.46 1535.12 40.47
12451 17.4500 1983.55 1877.41 44.85
12452 17.4510 2168.60 2157.21 47.06
12453 17.4520 2279.62 2270.78 48.89
12454 17.4530 2358.99 2171.30 49.75
12455 17.4540 1959.10 1906.62 45.09
12456 17.4550 1546.00 1573.62 39.74
12457 17.4560 1289.95 1252.59 36.26
12458 17.4570 1026.83 983.82 32.27
12459 17.4580 776.02 775.44 28.15
12460 17.4590 699.17 619.94 26.66
12461 17.4600 558.55 506.75 23.82
12462 17.4610 471.54 424.55 21.91
12463 17.4620 387.37 364.50 19.93
12464 17.4630 359.72 319.83 19.32
12465 17.4640 295.14 285.60 17.38
12466 17.4650 274.03 258.87 16.61
12467 17.4660 236.02 237.43 15.45
12468 17.4670 241.53 219.94 15.68
12469 17.4680 161.45 205.41 12.83
12470 17.4690 190.03 193.30 13.91
12471 17.4700 185.87 183.05 13.68
12472 17.4710 169.63 174.32 13.11
12473 17.4720 146.22 166.86 12.24
12474 17.4730 151.65 160.41 12.51
12475 17.4740 131.03 154.83 11.58
12476 17.4750 156.79 149.97 12.62
12477 17.4760 146.68 145.72 12.28
12478 17.4770 144.08 142.00 12.16
12479 17.4780 144.91 138.73 12.22
12480 17.4790 124.82 135.85 11.30
12481 17.4800 131.72 133.32 11.55
12482 17.4810 149.65 131.09 12.28
12483 17.4820 121.91 129.14 11.16
12484 17.4830 118.03 127.44 11.01
12485 17.4840 120.75 125.96 11.11
12486 17.4850 115.51 124.69 10.84
12487 17.4860 107.53 123.62 10.44
12488 17.4870 128.38 122.74 11.45
12489 17.4880 129.46 122.04 11.53
12490 17.4890 137.27 121.53 11.84
12491 17.4900 118.78 121.21 10.96
12492 17.4910 124.12 121.08 11.22
12493 17.4920 131.41 121.15 11.61
12494 17.4930 124.18 121.46 11.37
12495 17.4940 126.83 122.01 11.38
12496 17.4950 116.29 122.86 10.84
12497 17.4960 112.68 124.04 10.70
12498 17.4970 115.99 125.63 10.85
12499 17.4980 146.91 127.71 12.25
12500 17.4990 157.74 130.44 12.68
12501 17.5000 145.03 133.98 12.13
12502 17.5010 117.40 138.65 10.96
12503 17.5020 155.85 144.91 12.70
12504 17.5030 164.20 153.39 13.07
12505 17.5040 168.19 165.05 13.14
12506 17.5050 169.31 181.19 13.10
12507 17.5060 186.76 203.37 13.72
12508 17.5070 205.46 233.18 14.41
12509 17.5080 260.20 271.82 16.26
12510 17.5090 312.24 318.41 17.78
12511 17.5100 333.75 368.03 18.32
12512 17.5110 332.07 411.84 18.35
12513 17.5120 395.89 440.13 20.17
12514 17.5130 424.63 445.44 20.96
12515 17.5140 399.10 423.84 20.15
12516 17.5150 334.85 380.34 18.43
12517 17.5160 288.25 327.60 17.07
12518 17.5170 229.83 277.79 15.31
12519 17.5180 209.87 236.36 14.64
12520 17.5190 191.19 204.17 13.96
12521 17.5200 193.84 180.13 14.00
12522 17.5210 193.43 162.53 14.03
12523 17.5220 144.68 149.63 12.18
12524 17.5230 138.25 140.11 11.95
12525 17.5240 147.97 132.94 12.32
12526 17.5250 133.97 127.40 11.68
12527 17.5260 118.32 123.01 11.05
12528 17.5270 131.72 119.44 11.67
12529 17.5280 123.92 116.50 11.31
12530 17.5290 119.57 114.03 11.05
12531 17.5300 120.32 111.94 11.00
12532 17.5310 130.13 110.15 11.46
12533 17.5320 116.11 108.61 10.87
12534 17.5330 102.18 107.27 10.27
12535 17.5340 99.81 106.09 10.12
12536 17.5350 111.52 105.06 10.64
12537 17.5360 106.20 104.14 10.37
12538 17.5370 123.96 103.32 11.27
12539 17.5380 107.63 102.58 10.51
12540 17.5390 115.68 101.92 10.83
12541 17.5400 124.37 101.32 11.18
12542 17.5410 123.64 100.78 11.20
12543 17.5420 119.58 100.28 11.08
12544 17.5430 115.04 99.83 10.92
12545 17.5440 103.67 99.41 10.28
12546 17.5450 97.27 99.03 9.98
12547 17.5460 111.43 98.67 10.65
12548 17.5470 123.40 98.34 11.25
12549 17.5480 103.60 98.04 10.28
12550 17.5490 105.89 97.75 10.39
12551 17.5500 111.40 97.49 10.62
12552 17.5510 110.43 97.24 10.65
12553 17.5520 95.51 97.01 9.96
12554 17.5530 109.80 96.79 10.72
12555 17.5540 109.03 96.59 10.55
12556 17.5550 124.00 96.40 11.23
12557 17.5560 95.36 96.22 9.83
12558 17.5570 112.35 96.04 10.69
12559 17.5580 114.85 95.88 10.86
12560 17.5590 117.99 95.73 10.96
12561 17.5600 114.13 95.58 10.78
12562 17.5610 105.50 95.44 10.37
12563 17.5620 101.55 95.31 10.25
12564 17.5630 89.09 95.19 9.62
12565 17.5640 97.86 95.07 10.04
12566 17.5650 102.80 94.95 10.24
12567 17.5660 107.29 94.84 10.43
12568 17.5670 94.41 94.74 9.83
12569 17.5680 99.49 94.64 10.13
12570 17.5690 110.68 94.54 10.64
12571 17.5700 113.69 94.45 10.75
12572 17.5710 115.25 94.37 10.87
12573 17.5720 115.70 94.28 10.93
12574 17.5730 105.17 94.20 10.45
12575 17.5740 89.87 94.12 9.58
12576 17.5750 112.60 94.05 10.73
12577 17.5760 107.42 93.98 10.49
12578 17.5770 113.06 93.91 10.79
12579 17.5780 114.49 93.84 10.86
12580 17.5790 91.17 93.78 9.64
12581 17.5800 98.92 93.71 10.04
12582 17.5810 114.22 93.65 10.76
12583 17.5820 112.47 93.60 10.72
12584 17.5830 102.21 93.54 10.28
12585 17.5840 119.30 93.49 11.06
12586 17.5850 111.34 93.43 10.68
12587 17.5860 92.86 93.38 9.73
12588 17.5870 105.58 93.33 10.40
12589 17.5880 114.44 93.29 10.87
12590 17.5890 109.53 93.24 10.60
12591 17.5900 126.76 93.19 11.31
12592 17.5910 112.77 93.15 10.70
12593 17.5920 111.39 93.11 10.69
12594 17.5930 109.97 93.07 10.69
12595 17.5940 121.79 93.03 11.17
12596 17.5950 107.72 92.99 10.46
12597 17.5960 106.13 92.95 10.42
12598 17.5970 114.43 92.92 10.82
12599 17.5980 114.05 92.88 10.81
12600 17.5990 110.27 92.85 10.57
12601 17.6000 102.55 92.81 10.22
12602 17.6010 110.97 92.78 10.66
12603 17.6020 103.45 92.75 10.39
12604 17.6030 102.03 92.72 10.31
12605 17.6040 107.29 92.69 10.50
12606 17.6050 87.36 92.66 9.46
12607 17.6060 88.83 92.63 9.49
12608 17.6070 115.71 92.60 10.84
12609 17.6080 98.77 92.58 10.05
12610 17.6090 95.25 92.55 9.87
12611 17.6100 118.29 92.52 10.94
12612 17.6110 107.53 92.50 10.44
12613 17.6120 83.74 92.47 9.32
12614 17.6130 95.86 92.45 9.98
12615 17.6140 114.24 92.43 10.86
12616 17.6150 84.13 92.40 9.25
12617 17.6160 89.95 92.38 9.57
12618 17.6170 108.34 92.36 10.50
12619 17.6180 96.15 92.34 9.94
12620 17.6190 102.25 92.32 10.24
12621 17.6200 98.19 92.30 10.00
12622 17.6210 87.23 92.28 9.45
12623 17.6220 105.99 92.26 10.46
12624 17.6230 100.27 92.24 10.18
12625 17.6240 114.87 92.22 10.85
12626 17.6250 108.77 92.20 10.55
12627 17.6260 107.47 92.19 10.48
12628 17.6270 98.55 92.17 10.08
12629 17.6280 88.56 92.15 9.54
12630 17.6290 104.71 92.13 10.37
12631 17.6300 106.16 92.12 10.35
12632 17.6310 106.29 92.10 10.37
12633 17.6320 99.54 92.09 10.08
12634 17.6330 110.12 92.07 10.67
12635 17.6340 105.11 92.06 10.39
12636 17.6350 108.07 92.04 10.50
12637 17.6360 113.94 92.03 10.75
12638 17.6370 95.98 92.01 9.97
12639 17.6380 95.58 92.00 9.93
12640 17.6390 102.82 91.99 10.27
12641 17.6400 87.26 91.97 9.41
12642 17.6410 87.98 91.96 9.47
12643 17.6420 96.41 91.95 9.95
12644 17.6430 94.45 91.93 9.91
12645 17.6440 93.00 91.92 9.76
12646 17.6450 100.34 91.91 10.09
12647 17.6460 99.15 91.90 10.01
12648 17.6470 92.62 91.89 9.72
12649 17.6480 97.24 91.87 10.02
12650 17.6490 103.03 91.86 10.24
12651 17.6500 100.56 91.85 10.10
12652 17.6510 95.68 91.84 9.92
12653 17.6520 98.52 91.83 10.14
12654 17.6530 122.75 91.82 11.34
12655 17.6540 105.47 91.81 10.39
12656 17.6550 113.94 91.80 10.78
12657 17.6560 115.36 91.79 10.80
12658 17.6570 89.18 91.78 9.52
12659 17.6580 88.12 91.77 9.48
12660 17.6590 106.90 91.76 10.40
12661 17.6600 105.88 91.75 10.37
12662 17.6610 99.90 91.74 10.11
12663 17.6620 109.83 91.74 10.68
12664 17.6630 92.69 91.73 9.82
12665 17.6640 114.30 91.72 10.81
12666 17.6650 103.23 91.71 10.21
12667 17.6660 92.82 91.70 9.67
12668 17.6670 90.14 91.69 9.54
12669 17.6680 103.10 91.69 10.26
12670 17.6690 85.95 91.68 9.37
12671 17.6700 87.11 91.67 9.38
12672 17.6710 116.01 91.66 10.84
12673 17.6720 104.10 91.65 10.38
12674 17.6730 91.81 91.65 9.75
12675 17.6740 82.92 91.64 9.22
12676 17.6750 94.28 91.63 9.82
12677 17.6760 102.71 91.63 10.28
12678 17.6770 101.39 91.62 10.18
12679 17.6780 116.29 91.61 10.97
12680 17.6790 92.24 91.61 9.69
12681 17.6800 93.15 91.60 9.68
12682 17.6810 109.89 91.59 10.58
12683 17.6820 99.42 91.59 10.12
12684 17.6830 101.78 91.58 10.22
12685 17.6840 109.93 91.57 10.59
12686 17.6850 116.14 91.57 10.89
12687 17.6860 102.42 91.56 10.21
12688 17.6870 98.29 91.56 10.04
12689 17.6880 114.89 91.55 10.90
12690 17.6890 94.93 91.55 9.81
12691 17.6900 99.01 91.54 10.00
12692 17.6910 99.17 91.53 9.97
12693 17.6920 98.22 91.18 10.00
12694 17.6930 101.09 91.18 10.22
12695 17.6940 109.57 91.00 10.60
12696 17.6950 93.13 91.00 9.74
12697 17.6960 99.01 91.00 10.04
12698 17.6970 103.57 91.00 10.31
12699 17.6980 106.83 91.00 10.50
12700 17.6990 101.10 91.00 10.14
12701 17.7000 100.93 91.00 10.14
12702 17.7010 106.48 91.00 10.44
12703 17.7020 110.57 91.00 10.72
12704 17.7030 112.74 91.00 10.79
12705 17.7040 103.27 91.00 10.30
12706 17.7050 98.20 91.00 10.00
12707 17.7060 109.15 90.99 10.55
12708 17.7070 96.56 90.99 9.91
12709 17.7080 102.76 90.99 10.23
12710 17.7090 103.41 90.99 10.27
12711 17.7100 95.83 90.99 9.84
12712 17.7110 111.57 90.99 10.66
12713 17.7120 114.49 90.99 10.87
12714 17.7130 102.72 90.99 10.34
12715 17.7140 91.60 90.99 9.71
12716 17.7150 84.00 90.99 9.24
12717 17.7160 89.25 90.99 9.49
12718 17.7170 102.76 90.99 10.22
12719 17.7180 85.26 90.99 9.35
12720 17.7190 95.39 90.99 9.86
12721 17.7200 97.50 90.99 9.97
12722 17.7210 106.76 90.99 10.42
12723 17.7220 97.03 90.99 10.02
12724 17.7230 96.42 90.99 10.01
12725 17.7240 103.35 90.99 10.31
12726 17.7250 114.29 90.99 10.82
12727 17.7260 116.19 90.98 10.88
12728 17.7270 109.66 90.98 10.61
12729 17.7280 90.35 90.98 9.65
12730 17.7290 108.31 90.98 10.47
12731 17.7300 103.34 90.98 10.21
12732 17.7310 108.22 90.98 10.46
12733 17.7320 81.37 90.98 9.13
12734 17.7330 95.97 90.98 9.94
12735 17.7340 89.28 90.98 9.55
12736 17.7350 102.43 90.98 10.20
12737 17.7360 92.20 90.98 9.68
12738 17.7370 89.75 90.98 9.58
12739 17.7380 105.86 90.98 10.44
12740 17.7390 118.17 90.98 11.02
12741 17.7400 117.63 90.98 10.90
12742 17.7410 103.09 90.98 10.23
12743 17.7420 84.06 90.98 9.32
12744 17.7430 105.34 90.98 10.42
12745 17.7440 108.24 90.98 10.54
12746 17.7450 112.48 90.98 10.70
12747 17.7460 92.19 90.98 9.70
12748 17.7470 111.20 90.98 10.67
12749 17.7480 94.07 90.98 9.87
12750 17.7490 96.21 90.98 9.91
12751 17.7500 100.19 90.98 10.10
12752 17.7510 86.78 90.98 9.40
12753 17.7520 88.00 90.95 9.53
12754 17.7530 99.58 90.95 10.16
12755 17.7540 102.79 90.92 10.23
12756 17.7550 92.30 90.89 9.70
12757 17.7560 106.70 90.89 10.39
12758 17.7570 103.58 90.89 10.26
12759 17.7580 96.03 90.89 9.92
12760 17.7590 92.86 90.89 9.70
12761 17.7600 106.38 90.90 10.39
12762 17.7610 96.97 90.90 9.96
12763 17.7620 96.20 90.90 9.99
12764 17.7630 98.06 90.90 10.09
12765 17.7640 93.22 90.90 9.81
12766 17.7650 117.41 90.90 10.92
12767 17.7660 94.26 90.90 9.81
12768 17.7670 111.83 90.90 10.68
12769 17.7680 98.02 90.90 10.02
12770 17.7690 100.30 90.90 10.14
12771 17.7700 95.92 90.90 9.90
12772 17.7710 90.10 90.90 9.59
12773 17.7720 104.15 90.90 10.42
12774 17.7730 106.37 90.90 10.53
12775 17.7740 100.15 90.90 10.15
12776 17.7750 95.00 90.91 9.87
12777 17.7760 98.26 90.91 10.02
12778 17.7770 104.11 90.91 10.34
12779 17.7780 104.07 90.91 10.34
12780 17.7790 118.13 90.91 10.96
12781 17.7800 116.36 90.91 10.83
12782 17.7810 111.17 90.91 10.63
12783 17.7820 96.12 90.91 9.93
12784 17.7830 90.77 90.91 9.68
12785 17.7840 98.22 90.91 10.05
12786 17.7850 114.72 90.91 10.83
12787 17.7860 90.80 90.91 9.65
12788 17.7870 90.02 90.91 9.60
12789 17.7880 93.11 90.91 9.81
12790 17.7890 99.78 90.91 10.12
12791 17.7900 100.68 90.91 10.11
12792 17.7910 98.73 90.92 10.02
12793 17.7920 105.46 90.92 10.40
12794 17.7930 100.11 90.92 10.23
12795 17.7940 94.66 90.92 9.89
12796 17.7950 95.52 90.92 9.92
12797 17.7960 105.51 90.92 10.38
12798 17.7970 116.53 90.92 10.98
12799 17.7980 97.41 90.92 10.02
12800 17.7990 115.32 90.92 10.84
12801 17.8000 101.84 90.92 10.17
12802 17.8010 106.05 90.92 10.38
12803 17.8020 104.19 90.92 10.44
12804 17.8030 106.39 90.92 10.50
12805 17.8040 99.75 90.92 10.15
12806 17.8050 93.29 90.92 9.75
12807 17.8060 88.79 90.92 9.49
12808 17.8070 97.57 90.93 10.00
12809 17.8080 107.72 90.93 10.51
12810 17.8090 88.49 90.93 9.49
12811 17.8100 105.39 90.93 10.34
12812 17.8110 115.49 90.93 10.88
12813 17.8120 101.68 90.93 10.25
12814 17.8130 122.77 90.93 11.32
12815 17.8140 100.25 90.93 10.14
12816 17.8150 93.76 90.93 9.79
12817 17.8160 116.54 90.93 10.87
12818 17.8170 100.91 90.93 10.16
12819 17.8180 92.65 90.93 9.79
12820 17.8190 92.08 90.93 9.70
12821 17.8200 99.81 90.93 10.07
12822 17.8210 86.86 90.93 9.40
12823 17.8220 108.93 90.93 10.61
12824 17.8230 103.31 90.93 10.37
12825 17.8240 107.40 90.93 10.52
12826 17.8250 99.94 90.94 10.10
12827 17.8260 88.06 90.94 9.45
12828 17.8270 107.65 90.94 10.51
12829 17.8280 95.54 90.94 9.90
12830 17.8290 106.53 90.94 10.43
12831 17.8300 103.52 90.94 10.24
12832 17.8310 105.24 90.94 10.31
12833 17.8320 115.30 90.94 10.87
12834 17.8330 106.99 90.94 10.53
12835 17.8340 101.49 90.94 10.20
12836 17.8350 102.07 90.94 10.23
12837 17.8360 101.77 90.94 10.19
12838 17.8370 98.60 90.94 10.04
12839 17.8380 103.61 90.94 10.34
12840 17.8390 103.31 90.94 10.26
12841 17.8400 110.42 90.94 10.61
12842 17.8410 87.54 90.94 9.42
12843 17.8420 93.05 90.94 9.78
12844 17.8430 126.05 90.94 11.46
12845 17.8440 105.70 90.95 10.46
12846 17.8450 91.81 90.95 9.70
12847 17.8460 116.95 90.95 10.89
12848 17.8470 85.99 90.95 9.37
12849 17.8480 93.52 90.95 9.84
12850 17.8490 96.30 90.95 9.94
12851 17.8500 99.98 90.95 10.05
12852 17.8510 91.26 90.95 9.66
12853 17.8520 94.50 90.95 9.90
12854 17.8530 96.81 90.95 10.03
12855 17.8540 89.62 90.95 9.59
12856 17.8550 107.63 90.95 10.44
12857 17.8560 101.33 90.96 10.15
12858 17.8570 107.62 90.96 10.45
12859 17.8580 98.72 90.96 10.06
12860 17.8590 109.57 90.96 10.48
12861 17.8600 95.61 90.96 9.86
12862 17.8610 104.17 90.96 10.33
12863 17.8620 94.50 90.96 9.90
12864 17.8630 97.92 90.96 10.09
12865 17.8640 91.91 90.96 9.76
12866 17.8650 102.25 90.96 10.19
12867 17.8660 98.86 90.96 10.00
12868 17.8670 96.48 90.97 9.88
12869 17.8680 114.21 90.97 10.79
12870 17.8690 124.47 90.97 11.25
12871 17.8700 107.26 90.97 10.41
12872 17.8710 101.00 90.97 10.13
12873 17.8720 95.27 90.97 9.91
12874 17.8730 80.35 90.97 9.17
12875 17.8740 93.65 90.97 9.85
12876 17.8750 101.01 90.97 10.17
12877 17.8760 90.41 90.97 9.61
12878 17.8770 83.73 90.97 9.30
12879 17.8780 99.09 90.97 10.07
12880 17.8790 99.52 90.97 10.05
12881 17.8800 104.79 90.97 10.27
12882 17.8810 118.54 90.97 10.93
12883 17.8820 95.78 90.97 9.96
12884 17.8830 107.25 90.97 10.55
12885 17.8840 105.96 90.97 10.38
12886 17.8850 91.71 91.20 9.69
12887 17.8860 114.79 91.21 10.88
12888 17.8870 105.75 91.32 10.42
12889 17.8880 105.70 91.32 10.42
12890 17.8890 99.85 91.32 10.09
12891 17.8900 90.02 91.33 9.54
12892 17.8910 94.56 91.33 9.77
12893 17.8920 120.33 91.33 11.08
12894 17.8930 103.38 91.34 10.34
12895 17.8940 87.45 91.34 9.44
12896 17.8950 122.53 91.34 11.18
12897 17.8960 116.13 91.35 10.88
12898 17.8970 86.04 91.35 9.42
12899 17.8980 104.90 91.35 10.39
12900 17.8990 110.58 91.36 10.65
12901 17.9000 99.22 91.36 10.04
12902 17.9010 98.97 91.37 10.06
12903 17.9020 89.26 91.37 9.59
12904 17.9030 95.89 91.37 9.95
12905 17.9040 108.88 91.38 10.58
12906 17.9050 110.67 91.38 10.60
12907 17.9060 113.15 91.39 10.70
12908 17.9070 106.54 91.39 10.42
12909 17.9080 100.63 91.39 10.13
12910 17.9090 99.30 91.40 10.05
12911 17.9100 119.99 91.40 11.02
12912 17.9110 94.12 91.41 9.77
12913 17.9120 101.80 91.41 10.26
12914 17.9130 96.86 91.42 9.98
12915 17.9140 93.29 91.42 9.74
12916 17.9150 101.52 91.42 10.16
12917 17.9160 100.94 91.43 10.09
12918 17.9170 91.21 91.43 9.64
12919 17.9180 103.48 91.44 10.28
12920 17.9190 99.19 91.44 10.07
12921 17.9200 99.09 91.45 10.04
12922 17.9210 102.93 91.45 10.26
12923 17.9220 98.33 91.46 10.07
12924 17.9230 85.82 91.46 9.46
12925 17.9240 130.12 91.47 11.59
12926 17.9250 91.86 91.47 9.68
12927 17.9260 101.53 91.48 10.16
12928 17.9270 113.28 91.48 10.79
12929 17.9280 103.11 91.49 10.29
12930 17.9290 83.28 91.49 9.25
12931 17.9300 99.07 91.50 10.02
12932 17.9310 110.90 91.50 10.59
12933 17.9320 100.33 91.51 10.11
12934 17.9330 117.10 91.52 10.97
12935 17.9340 106.63 91.52 10.45
12936 17.9350 107.66 91.53 10.46
12937 17.9360 113.89 91.53 10.78
12938 17.9370 91.65 91.54 9.69
12939 17.9380 105.42 91.54 10.43
12940 17.9390 95.69 91.55 9.86
12941 17.9400 109.35 91.56 10.52
12942 17.9410 103.91 91.56 10.24
12943 17.9420 89.49 91.57 9.60
12944 17.9430 98.44 91.58 10.11
12945 17.9440 92.84 91.58 9.77
12946 17.9450 117.97 91.59 11.04
12947 17.9460 89.74 91.60 9.62
12948 17.9470 105.78 91.60 10.43
12949 17.9480 106.53 91.61 10.50
12950 17.9490 101.14 91.62 10.15
12951 17.9500 117.02 91.63 10.91
12952 17.9510 89.95 91.63 9.56
12953 17.9520 106.36 91.64 10.47
12954 17.9530 90.87 91.65 9.75
12955 17.9540 101.19 91.66 10.19
12956 17.9550 90.78 91.66 9.60
12957 17.9560 104.46 91.67 10.32
12958 17.9570 95.74 91.68 9.86
12959 17.9580 106.16 91.69 10.42
12960 17.9590 106.53 91.70 10.39
12961 17.9600 103.70 91.70 10.27
12962 17.9610 106.53 91.71 10.46
12963 17.9620 87.85 91.72 9.55
12964 17.9630 116.51 91.73 11.01
12965 17.9640 108.14 91.74 10.53
12966 17.9650 107.75 91.75 10.45
12967 17.9660 84.43 91.76 9.26
12968 17.9670 95.37 91.77 9.83
12969 17.9680 86.19 91.78 9.42
12970 17.9690 107.21 91.79 10.47
12971 17.9700 103.82 91.80 10.34
12972 17.9710 93.17 91.81 9.77
12973 17.9720 111.28 91.82 10.78
12974 17.9730 85.41 91.83 9.44
12975 17.9740 116.02 91.84 10.92
12976 17.9750 98.98 91.85 10.04
12977 17.9760 99.14 91.86 10.07
12978 17.9770 78.18 91.87 8.93
12979 17.9780 96.00 91.89 9.94
12980 17.9790 96.81 91.90 9.94
12981 17.9800 101.23 91.91 10.12
12982 17.9810 104.44 91.92 10.26
12983 17.9820 104.38 91.94 10.33
12984 17.9830 119.32 91.95 11.04
12985 17.9840 122.28 91.96 11.22
12986 17.9850 108.94 91.97 10.55
12987 17.9860 107.39 91.99 10.47
12988 17.9870 99.27 92.00 10.08
12989 17.9880 115.03 92.02 10.90
12990 17.9890 100.32 92.03 10.10
12991 17.9900 100.98 92.05 10.12
12992 17.9910 104.28 92.06 10.30
12993 17.9920 101.51 92.08 10.23
12994 17.9930 101.97 92.09 10.32
12995 17.9940 104.72 92.11 10.41
12996 17.9950 93.45 92.13 9.81
12997 17.9960 93.78 92.14 9.79
12998 17.9970 93.21 92.16 9.81
12999 17.9980 97.43 92.18 10.04
13000 17.9990 114.65 92.19 10.85
13001 18.0000 107.26 92.21 10.41
13002 18.0010 117.07 92.23 10.91
13003 18.0020 104.18 92.25 10.39
13004 18.0030 112.99 92.27 10.81
13005 18.0040 114.11 92.29 10.83
13006 18.0050 120.24 92.31 11.05
13007 18.0060 102.09 92.33 10.18
13008 18.0070 116.70 92.35 10.93
13009 18.0080 116.03 92.38 10.88
13010 18.0090 106.83 92.40 10.44
13011 18.0100 109.93 92.42 10.56
13012 18.0110 108.10 92.45 10.53
13013 18.0120 89.22 92.47 9.63
13014 18.0130 100.83 92.50 10.24
13015 18.0140 114.65 92.52 10.85
13016 18.0150 102.59 92.55 10.20
13017 18.0160 99.75 92.57 10.04
13018 18.0170 107.85 92.60 10.52
13019 18.0180 87.92 92.63 9.51
13020 18.0190 108.56 92.66 10.56
13021 18.0200 102.98 92.69 10.29
13022 18.0210 91.00 92.72 9.69
13023 18.0220 106.15 92.75 10.47
13024 18.0230 89.98 92.79 9.67
13025 18.0240 103.52 92.82 10.29
13026 18.0250 96.84 92.85 9.95
13027 18.0260 117.49 92.89 10.94
13028 18.0270 96.69 92.92 9.95
13029 18.0280 95.69 92.96 9.93
13030 18.0290 99.35 93.00 10.06
13031 18.0300 97.97 93.04 10.00
13032 18.0310 111.72 93.08 10.63
13033 18.0320 107.51 93.12 10.50
13034 18.0330 113.45 93.17 10.82
13035 18.0340 97.56 93.21 10.02
13036 18.0350 96.90 93.26 9.94
13037 18.0360 122.63 93.31 11.21
13038 18.0370 106.35 93.36 10.45
13039 18.0380 98.18 93.41 10.09
13040 18.0390 87.17 93.46 9.41
13041 18.0400 99.05 93.51 9.98
13042 18.0410 87.47 93.57 9.42
13043 18.0420 88.25 93.63 9.55
13044 18.0430 94.77 93.69 9.91
13045 18.0440 116.44 93.75 11.00
13046 18.0450 106.07 93.81 10.44
13047 18.0460 121.21 93.88 11.16
13048 18.0470 99.52 93.95 10.08
13049 18.0480 102.07 94.02 10.22
13050 18.0490 101.62 94.10 10.18
13051 18.0500 93.01 94.17 9.70
13052 18.0510 108.54 94.25 10.51
13053 18.0520 121.29 94.34 11.18
13054 18.0530 109.75 94.42 10.68
13055 18.0540 99.03 94.51 10.09
13056 18.0550 85.59 94.61 9.31
13057 18.0560 92.32 94.70 9.68
13058 18.0570 102.81 94.80 10.21
13059 18.0580 111.70 94.91 10.71
13060 18.0590 114.54 95.02 10.77
13061 18.0600 90.16 95.14 9.59
13062 18.0610 105.30 95.26 10.39
13063 18.0620 104.41 95.38 10.37
13064 18.0630 107.03 95.51 10.55
13065 18.0640 102.19 95.65 10.19
13066 18.0650 106.26 95.80 10.40
13067 18.0660 104.78 95.95 10.28
13068 18.0670 96.44 96.11 9.90
13069 18.0680 105.57 96.28 10.40
13070 18.0690 100.28 96.45 10.13
13071 18.0700 112.52 96.64 10.71
13072 18.0710 97.14 96.84 9.97
13073 18.0720 90.40 97.04 9.66
13074 18.0730 94.41 97.26 9.87
13075 18.0740 111.43 97.49 10.69
13076 18.0750 117.48 97.74 10.93
13077 18.0760 114.46 98.00 10.75
13078 18.0770 102.84 98.28 10.25
13079 18.0780 115.10 98.58 10.91
13080 18.0790 100.43 98.90 10.11
13081 18.0800 97.00 99.24 9.92
13082 18.0810 88.35 99.61 9.44
13083 18.0820 94.13 100.00 9.79
13084 18.0830 100.16 100.43 10.16
13085 18.0840 111.34 100.89 10.63
13086 18.0850 89.91 101.40 9.58
13087 18.0860 103.38 101.96 10.27
13088 18.0870 100.50 102.57 10.15
13089 18.0880 99.89 103.25 10.12
13090 18.0890 132.13 104.02 11.56
13091 18.0900 117.88 104.90 10.88
13092 18.0910 121.70 105.90 11.08
13093 18.0920 122.82 107.10 11.16
13094 18.0930 111.84 108.53 10.74
13095 18.0940 138.18 110.29 11.93
13096 18.0950 120.53 112.50 11.12
13097 18.0960 110.12 115.27 10.62
13098 18.0970 111.45 118.75 10.67
13099 18.0980 115.03 123.01 10.88
13100 18.0990 128.24 127.93 11.43
13101 18.1000 115.26 133.06 10.79
13102 18.1010 136.47 137.69 11.77
13103 18.1020 145.75 141.13 12.20
13104 18.1030 123.96 142.87 11.31
13105 18.1040 160.12 142.62 12.78
13106 18.1050 134.05 140.80 11.62
13107 18.1060 127.84 138.44 11.37
13108 18.1070 144.72 136.53 12.11
13109 18.1080 134.63 135.56 11.74
13110 18.1090 135.54 135.63 11.73
13111 18.1100 115.88 136.72 10.88
13112 18.1110 136.94 138.74 11.77
13113 18.1120 141.09 141.66 11.98
13114 18.1130 172.21 145.46 13.31
13115 18.1140 152.59 150.16 12.44
13116 18.1150 162.87 155.87 12.80
13117 18.1160 172.49 162.74 13.14
13118 18.1170 171.47 171.02 13.24
13119 18.1180 168.26 181.02 13.13
13120 18.1190 200.83 193.18 14.35
13121 18.1200 210.06 208.23 14.58
13122 18.1210 251.76 227.14 16.05
13123 18.1220 265.47 251.39 16.59
13124 18.1230 316.26 283.25 18.07
13125 18.1240 366.45 326.15 19.39
13126 18.1250 435.26 384.30 20.99
13127 18.1260 507.15 463.51 22.72
13128 18.1270 609.62 570.68 24.95
13129 18.1280 750.14 711.07 27.66
13130 18.1290 915.73 887.02 30.56
13131 18.1300 1167.23 1089.29 34.40
13132 18.1310 1321.34 1284.76 36.62
13133 18.1320 1527.56 1417.09 39.65
13134 18.1330 1580.57 1440.25 40.49
13135 18.1340 1491.52 1352.39 39.20
13136 18.1350 1232.96 1187.67 35.40
13137 18.1360 1025.21 992.11 32.31
13138 18.1370 847.23 804.59 29.35
13139 18.1380 663.67 645.65 26.04
13140 18.1390 538.91 521.18 23.27
13141 18.1400 475.78 427.17 21.83
13142 18.1410 380.12 357.35 19.55
13143 18.1420 332.74 306.15 18.55
13144 18.1430 285.65 268.20 17.20
13145 18.1440 265.53 239.57 16.53
13146 18.1450 227.43 217.54 15.23
13147 18.1460 197.04 200.21 14.19
13148 18.1470 175.20 186.24 13.37
13149 18.1480 192.01 174.80 13.98
13150 18.1490 183.56 165.31 13.64
13151 18.1500 158.21 157.32 12.68
13152 18.1510 151.77 150.55 12.40
13153 18.1520 167.83 144.75 13.16
13154 18.1530 154.83 139.75 12.62
13155 18.1540 118.60 135.41 11.02
13156 18.1550 124.32 131.62 11.20
13157 18.1560 110.19 128.29 10.53
13158 18.1570 113.56 125.36 10.71
13159 18.1580 111.05 122.75 10.67
13160 18.1590 109.12 120.43 10.56
13161 18.1600 128.80 118.36 11.43
13162 18.1610 120.64 116.49 11.07
13163 18.1620 99.18 114.81 10.10
13164 18.1630 107.70 113.29 10.55
13165 18.1640 121.30 111.91 11.10
13166 18.1650 119.83 110.65 10.97
13167 18.1660 97.56 109.51 9.94
13168 18.1670 118.25 108.46 11.00
13169 18.1680 110.84 107.50 10.66
13170 18.1690 114.36 106.61 10.82
13171 18.1700 115.04 105.79 10.85
13172 18.1710 105.26 105.04 10.37
13173 18.1720 105.31 104.34 10.43
13174 18.1730 104.09 103.70 10.39
13175 18.1740 112.71 103.10 10.75
13176 18.1750 88.87 102.54 9.52
13177 18.1760 95.55 102.02 9.85
13178 18.1770 89.29 101.53 9.52
13179 18.1780 109.15 101.07 10.53
13180 18.1790 94.74 100.65 9.81
13181 18.1800 107.50 100.25 10.37
13182 18.1810 90.43 99.87 9.50
13183 18.1820 96.85 99.52 9.95
13184 18.1830 99.54 99.19 10.17
13185 18.1840 109.90 98.87 10.61
13186 18.1850 100.80 98.58 10.15
13187 18.1860 108.67 98.30 10.51
13188 18.1870 108.90 98.04 10.54
13189 18.1880 107.87 97.79 10.46
13190 18.1890 96.52 97.55 9.89
13191 18.1900 97.01 97.32 9.90
13192 18.1910 100.13 97.11 10.07
13193 18.1920 88.12 96.91 9.53
13194 18.1930 100.91 96.72 10.22
13195 18.1940 101.85 96.53 10.26
13196 18.1950 84.93 96.36 9.35
13197 18.1960 97.96 96.19 10.02
13198 18.1970 99.25 96.03 10.06
13199 18.1980 92.78 95.88 9.76
13200 18.1990 89.42 95.74 9.57
13201 18.2000 83.11 95.60 9.16
13202 18.2010 110.27 95.47 10.54
13203 18.2020 95.62 95.34 9.92
13204 18.2030 83.67 95.22 9.29
13205 18.2040 110.75 95.10 10.59
13206 18.2050 110.36 94.99 10.58
13207 18.2060 107.76 94.88 10.41
13208 18.2070 96.98 94.78 9.92
13209 18.2080 88.93 94.68 9.55
13210 18.2090 91.67 94.59 9.63
13211 18.2100 110.29 94.49 10.56
13212 18.2110 91.62 94.41 9.67
13213 18.2120 117.02 94.32 10.97
13214 18.2130 118.12 94.24 11.03
13215 18.2140 107.34 94.16 10.48
13216 18.2150 92.73 94.09 9.69
13217 18.2160 116.06 94.01 10.84
13218 18.2170 111.55 93.94 10.66
13219 18.2180 90.54 93.87 9.68
13220 18.2190 106.80 93.81 10.46
13221 18.2200 112.09 93.75 10.68
13222 18.2210 118.81 93.68 11.02
13223 18.2220 97.71 93.62 10.05
13224 18.2230 111.34 93.57 10.75
13225 18.2240 107.31 93.51 10.48
13226 18.2250 95.51 93.46 9.86
13227 18.2260 96.64 93.41 9.92
13228 18.2270 114.21 93.36 10.78
13229 18.2280 105.00 93.31 10.33
13230 18.2290 91.73 93.26 9.64
13231 18.2300 101.55 93.21 10.10
13232 18.2310 114.57 93.17 10.75
13233 18.2320 102.86 93.13 10.26
13234 18.2330 86.63 93.08 9.47
13235 18.2340 108.07 93.04 10.56
13236 18.2350 99.76 93.00 10.07
13237 18.2360 90.40 92.97 9.59
13238 18.2370 87.83 92.93 9.44
13239 18.2380 100.31 92.89 10.11
13240 18.2390 94.25 92.86 9.77
13241 18.2400 97.24 92.82 9.89
13242 18.2410 74.69 92.79 8.72
13243 18.2420 107.12 92.76 10.52
13244 18.2430 110.20 92.73 10.72
13245 18.2440 97.85 92.70 10.03
13246 18.2450 100.01 92.67 10.13
13247 18.2460 102.02 92.64 10.19
13248 18.2470 115.78 92.61 10.91
13249 18.2480 91.12 92.58 9.67
13250 18.2490 91.16 92.55 9.61
13251 18.2500 124.69 92.53 11.25
13252 18.2510 91.50 92.50 9.66
13253 18.2520 108.85 92.48 10.55
13254 18.2530 87.99 92.45 9.52
13255 18.2540 99.77 92.43 10.06
13256 18.2550 116.95 92.41 10.88
13257 18.2560 97.24 92.38 9.88
13258 18.2570 107.74 92.36 10.47
13259 18.2580 84.30 92.34 9.29
13260 18.2590 108.07 92.32 10.48
13261 18.2600 110.79 92.30 10.54
13262 18.2610 103.55 92.28 10.26
13263 18.2620 102.83 92.26 10.28
13264 18.2630 88.29 92.24 9.54
13265 18.2640 97.08 92.22 9.96
13266 18.2650 95.65 92.20 9.84
13267 18.2660 107.83 92.18 10.48
13268 18.2670 112.93 92.17 10.77
13269 18.2680 97.47 92.15 10.01
13270 18.2690 96.83 92.13 9.95
13271 18.2700 103.68 92.11 10.27
13272 18.2710 96.24 92.10 9.92
13273 18.2720 125.00 92.08 11.31
13274 18.2730 95.30 92.07 9.95
13275 18.2740 80.94 92.05 9.11
13276 18.2750 86.20 92.04 9.38
13277 18.2760 104.02 92.02 10.27
13278 18.2770 117.06 92.01 10.89
13279 18.2780 111.75 92.00 10.64
13280 18.2790 98.12 91.98 9.97
13281 18.2800 105.50 91.97 10.27
13282 18.2810 120.41 91.95 11.02
13283 18.2820 115.47 91.94 10.87
13284 18.2830 97.80 91.93 10.06
13285 18.2840 99.98 91.92 10.11
13286 18.2850 103.95 91.90 10.26
13287 18.2860 116.54 91.89 10.87
13288 18.2870 122.13 91.88 11.18
13289 18.2880 99.68 91.87 10.09
13290 18.2890 103.43 91.86 10.19
13291 18.2900 89.80 91.85 9.55
13292 18.2910 109.98 91.84 10.57
13293 18.2920 79.26 91.83 9.03
13294 18.2930 96.98 91.82 10.06
13295 18.2940 101.61 91.81 10.22
13296 18.2950 95.61 91.79 9.88
13297 18.2960 98.53 91.79 10.02
13298 18.2970 112.08 91.78 10.71
13299 18.2980 94.36 91.77 9.82
13300 18.2990 97.64 91.76 9.98
13301 18.3000 85.73 91.75 9.30
13302 18.3010 100.07 91.74 10.05
13303 18.3020 92.57 91.73 9.74
13304 18.3030 99.66 91.72 10.10
13305 18.3040 114.23 91.71 10.77
13306 18.3050 98.46 91.70 9.93
13307 18.3060 103.97 91.69 10.23
13308 18.3070 85.66 91.69 9.35
13309 18.3080 101.03 91.68 10.17
13310 18.3090 103.90 91.67 10.29
13311 18.3100 98.57 91.66 10.00
13312 18.3110 94.61 91.65 9.79
13313 18.3120 106.85 91.65 10.45
13314 18.3130 106.36 91.64 10.45
13315 18.3140 110.95 91.63 10.63
13316 18.3150 93.45 91.63 9.73
13317 18.3160 89.64 91.62 9.55
13318 18.3170 99.75 91.61 10.11
13319 18.3180 104.79 91.60 10.39
13320 18.3190 107.40 91.60 10.50
13321 18.3200 103.50 91.59 10.24
13322 18.3210 110.87 91.58 10.61
13323 18.3220 105.80 91.58 10.42
13324 18.3230 95.88 91.57 9.98
13325 18.3240 105.07 91.56 10.34
13326 18.3250 95.56 91.56 9.86
13327 18.3260 115.11 91.55 10.81
13328 18.3270 110.28 91.55 10.58
13329 18.3280 93.46 91.54 9.73
13330 18.3290 100.49 91.53 10.08
13331 18.3300 98.96 91.53 9.94
13332 18.3310 105.59 91.52 10.34
13333 18.3320 79.32 91.52 9.01
13334 18.3330 91.25 91.51 9.68
13335 18.3340 105.50 91.51 10.37
13336 18.3350 91.20 91.50 9.64
13337 18.3360 107.25 91.50 10.38
13338 18.3370 115.50 91.49 10.82
13339 18.3380 108.61 91.49 10.50
13340 18.3390 114.72 91.48 10.78
13341 18.3400 97.09 91.47 9.89
13342 18.3410 87.02 91.47 9.43
13343 18.3420 103.37 91.46 10.33
13344 18.3430 77.89 91.46 9.03
13345 18.3440 98.99 91.46 10.11
13346 18.3450 96.66 91.45 9.94
13347 18.3460 101.06 91.45 10.15
13348 18.3470 92.79 91.44 9.73
13349 18.3480 104.63 91.43 10.35
13350 18.3490 95.12 91.43 9.80
13351 18.3500 103.28 91.42 10.22
13352 18.3510 95.42 91.42 9.84
13353 18.3520 102.70 91.41 10.24
13354 18.3530 105.42 91.41 10.42
13355 18.3540 97.10 91.40 9.91
13356 18.3550 105.54 91.40 10.31
13357 18.3560 106.92 91.39 10.34
13358 18.3570 107.54 91.39 10.44
13359 18.3580 116.15 91.39 10.86
13360 18.3590 98.00 91.38 9.95
13361 18.3600 99.81 91.38 10.01
13362 18.3610 87.40 91.38 9.36
13363 18.3620 104.48 91.39 10.33
13364 18.3630 87.40 91.39 9.50
13365 18.3640 88.15 91.38 9.44
13366 18.3650 103.49 91.41 10.23
13367 18.3660 93.72 91.43 9.76
13368 18.3670 109.44 91.46 10.56
13369 18.3680 92.26 91.46 9.72
13370 18.3690 86.03 91.46 9.39
13371 18.3700 111.38 91.45 10.61
13372 18.3710 111.80 91.45 10.63
13373 18.3720 99.81 91.45 10.11
13374 18.3730 92.32 91.45 9.74
13375 18.3740 87.98 91.44 9.45
13376 18.3750 88.62 91.44 9.45
13377 18.3760 98.76 91.44 9.96
13378 18.3770 107.59 91.44 10.44
13379 18.3780 93.82 91.44 9.74
13380 18.3790 101.01 91.43 10.08
13381 18.3800 97.47 91.21 9.90
13382 18.3810 107.47 91.20 10.39
13383 18.3820 118.82 91.10 11.06
13384 18.3830 87.06 91.10 9.45
13385 18.3840 94.42 91.10 9.80
13386 18.3850 96.01 91.10 9.87
13387 18.3860 97.42 91.10 9.88
13388 18.3870 107.44 91.10 10.41
13389 18.3880 107.07 91.10 10.41
13390 18.3890 95.91 91.10 9.82
13391 18.3900 107.73 91.10 10.44
13392 18.3910 92.73 91.10 9.72
13393 18.3920 104.67 91.10 10.39
13394 18.3930 90.52 91.10 9.70
13395 18.3940 106.04 91.11 10.43
13396 18.3950 112.50 91.11 10.70
13397 18.3960 83.06 91.11 9.19
13398 18.3970 98.35 91.11 9.98
13399 18.3980 102.04 91.11 10.19
13400 18.3990 99.98 91.11 10.08
13401 18.4000 104.57 91.11 10.24
13402 18.4010 98.17 91.11 9.94
13403 18.4020 90.79 91.11 9.60
13404 18.4030 109.20 91.11 10.56
13405 18.4040 93.65 91.11 9.76
13406 18.4050 107.58 91.12 10.41
13407 18.4060 86.77 91.12 9.36
13408 18.4070 114.66 91.12 10.82
13409 18.4080 80.35 91.12 9.06
13410 18.4090 82.24 91.12 9.12
13411 18.4100 113.63 91.12 10.69
13412 18.4110 99.42 91.12 10.01
13413 18.4120 85.74 91.12 9.38
13414 18.4130 102.74 91.12 10.28
13415 18.4140 110.88 91.12 10.60
13416 18.4150 96.30 91.13 9.90
13417 18.4160 100.07 91.13 10.11
13418 18.4170 96.91 91.13 9.94
13419 18.4180 100.61 91.13 10.15
13420 18.4190 99.21 91.13 10.09
13421 18.4200 108.67 91.13 10.47
13422 18.4210 99.98 91.13 10.08
13423 18.4220 109.25 91.13 10.59
13424 18.4230 95.65 91.14 9.92
13425 18.4240 83.59 91.14 9.21
13426 18.4250 77.67 91.14 8.86
13427 18.4260 114.63 91.14 10.76
13428 18.4270 93.93 91.14 9.78
13429 18.4280 110.29 91.14 10.61
13430 18.4290 104.32 91.14 10.25
13431 18.4300 110.82 91.15 10.59
13432 18.4310 99.41 91.15 10.05
13433 18.4320 103.95 91.15 10.34
13434 18.4330 86.25 91.15 9.44
13435 18.4340 114.73 91.15 10.81
13436 18.4350 110.93 91.15 10.61
13437 18.4360 103.37 91.16 10.24
13438 18.4370 100.89 91.16 10.13
13439 18.4380 105.98 91.16 10.39
13440 18.4390 97.84 91.16 10.00
13441 18.4400 105.70 91.16 10.37
13442 18.4410 100.83 91.17 10.13
13443 18.4420 97.87 91.17 10.07
13444 18.4430 94.62 91.17 9.91
13445 18.4440 108.98 91.17 10.59
13446 18.4450 98.08 91.17 10.00
13447 18.4460 103.45 91.18 10.26
13448 18.4470 106.16 91.18 10.41
13449 18.4480 101.35 91.18 10.17
13450 18.4490 105.16 91.18 10.32
13451 18.4500 113.39 91.19 10.70
13452 18.4510 107.27 91.19 10.40
13453 18.4520 89.97 91.19 9.58
13454 18.4530 88.17 91.19 9.50
13455 18.4540 103.83 91.20 10.27
13456 18.4550 105.41 91.20 10.35
13457 18.4560 100.50 91.20 10.13
13458 18.4570 97.42 91.20 9.96
13459 18.4580 85.74 91.21 9.40
13460 18.4590 116.57 91.21 10.89
13461 18.4600 93.48 91.21 9.67
13462 18.4610 91.10 91.21 9.60
13463 18.4620 102.32 91.22 10.21
13464 18.4630 106.90 91.22 10.51
13465 18.4640 99.86 91.22 10.11
13466 18.4650 111.01 91.23 10.63
13467 18.4660 102.66 91.23 10.25
13468 18.4670 101.82 91.23 10.22
13469 18.4680 106.89 91.24 10.52
13470 18.4690 99.03 91.24 10.03
13471 18.4700 105.07 91.25 10.34
13472 18.4710 92.86 91.25 9.70
13473 18.4720 94.08 91.25 9.86
13474 18.4730 100.87 91.26 10.19
13475 18.4740 123.18 91.26 11.23
13476 18.4750 114.98 91.26 10.82
13477 18.4760 95.39 91.27 9.84
13478 18.4770 97.80 91.27 9.94
13479 18.4780 88.29 91.28 9.49
13480 18.4790 101.97 91.28 10.16
13481 18.4800 102.86 91.29 10.18
13482 18.4810 96.44 91.29 9.89
13483 18.4820 92.09 91.30 9.76
13484 18.4830 100.23 91.30 10.19
13485 18.4840 110.16 91.31 10.59
13486 18.4850 89.18 91.31 9.50
13487 18.4860 92.26 91.32 9.67
13488 18.4870 110.74 91.32 10.55
13489 18.4880 96.00 91.33 9.91
13490 18.4890 97.42 91.33 9.95
13491 18.4900 108.83 91.34 10.53
13492 18.4910 112.82 91.35 10.77
13493 18.4920 98.28 91.35 10.11
13494 18.4930 94.26 91.36 9.89
13495 18.4940 97.77 91.37 10.03
13496 18.4950 102.58 91.37 10.25
13497 18.4960 109.00 91.38 10.51
13498 18.4970 91.33 91.39 9.63
13499 18.4980 111.49 91.39 10.65
13500 18.4990 104.76 91.40 10.32
13501 18.5000 107.13 91.41 10.37
13502 18.5010 86.44 91.42 9.35
13503 18.5020 93.96 91.43 9.79
13504 18.5030 93.90 91.43 9.82
13505 18.5040 104.66 91.44 10.32
13506 18.5050 103.75 91.45 10.26
13507 18.5060 103.19 91.46 10.23
13508 18.5070 98.98 91.47 10.06
13509 18.5080 108.32 91.48 10.52
13510 18.5090 106.89 91.49 10.42
13511 18.5100 102.83 91.50 10.22
13512 18.5110 86.10 91.51 9.34
13513 18.5120 98.30 91.52 10.01
13514 18.5130 90.43 91.53 9.65
13515 18.5140 98.84 91.55 10.05
13516 18.5150 104.50 91.56 10.34
13517 18.5160 101.23 91.57 10.17
13518 18.5170 110.94 91.58 10.69
13519 18.5180 98.76 91.60 10.12
13520 18.5190 98.06 91.61 10.03
13521 18.5200 106.29 91.62 10.39
13522 18.5210 99.86 91.64 10.06
13523 18.5220 100.75 91.65 10.18
13524 18.5230 107.34 91.67 10.52
13525 18.5240 101.45 91.68 10.20
13526 18.5250 88.45 91.70 9.45
13527 18.5260 109.14 91.72 10.51
13528 18.5270 119.72 91.74 11.04
13529 18.5280 100.80 91.75 10.13
13530 18.5290 97.84 91.77 9.97
13531 18.5300 97.28 91.79 9.92
13532 18.5310 97.03 91.81 9.91
13533 18.5320 109.79 91.83 10.59
13534 18.5330 80.02 91.86 9.09
13535 18.5340 96.34 91.88 9.94
13536 18.5350 95.83 91.90 9.88
13537 18.5360 108.37 91.93 10.47
13538 18.5370 98.99 91.95 10.01
13539 18.5380 106.39 91.98 10.46
13540 18.5390 102.90 92.01 10.25
13541 18.5400 103.12 92.03 10.22
13542 18.5410 96.84 92.06 9.96
13543 18.5420 104.52 92.09 10.42
13544 18.5430 116.46 92.13 11.00
13545 18.5440 108.62 92.16 10.57
13546 18.5450 79.61 92.20 9.02
13547 18.5460 105.82 92.23 10.37
13548 18.5470 103.58 92.27 10.30
13549 18.5480 110.79 92.31 10.66
13550 18.5490 88.09 92.35 9.43
13551 18.5500 107.26 92.39 10.39
13552 18.5510 107.17 92.44 10.40
13553 18.5520 89.58 92.49 9.54
13554 18.5530 109.37 92.54 10.60
13555 18.5540 105.87 92.59 10.47
13556 18.5550 96.62 92.64 9.91
13557 18.5560 105.08 92.70 10.35
13558 18.5570 104.39 92.76 10.32
13559 18.5580 94.44 92.82 9.86
13560 18.5590 106.46 92.91 10.35
13561 18.5600 91.86 92.98 9.65
13562 18.5610 97.22 93.07 9.93
13563 18.5620 110.19 93.16 10.64
13564 18.5630 88.94 93.25 9.63
13565 18.5640 102.38 93.33 10.30
13566 18.5650 99.37 93.43 10.07
13567 18.5660 94.40 93.52 9.85
13568 18.5670 88.29 93.63 9.54
13569 18.5680 112.18 93.74 10.74
13570 18.5690 104.25 93.86 10.28
13571 18.5700 98.52 93.98 9.99
13572 18.5710 98.12 94.11 10.02
13573 18.5720 104.31 94.26 10.36
13574 18.5730 93.28 94.41 9.80
13575 18.5740 99.91 94.57 10.09
13576 18.5750 87.98 94.74 9.43
13577 18.5760 94.24 94.93 9.75
13578 18.5770 107.17 95.13 10.45
13579 18.5780 107.18 95.35 10.47
13580 18.5790 102.11 95.58 10.21
13581 18.5800 109.00 95.83 10.52
13582 18.5810 112.28 96.10 10.68
13583 18.5820 100.43 96.40 10.15
13584 18.5830 100.52 96.72 10.20
13585 18.5840 93.27 97.07 9.76
13586 18.5850 93.22 97.45 9.73
13587 18.5860 85.42 97.88 9.34
13588 18.5870 86.12 98.34 9.41
13589 18.5880 100.33 98.85 10.20
13590 18.5890 98.82 99.41 10.07
13591 18.5900 110.93 100.04 10.65
13592 18.5910 116.33 100.73 10.88
13593 18.5920 104.65 101.51 10.42
13594 18.5930 112.79 102.39 10.82
13595 18.5940 125.64 103.38 11.33
13596 18.5950 92.41 104.50 9.71
13597 18.5960 94.91 105.78 9.88
13598 18.5970 103.84 107.24 10.29
13599 18.5980 128.79 108.93 11.48
13600 18.5990 114.47 110.89 10.77
13601 18.6000 108.40 113.19 10.45
13602 18.6010 121.66 115.91 11.07
13603 18.6020 138.68 119.16 11.89
13604 18.6030 152.09 123.09 12.50
13605 18.6040 134.37 127.93 11.72
13606 18.6050 161.32 134.01 12.84
13607 18.6060 164.23 141.78 12.94
13608 18.6070 190.67 151.88 13.89
13609 18.6080 195.13 165.26 14.18
13610 18.6090 206.85 183.06 14.42
13611 18.6100 246.47 206.80 15.76
13612 18.6110 246.87 237.77 15.79
13613 18.6120 323.90 276.94 18.22
13614 18.6130 350.02 323.73 19.02
13615 18.6140 399.85 374.50 20.28
13616 18.6150 443.03 424.20 21.24
13617 18.6160 554.25 466.82 23.74
13618 18.6170 612.34 494.03 25.11
13619 18.6180 565.53 496.64 24.06
13620 18.6190 518.01 470.55 22.94
13621 18.6200 454.63 421.54 21.43
13622 18.6210 385.75 363.13 19.72
13623 18.6220 318.40 307.33 18.06
13624 18.6230 274.81 260.38 16.80
13625 18.6240 248.34 223.31 15.93
13626 18.6250 207.56 195.13 14.48
13627 18.6260 216.31 174.13 14.78
13628 18.6270 181.35 158.50 13.56
13629 18.6280 158.27 146.82 12.72
13630 18.6290 145.12 137.98 12.16
13631 18.6300 146.83 131.14 12.20
13632 18.6310 144.88 125.70 12.16
13633 18.6320 145.63 121.33 12.22
13634 18.6330 119.39 117.74 11.11
13635 18.6340 127.83 114.73 11.44
13636 18.6350 111.26 112.21 10.63
13637 18.6360 119.38 110.07 11.01
13638 18.6370 96.28 108.22 9.92
13639 18.6380 102.57 106.63 10.28
13640 18.6390 110.51 105.25 10.64
13641 18.6400 111.89 104.04 10.64
13642 18.6410 118.69 102.97 11.04
13643 18.6420 110.15 102.03 10.68
13644 18.6430 106.97 101.20 10.51
13645 18.6440 116.10 100.45 10.91
13646 18.6450 107.89 99.79 10.50
13647 18.6460 114.91 99.19 10.80
13648 18.6470 100.20 98.65 10.12
13649 18.6480 100.35 98.15 10.12
13650 18.6490 108.37 97.71 10.49
13651 18.6500 100.16 97.30 10.03
13652 18.6510 109.36 96.93 10.54
13653 18.6520 105.27 96.60 10.40
13654 18.6530 103.38 96.28 10.33
13655 18.6540 109.45 96.00 10.58
13656 18.6550 104.75 95.73 10.33
13657 18.6560 97.98 95.49 9.97
13658 18.6570 105.11 95.26 10.36
13659 18.6580 117.84 95.06 10.97
13660 18.6590 95.60 94.86 9.83
13661 18.6600 99.65 94.68 10.04
13662 18.6610 106.16 94.51 10.36
13663 18.6620 104.28 94.35 10.38
13664 18.6630 98.09 94.21 10.12
13665 18.6640 91.64 94.07 9.73
13666 18.6650 115.44 93.94 10.84
13667 18.6660 89.11 93.82 9.53
13668 18.6670 108.79 93.70 10.56
13669 18.6680 106.39 93.60 10.46
13670 18.6690 101.73 93.50 10.17
13671 18.6700 108.63 93.40 10.49
13672 18.6710 103.96 93.31 10.27
13673 18.6720 106.07 93.22 10.44
13674 18.6730 120.01 93.14 11.12
13675 18.6740 110.69 93.07 10.62
13676 18.6750 94.34 93.00 9.77
13677 18.6760 108.55 92.93 10.50
13678 18.6770 106.61 92.86 10.42
13679 18.6780 105.10 92.80 10.36
13680 18.6790 94.33 92.74 9.80
13681 18.6800 90.74 92.69 9.57
13682 18.6810 110.59 92.64 10.60
13683 18.6820 101.21 92.59 10.20
13684 18.6830 106.61 92.54 10.48
13685 18.6840 103.35 92.49 10.27
13686 18.6850 112.73 92.45 10.70
13687 18.6860 92.94 92.41 9.70
13688 18.6870 106.02 92.37 10.41
13689 18.6880 89.08 92.33 9.58
13690 18.6890 101.52 92.29 10.17
13691 18.6900 88.92 92.26 9.48
13692 18.6910 93.63 92.23 9.75
13693 18.6920 91.58 92.20 9.75
13694 18.6930 116.72 92.17 10.99
13695 18.6940 118.12 92.14 11.02
13696 18.6950 92.54 92.11 9.70
13697 18.6960 93.96 92.08 9.77
13698 18.6970 120.81 92.06 11.13
13699 18.6980 122.84 92.04 11.20
13700 18.6990 121.46 92.01 11.07
13701 18.7000 95.95 91.99 9.80
13702 18.7010 95.35 91.97 9.81
13703 18.7020 115.99 91.95 10.93
13704 18.7030 101.87 91.93 10.26
13705 18.7040 109.38 91.92 10.55
13706 18.7050 106.99 91.90 10.44
13707 18.7060 101.79 91.88 10.20
13708 18.7070 107.98 91.87 10.46
13709 18.7080 101.67 91.85 10.19
13710 18.7090 83.48 91.84 9.21
13711 18.7100 94.31 91.83 9.78
13712 18.7110 95.80 91.81 9.87
13713 18.7120 106.23 91.80 10.47
13714 18.7130 87.96 91.79 9.55
13715 18.7140 84.74 91.78 9.35
13716 18.7150 101.70 91.77 10.23
13717 18.7160 107.79 91.76 10.48
13718 18.7170 109.48 91.75 10.56
13719 18.7180 96.68 91.74 10.01
13720 18.7190 103.67 91.74 10.27
13721 18.7200 91.93 91.73 9.65
13722 18.7210 105.19 91.73 10.32
13723 18.7220 99.12 91.72 10.10
13724 18.7230 96.09 91.71 9.94
13725 18.7240 96.09 91.71 9.88
13726 18.7250 94.51 91.71 9.78
13727 18.7260 113.15 91.70 10.70
13728 18.7270 109.05 91.70 10.54
13729 18.7280 97.64 91.70 9.98
13730 18.7290 97.61 91.70 9.93
13731 18.7300 105.45 91.70 10.34
13732 18.7310 106.45 91.70 10.40
13733 18.7320 117.06 91.70 10.94
13734 18.7330 108.27 91.70 10.56
13735 18.7340 105.92 91.70 10.38
13736 18.7350 90.88 91.70 9.62
13737 18.7360 96.72 91.71 9.87
13738 18.7370 114.28 91.71 10.81
13739 18.7380 110.01 91.72 10.65
13740 18.7390 89.51 91.72 9.58
13741 18.7400 104.60 91.73 10.29
13742 18.7410 111.66 91.74 10.67
13743 18.7420 91.92 91.74 9.73
13744 18.7430 109.10 91.75 10.63
13745 18.7440 92.10 91.76 9.71
13746 18.7450 112.80 91.77 10.70
13747 18.7460 103.90 91.78 10.24
13748 18.7470 111.29 91.80 10.63
13749 18.7480 92.51 91.81 9.72
13750 18.7490 103.13 91.82 10.16
13751 18.7500 104.81 91.84 10.26
13752 18.7510 95.27 91.86 9.85
13753 18.7520 92.39 91.87 9.73
13754 18.7530 94.48 91.89 9.84
13755 18.7540 103.56 91.92 10.29
13756 18.7550 95.99 91.94 9.89
13757 18.7560 103.75 91.96 10.23
13758 18.7570 99.11 91.99 10.02
13759 18.7580 111.50 92.02 10.67
13760 18.7590 109.60 92.04 10.53
13761 18.7600 111.92 92.08 10.62
13762 18.7610 92.73 92.11 9.70
13763 18.7620 102.21 92.15 10.32
13764 18.7630 113.12 92.18 10.79
13765 18.7640 125.41 92.23 11.32
13766 18.7650 98.07 92.27 9.97
13767 18.7660 107.01 92.32 10.47
13768 18.7670 94.58 92.37 9.81
13769 18.7680 76.11 92.42 8.85
13770 18.7690 112.42 92.48 10.70
13771 18.7700 112.20 92.54 10.63
13772 18.7710 93.21 92.61 9.69
13773 18.7720 100.88 92.69 10.16
13774 18.7730 110.70 92.76 10.66
13775 18.7740 115.44 92.85 10.82
13776 18.7750 123.11 92.94 11.14
13777 18.7760 104.09 93.04 10.24
13778 18.7770 111.52 93.15 10.67
13779 18.7780 92.40 93.26 9.73
13780 18.7790 108.47 93.39 10.50
13781 18.7800 97.24 93.53 9.92
13782 18.7810 96.52 93.68 9.86
13783 18.7820 93.42 93.85 9.80
13784 18.7830 106.63 94.03 10.45
13785 18.7840 94.18 94.23 9.82
13786 18.7850 94.75 94.45 9.82
13787 18.7860 118.19 94.69 10.97
13788 18.7870 97.58 94.96 10.00
13789 18.7880 102.98 95.27 10.27
13790 18.7890 110.65 95.60 10.66
13791 18.7900 113.95 95.98 10.75
13792 18.7910 101.51 96.41 10.13
13793 18.7920 106.75 96.89 10.47
13794 18.7930 103.03 97.44 10.32
13795 18.7940 108.77 98.07 10.54
13796 18.7950 113.90 98.79 10.74
13797 18.7960 98.47 99.63 9.98
13798 18.7970 96.30 100.61 9.88
13799 18.7980 113.03 101.76 10.73
13800 18.7990 94.50 103.12 9.72
13801 18.8000 100.85 104.75 10.05
13802 18.8010 101.13 106.75 10.09
13803 18.8020 104.89 109.21 10.39
13804 18.8030 118.23 112.31 10.99
13805 18.8040 120.96 116.32 11.10
13806 18.8050 118.02 121.58 10.92
13807 18.8060 126.24 128.59 11.31
13808 18.8070 140.70 137.97 11.97
13809 18.8080 147.27 150.52 12.26
13810 18.8090 169.69 166.98 13.11
13811 18.8100 199.10 187.77 14.17
13812 18.8110 220.21 212.46 14.92
13813 18.8120 227.17 238.61 15.28
13814 18.8130 305.79 261.72 17.73
13815 18.8140 282.76 276.79 17.01
13816 18.8150 246.19 279.81 15.79
13817 18.8160 236.99 269.04 15.52
13818 18.8170 242.43 247.10 15.72
13819 18.8180 194.95 220.05 14.14
13820 18.8190 184.37 193.93 13.63
13821 18.8200 187.00 171.71 13.69
13822 18.8210 155.03 154.04 12.51
13823 18.8220 156.78 140.56 12.66
13824 18.8230 147.64 130.48 12.28
13825 18.8240 134.75 122.96 11.67
13826 18.8250 112.68 117.34 10.65
13827 18.8260 127.33 113.09 11.32
13828 18.8270 115.69 109.80 10.83
13829 18.8280 105.67 107.21 10.42
13830 18.8290 93.18 105.11 9.74
13831 18.8300 95.76 103.40 9.86
13832 18.8310 96.75 101.97 9.89
13833 18.8320 90.50 100.77 9.63
13834 18.8330 132.40 99.75 11.67
13835 18.8340 109.05 98.88 10.56
13836 18.8350 92.35 98.12 9.69
13837 18.8360 107.96 97.46 10.49
13838 18.8370 106.04 96.89 10.39
13839 18.8380 105.02 96.39 10.42
13840 18.8390 88.03 95.94 9.48
13841 18.8400 96.57 95.54 9.90
13842 18.8410 94.15 95.19 9.77
13843 18.8420 101.30 94.88 10.21
13844 18.8430 96.88 94.59 9.97
13845 18.8440 90.57 94.33 9.61
13846 18.8450 98.10 94.10 9.96
13847 18.8460 98.68 93.89 9.97
13848 18.8470 83.72 93.70 9.20
13849 18.8480 92.87 93.52 9.74
13850 18.8490 105.73 93.36 10.32
13851 18.8500 108.53 93.21 10.43
13852 18.8510 93.54 93.08 9.75
13853 18.8520 88.05 92.95 9.51
13854 18.8530 101.61 92.83 10.21
13855 18.8540 103.36 92.73 10.29
13856 18.8550 91.36 92.63 9.63
13857 18.8560 89.24 92.53 9.52
13858 18.8570 95.76 92.45 9.87
13859 18.8580 104.58 92.37 10.31
13860 18.8590 89.95 92.29 9.54
13861 18.8600 89.18 92.22 9.50
13862 18.8610 103.42 92.15 10.23
13863 18.8620 93.98 92.09 9.86
13864 18.8630 99.32 92.03 10.13
13865 18.8640 89.79 91.98 9.62
13866 18.8650 95.07 91.92 9.85
13867 18.8660 97.99 91.87 9.96
13868 18.8670 112.89 91.81 10.73
13869 18.8680 99.23 91.76 10.07
13870 18.8690 94.60 91.72 9.77
13871 18.8700 93.45 91.65 9.69
13872 18.8710 88.38 91.59 9.43
13873 18.8720 112.56 91.52 10.73
13874 18.8730 109.11 91.49 10.60
13875 18.8740 94.69 91.46 9.81
13876 18.8750 99.35 91.43 10.02
13877 18.8760 96.95 91.40 9.92
13878 18.8770 101.83 91.37 10.17
13879 18.8780 106.41 91.35 10.42
13880 18.8790 87.73 91.32 9.43
13881 18.8800 76.16 91.30 8.76
13882 18.8810 117.21 91.28 10.86
13883 18.8820 88.11 91.26 9.49
13884 18.8830 88.95 91.24 9.57
13885 18.8840 99.16 91.22 10.08
13886 18.8850 86.73 91.20 9.37
13887 18.8860 107.38 91.18 10.44
13888 18.8870 86.94 91.16 9.42
13889 18.8880 100.19 91.15 10.13
13890 18.8890 83.76 91.13 9.24
13891 18.8900 74.49 91.11 8.70
13892 18.8910 90.20 91.10 9.55
13893 18.8920 97.87 91.09 10.03
13894 18.8930 97.41 91.07 10.05
13895 18.8940 92.96 91.06 9.73
13896 18.8950 107.38 91.05 10.41
13897 18.8960 109.75 91.04 10.54
13898 18.8970 91.86 91.03 9.64
13899 18.8980 113.65 91.02 10.73
13900 18.8990 106.74 91.01 10.36
13901 18.9000 98.84 91.00 9.94
13902 18.9010 91.19 90.99 9.62
13903 18.9020 98.36 90.98 10.03
13904 18.9030 114.47 90.97 10.85
13905 18.9040 89.28 90.96 9.56
13906 18.9050 119.02 90.96 10.99
13907 18.9060 91.35 90.95 9.60
13908 18.9070 84.09 90.94 9.23
13909 18.9080 100.02 90.94 10.09
13910 18.9090 95.16 90.93 9.83
13911 18.9100 84.57 90.93 9.28
13912 18.9110 106.35 90.92 10.40
13913 18.9120 91.12 90.92 9.71
13914 18.9130 88.75 90.92 9.61
13915 18.9140 87.73 90.92 9.51
13916 18.9150 99.85 90.91 10.09
13917 18.9160 95.18 90.97 9.84
13918 18.9170 84.47 90.99 9.30
13919 18.9180 81.32 90.99 9.13
13920 18.9190 91.42 90.99 9.63
13921 18.9200 99.92 90.99 10.02
13922 18.9210 90.21 90.99 9.54
13923 18.9220 104.77 91.00 10.33
13924 18.9230 93.13 91.00 9.77
13925 18.9240 97.41 91.01 9.95
13926 18.9250 81.59 91.02 9.11
13927 18.9260 91.60 91.03 9.62
13928 18.9270 97.21 91.04 10.00
13929 18.9280 90.22 91.06 9.61
13930 18.9290 103.21 91.08 10.24
13931 18.9300 109.01 91.10 10.50
13932 18.9310 98.04 91.12 9.95
13933 18.9320 79.24 91.15 9.02
13934 18.9330 92.34 91.18 9.73
13935 18.9340 115.39 91.22 10.85
13936 18.9350 95.34 91.26 9.88
13937 18.9360 101.41 91.31 10.14
13938 18.9370 88.73 91.37 9.55
13939 18.9380 90.63 91.45 9.65
13940 18.9390 98.69 91.54 10.05
13941 18.9400 99.19 91.65 10.04
13942 18.9410 126.86 91.79 11.33
13943 18.9420 98.53 91.97 10.06
13944 18.9430 109.44 92.20 10.63
13945 18.9440 107.37 92.50 10.47
13946 18.9450 92.74 92.90 9.67
13947 18.9460 102.07 93.44 10.15
13948 18.9470 102.19 94.17 10.18
13949 18.9480 77.05 95.11 8.87
13950 18.9490 107.61 96.30 10.42
13951 18.9500 105.58 97.71 10.31
13952 18.9510 121.47 99.17 11.12
13953 18.9520 101.18 100.41 10.19
13954 18.9530 104.56 101.14 10.37
13955 18.9540 102.34 101.22 10.21
13956 18.9550 104.25 100.65 10.29
13957 18.9560 108.05 99.53 10.43
13958 18.9570 94.73 98.11 9.85
13959 18.9580 97.90 96.67 10.01
13960 18.9590 96.16 95.40 9.91
13961 18.9600 108.01 94.38 10.47
13962 18.9610 113.82 93.59 10.74
13963 18.9620 113.00 93.00 10.77
13964 18.9630 90.71 92.55 9.71
13965 18.9640 114.60 92.22 10.86
13966 18.9650 96.62 91.96 9.92
13967 18.9660 98.64 91.83 10.05
13968 18.9670 91.30 91.67 9.65
13969 18.9680 95.57 91.55 9.91
13970 18.9690 103.98 91.45 10.24
13971 18.9700 104.20 91.51 10.21
13972 18.9710 99.12 91.44 9.97
13973 18.9720 95.89 91.38 9.90
13974 18.9730 84.90 91.32 9.33
13975 18.9740 110.03 91.28 10.59
13976 18.9750 94.63 91.24 9.80
13977 18.9760 104.01 91.21 10.27
13978 18.9770 88.31 91.18 9.50
13979 18.9780 82.86 91.15 9.22
13980 18.9790 100.23 91.13 10.09
13981 18.9800 100.47 91.11 10.11
13982 18.9810 98.38 91.09 10.03
13983 18.9820 100.70 91.08 10.19
13984 18.9830 98.72 91.06 10.14
13985 18.9840 83.93 91.05 9.27
13986 18.9850 86.81 91.04 9.41
13987 18.9860 105.22 91.03 10.33
13988 18.9870 105.11 91.02 10.36
13989 18.9880 96.77 91.01 9.97
13990 18.9890 84.23 91.00 9.29
13991 18.9900 90.53 90.99 9.59
13992 18.9910 110.70 90.99 10.60
13993 18.9920 97.07 90.98 10.02
13994 18.9930 103.02 90.98 10.32
13995 18.9940 102.74 90.97 10.20
13996 18.9950 108.74 90.97 10.48
13997 18.9960 101.63 90.96 10.13
13998 18.9970 100.15 90.96 10.07
13999 18.9980 91.23 90.96 9.67
14000 18.9990 101.96 90.96 10.18
14001 19.0000 87.22 90.95 9.39
14002 19.0010 88.17 90.95 9.46
14003 19.0020 106.58 90.95 10.48
14004 19.0030 87.26 90.95 9.52
14005 19.0040 100.17 90.95 10.12
14006 19.0050 78.68 90.95 8.94
14007 19.0060 95.33 90.95 9.88
14008 19.0070 84.09 90.95 9.28
14009 19.0080 103.51 90.95 10.31
14010 19.0090 111.77 90.95 10.68
14011 19.0100 100.51 90.95 10.09
14012 19.0110 92.13 90.95 9.67
14013 19.0120 91.21 90.95 9.71
14014 19.0130 87.05 90.95 9.50
14015 19.0140 112.41 90.95 10.73
14016 19.0150 88.06 90.95 9.51
14017 19.0160 125.92 90.95 11.32
14018 19.0170 95.61 90.95 9.91
14019 19.0180 80.08 90.96 9.05
14020 19.0190 89.46 90.96 9.52
14021 19.0200 98.81 90.96 9.95
14022 19.0210 85.44 90.96 9.26
14023 19.0220 105.78 90.96 10.37
14024 19.0230 97.74 90.97 10.03
14025 19.0240 103.73 90.97 10.30
14026 19.0250 107.76 90.97 10.47
14027 19.0260 90.64 90.98 9.61
14028 19.0270 95.78 90.98 9.89
14029 19.0280 90.05 90.98 9.60
14030 19.0290 88.02 90.99 9.45
14031 19.0300 89.52 90.99 9.51
14032 19.0310 95.96 90.99 9.86
14033 19.0320 117.02 91.00 10.99
14034 19.0330 95.37 91.00 9.92
14035 19.0340 96.41 91.00 9.91
14036 19.0350 97.12 91.01 9.94
14037 19.0360 93.70 91.01 9.75
14038 19.0370 95.87 91.02 9.91
14039 19.0380 116.48 91.02 10.90
14040 19.0390 93.29 91.03 9.77
14041 19.0400 94.33 91.03 9.78
14042 19.0410 88.98 91.04 9.52
14043 19.0420 98.26 91.05 10.02
14044 19.0430 100.64 91.05 10.18
14045 19.0440 103.78 91.06 10.24
14046 19.0450 86.81 91.06 9.34
14047 19.0460 88.84 91.07 9.46
14048 19.0470 98.66 91.08 9.99
14049 19.0480 107.53 91.08 10.43
14050 19.0490 97.45 91.09 9.96
14051 19.0500 96.80 91.10 9.89
14052 19.0510 80.14 91.11 8.99
14053 19.0520 77.96 91.11 8.97
14054 19.0530 89.77 91.12 9.62
14055 19.0540 104.53 91.13 10.32
14056 19.0550 92.53 91.14 9.66
14057 19.0560 91.67 91.15 9.68
14058 19.0570 96.32 91.16 9.90
14059 19.0580 102.20 91.17 10.20
14060 19.0590 116.07 91.18 10.88
14061 19.0600 101.22 91.20 10.11
14062 19.0610 106.85 91.21 10.43
14063 19.0620 119.93 91.22 11.09
14064 19.0630 88.67 91.23 9.59
14065 19.0640 96.11 91.24 9.91
14066 19.0650 107.01 91.25 10.46
14067 19.0660 100.94 91.26 10.15
14068 19.0670 99.63 91.27 10.05
14069 19.0680 101.49 91.26 10.17
14070 19.0690 86.67 91.27 9.36
14071 19.0700 93.99 91.27 9.68
14072 19.0710 88.80 91.27 9.45
14073 19.0720 105.92 91.28 10.40
14074 19.0730 101.31 91.29 10.22
14075 19.0740 82.89 91.31 9.20
14076 19.0750 101.68 91.32 10.18
14077 19.0760 103.71 91.34 10.24
14078 19.0770 85.30 91.36 9.32
14079 19.0780 98.44 91.37 10.02
14080 19.0790 112.84 91.39 10.65
14081 19.0800 100.62 91.41 10.10
14082 19.0810 93.58 91.43 9.71
14083 19.0820 112.05 91.44 10.74
14084 19.0830 95.07 91.46 9.91
14085 19.0840 83.05 91.48 9.19
14086 19.0850 100.48 91.50 10.13
14087 19.0860 96.28 91.53 9.91
14088 19.0870 100.30 91.55 10.09
14089 19.0880 98.39 91.57 9.99
14090 19.0890 97.15 91.59 9.98
14091 19.0900 99.91 91.62 10.04
14092 19.0910 97.27 91.64 9.93
14093 19.0920 95.25 91.67 9.88
14094 19.0930 107.97 91.70 10.50
14095 19.0940 91.32 91.72 9.63
14096 19.0950 90.90 91.75 9.58
14097 19.0960 107.47 91.78 10.38
14098 19.0970 86.52 91.81 9.35
14099 19.0980 89.33 91.84 9.54
14100 19.0990 90.70 91.88 9.58
14101 19.1000 114.21 91.91 10.73
14102 19.1010 85.96 91.95 9.32
14103 19.1020 97.61 91.98 9.97
14104 19.1030 103.67 92.02 10.31
14105 19.1040 110.15 92.06 10.57
14106 19.1050 90.77 92.10 9.61
14107 19.1060 98.04 92.14 9.97
14108 19.1070 95.77 92.19 9.90
14109 19.1080 103.94 92.24 10.29
14110 19.1090 96.17 92.28 9.89
14111 19.1100 94.15 92.33 9.72
14112 19.1110 96.72 92.39 9.91
14113 19.1120 99.28 92.44 10.09
14114 19.1130 112.69 92.50 10.81
14115 19.1140 102.33 92.56 10.24
14116 19.1150 101.43 92.62 10.17
14117 19.1160 96.70 92.68 9.92
14118 19.1170 104.15 92.75 10.29
14119 19.1180 103.12 92.82 10.21
14120 19.1190 104.49 92.89 10.29
14121 19.1200 93.73 92.97 9.68
14122 19.1210 87.90 93.05 9.40
14123 19.1220 96.62 93.14 9.93
14124 19.1230 104.20 93.23 10.37
14125 19.1240 99.60 93.32 10.07
14126 19.1250 103.17 93.42 10.20
14127 19.1260 103.37 93.53 10.22
14128 19.1270 87.03 93.64 9.40
14129 19.1280 106.10 93.76 10.41
14130 19.1290 103.64 93.89 10.27
14131 19.1300 101.43 94.02 10.12
14132 19.1310 77.97 94.16 8.91
14133 19.1320 83.50 94.31 9.30
14134 19.1330 99.30 94.47 10.12
14135 19.1340 97.80 94.64 9.99
14136 19.1350 96.23 94.82 9.87
14137 19.1360 100.51 95.01 10.13
14138 19.1370 85.63 95.22 9.36
14139 19.1380 100.07 95.45 10.13
14140 19.1390 97.84 95.69 9.97
14141 19.1400 105.15 95.95 10.31
14142 19.1410 96.75 96.23 9.89
14143 19.1420 95.21 96.54 9.84
14144 19.1430 93.77 96.87 9.84
14145 19.1440 106.74 97.23 10.41
14146 19.1450 106.15 97.63 10.35
14147 19.1460 80.10 98.06 8.99
14148 19.1470 106.57 98.54 10.38
14149 19.1480 94.47 99.07 9.85
14150 19.1490 98.33 99.66 9.98
14151 19.1500 104.42 100.31 10.27
14152 19.1510 96.49 101.04 9.89
14153 19.1520 107.68 101.86 10.52
14154 19.1530 108.08 102.79 10.58
14155 19.1540 103.54 103.85 10.26
14156 19.1550 113.23 105.06 10.70
14157 19.1560 118.51 106.45 11.00
14158 19.1570 115.48 108.06 10.87
14159 19.1580 98.39 109.95 10.04
14160 19.1590 132.36 112.17 11.60
14161 19.1600 106.04 114.83 10.38
14162 19.1610 123.83 118.05 11.23
14163 19.1620 125.29 122.01 11.34
14164 19.1630 146.90 127.00 12.35
14165 19.1640 146.25 133.38 12.26
14166 19.1650 149.05 141.76 12.34
14167 19.1660 170.13 152.91 13.08
14168 19.1670 173.57 167.82 13.25
14169 19.1680 188.65 187.71 13.87
14170 19.1690 201.46 213.92 14.25
14171 19.1700 267.87 247.18 16.37
14172 19.1710 279.05 287.14 16.72
14173 19.1720 305.31 330.30 17.65
14174 19.1730 376.97 367.45 19.73
14175 19.1740 373.72 386.40 19.46
14176 19.1750 382.26 379.59 19.64
14177 19.1760 373.47 350.50 19.45
14178 19.1770 284.34 310.09 17.03
14179 19.1780 263.70 268.67 16.39
14180 19.1790 201.01 232.29 14.27
14181 19.1800 205.83 202.95 14.48
14182 19.1810 185.39 180.29 13.73
14183 19.1820 156.50 163.30 12.68
14184 19.1830 147.64 150.66 12.37
14185 19.1840 143.71 141.36 12.12
14186 19.1850 135.76 134.44 11.77
14187 19.1860 137.54 129.21 11.82
14188 19.1870 130.11 125.24 11.52
14189 19.1880 137.86 122.17 11.91
14190 19.1890 139.97 119.78 11.99
14191 19.1900 111.27 117.91 10.60
14192 19.1910 129.66 116.47 11.46
14193 19.1920 116.49 115.38 10.93
14194 19.1930 102.09 114.58 10.23
14195 19.1940 108.46 114.05 10.46
14196 19.1950 101.84 113.74 10.15
14197 19.1960 118.76 113.64 10.98
14198 19.1970 112.79 113.74 10.72
14199 19.1980 116.29 114.03 10.90
14200 19.1990 128.90 114.50 11.43
14201 19.2000 107.91 115.17 10.44
14202 19.2010 94.98 116.04 9.83
14203 19.2020 118.86 117.12 11.04
14204 19.2030 116.63 118.44 11.01
14205 19.2040 120.88 120.02 11.16
14206 19.2050 117.47 121.89 10.96
14207 19.2060 122.67 124.09 11.18
14208 19.2070 110.14 126.70 10.60
14209 19.2080 125.09 129.77 11.31
14210 19.2090 121.72 133.39 11.10
14211 19.2100 140.02 137.69 11.90
14212 19.2110 142.66 142.84 12.04
14213 19.2120 145.68 149.04 12.25
14214 19.2130 150.83 156.61 12.53
14215 19.2140 173.19 165.99 13.30
14216 19.2150 170.03 177.81 13.17
14217 19.2160 191.38 192.94 13.92
14218 19.2170 227.73 212.63 15.18
14219 19.2180 231.97 238.60 15.33
14220 19.2190 266.57 272.76 16.37
14221 19.2200 316.46 317.55 17.89
14222 19.2210 359.67 375.46 19.07
14223 19.2220 444.30 447.05 21.34
14224 19.2230 502.58 529.81 22.75
14225 19.2240 583.16 615.73 24.42
14226 19.2250 695.46 693.47 26.53
14227 19.2260 750.97 758.16 27.60
14228 19.2270 795.83 808.78 28.46
14229 19.2280 769.33 835.09 28.16
14230 19.2290 697.92 817.82 26.72
14231 19.2300 660.60 750.27 25.92
14232 19.2310 551.06 650.57 23.68
14233 19.2320 476.90 545.19 22.15
14234 19.2330 383.87 451.38 19.88
14235 19.2340 329.88 374.80 18.28
14236 19.2350 294.42 314.94 17.26
14237 19.2360 270.41 269.63 16.64
14238 19.2370 233.77 235.57 15.49
14239 19.2380 219.66 209.91 15.05
14240 19.2390 188.68 190.54 13.84
14241 19.2400 179.73 175.61 13.47
14242 19.2410 178.09 163.87 13.39
14243 19.2420 151.19 154.45 12.44
14244 19.2430 156.23 146.77 12.62
14245 19.2440 137.87 140.39 11.85
14246 19.2450 130.34 135.03 11.48
14247 19.2460 129.72 130.49 11.49
14248 19.2470 122.11 126.59 11.16
14249 19.2480 127.47 123.24 11.42
14250 19.2490 116.68 120.32 10.91
14251 19.2500 118.95 117.77 10.95
14252 19.2510 111.76 115.53 10.63
14253 19.2520 105.74 113.55 10.45
14254 19.2530 100.31 111.79 10.19
14255 19.2540 107.43 110.23 10.49
14256 19.2550 116.98 108.82 10.90
14257 19.2560 97.27 107.56 9.93
14258 19.2570 110.21 106.42 10.63
14259 19.2580 94.12 105.39 9.79
14260 19.2590 101.11 104.45 10.14
14261 19.2600 102.98 103.60 10.20
14262 19.2610 79.76 102.82 9.03
14263 19.2620 98.83 102.10 10.10
14264 19.2630 98.79 101.44 10.13
14265 19.2640 104.11 100.84 10.35
14266 19.2650 95.14 100.28 9.84
14267 19.2660 116.83 99.76 10.88
14268 19.2670 100.99 99.29 10.12
14269 19.2680 93.33 98.84 9.73
14270 19.2690 102.62 98.43 10.15
14271 19.2700 99.33 98.04 10.02
14272 19.2710 97.50 97.68 9.95
14273 19.2720 93.14 97.35 9.83
14274 19.2730 101.81 97.03 10.22
14275 19.2740 95.64 96.73 9.90
14276 19.2750 89.32 96.46 9.54
14277 19.2760 96.54 96.20 9.86
14278 19.2770 110.11 95.95 10.64
14279 19.2780 84.59 95.72 9.35
14280 19.2790 85.09 95.50 9.32
14281 19.2800 91.55 95.29 9.65
14282 19.2810 96.30 95.10 9.91
14283 19.2820 96.23 94.91 9.94
14284 19.2830 88.52 94.73 9.57
14285 19.2840 103.52 94.57 10.29
14286 19.2850 88.23 94.41 9.50
14287 19.2860 90.57 94.26 9.61
14288 19.2870 91.39 94.11 9.71
14289 19.2880 96.18 93.98 9.97
14290 19.2890 105.89 93.85 10.37
14291 19.2900 107.53 93.72 10.41
14292 19.2910 79.92 93.60 8.99
14293 19.2920 99.10 93.49 10.08
14294 19.2930 102.52 93.38 10.22
14295 19.2940 83.51 93.27 9.25
14296 19.2950 76.33 93.18 8.81
14297 19.2960 103.53 93.08 10.27
14298 19.2970 93.62 92.99 9.80
14299 19.2980 98.71 92.90 10.04
14300 19.2990 85.48 92.81 9.32
14301 19.3000 100.12 92.73 10.06
14302 19.3010 107.19 92.66 10.42
14303 19.3020 116.70 92.58 10.96
14304 19.3030 98.95 92.51 10.15
14305 19.3040 79.47 92.44 9.07
14306 19.3050 96.42 92.37 9.92
14307 19.3060 87.60 92.31 9.45
14308 19.3070 97.04 92.24 9.97
14309 19.3080 78.19 92.18 8.95
14310 19.3090 84.73 92.12 9.30
14311 19.3100 99.62 92.07 10.05
14312 19.3110 112.59 92.01 10.69
14313 19.3120 107.00 91.96 10.54
14314 19.3130 103.32 91.91 10.36
14315 19.3140 89.79 91.86 9.58
14316 19.3150 91.78 91.81 9.67
14317 19.3160 78.34 91.77 8.95
14318 19.3170 85.23 91.72 9.31
14319 19.3180 107.79 91.68 10.47
14320 19.3190 83.80 91.64 9.23
14321 19.3200 97.94 91.60 9.94
14322 19.3210 75.16 91.56 8.74
14323 19.3220 96.29 91.52 9.97
14324 19.3230 82.52 91.48 9.24
14325 19.3240 83.62 91.44 9.25
14326 19.3250 103.85 91.41 10.27
14327 19.3260 97.74 91.37 9.96
14328 19.3270 101.72 91.34 10.21
14329 19.3280 88.93 91.31 9.59
14330 19.3290 91.03 91.27 9.68
14331 19.3300 110.37 91.24 10.58
14332 19.3310 101.12 91.21 10.13
14333 19.3320 103.22 91.18 10.32
14334 19.3330 98.03 91.16 10.14
14335 19.3340 102.42 91.13 10.22
14336 19.3350 86.76 91.10 9.42
14337 19.3360 82.65 91.07 9.19
14338 19.3370 96.42 91.05 9.98
14339 19.3380 97.31 91.02 10.00
14340 19.3390 98.64 91.00 10.04
14341 19.3400 79.86 90.97 8.97
14342 19.3410 85.02 90.95 9.26
14343 19.3420 84.03 90.93 9.33
14344 19.3430 100.64 90.91 10.19
14345 19.3440 97.13 90.88 9.97
14346 19.3450 93.68 90.86 9.76
14347 19.3460 101.15 90.84 10.16
14348 19.3470 83.30 90.82 9.25
14349 19.3480 77.33 90.80 8.90
14350 19.3490 104.19 90.78 10.31
14351 19.3500 105.46 90.76 10.32
14352 19.3510 84.61 90.74 9.30
14353 19.3520 103.50 90.72 10.36
14354 19.3530 92.06 90.71 9.79
14355 19.3540 82.13 90.69 9.25
14356 19.3550 86.71 90.67 9.43
14357 19.3560 87.60 90.65 9.47
14358 19.3570 89.37 90.64 9.56
14359 19.3580 104.54 90.62 10.35
14360 19.3590 87.37 90.60 9.45
14361 19.3600 89.64 90.59 9.55
14362 19.3610 87.01 90.57 9.41
14363 19.3620 84.70 90.56 9.39
14364 19.3630 97.76 90.54 10.10
14365 19.3640 94.40 90.53 9.86
14366 19.3650 105.44 90.51 10.35
14367 19.3660 98.54 90.50 9.99
14368 19.3670 96.50 90.48 9.92
14369 19.3680 88.89 90.47 9.57
14370 19.3690 81.36 90.46 9.11
14371 19.3700 101.03 90.44 10.08
14372 19.3710 118.35 90.43 10.95
14373 19.3720 84.71 90.42 9.35
14374 19.3730 105.44 90.41 10.45
14375 19.3740 98.55 90.39 10.07
14376 19.3750 88.30 90.38 9.51
14377 19.3760 76.68 90.37 8.87
14378 19.3770 92.52 90.36 9.77
14379 19.3780 102.65 90.35 10.28
14380 19.3790 98.58 90.33 10.06
14381 19.3800 85.93 90.32 9.34
14382 19.3810 92.51 90.31 9.71
14383 19.3820 91.77 90.30 9.73
14384 19.3830 94.53 90.29 9.90
14385 19.3840 89.94 90.28 9.60
14386 19.3850 99.98 90.27 10.12
14387 19.3860 90.79 90.26 9.63
14388 19.3870 83.75 90.25 9.27
14389 19.3880 101.38 90.24 10.23
14390 19.3890 92.74 90.23 9.73
14391 19.3900 80.56 90.22 9.00
14392 19.3910 82.93 90.21 9.16
14393 19.3920 95.59 90.20 9.94
14394 19.3930 93.99 90.19 9.87
14395 19.3940 81.85 90.18 9.16
14396 19.3950 101.51 90.17 10.17
14397 19.3960 81.12 90.16 9.13
14398 19.3970 88.27 90.15 9.55
14399 19.3980 87.62 90.14 9.49
14400 19.3990 85.14 90.14 9.29
14401 19.4000 100.01 90.13 10.07
14402 19.4010 96.88 90.12 9.93
14403 19.4020 97.03 90.11 10.05
14404 19.4030 86.34 90.10 9.50
14405 19.4040 91.67 90.09 9.75
14406 19.4050 81.70 90.08 9.14
14407 19.4060 105.11 90.08 10.32
14408 19.4070 93.28 90.07 9.75
14409 19.4080 94.35 90.06 9.85
14410 19.4090 79.76 90.05 9.05
14411 19.4100 92.96 90.05 9.69
14412 19.4110 101.46 90.04 10.20
14413 19.4120 87.22 90.03 9.50
14414 19.4130 92.34 90.02 9.83
14415 19.4140 79.18 90.02 9.04
14416 19.4150 87.44 90.01 9.41
14417 19.4160 95.32 90.00 9.84
14418 19.4170 82.65 89.99 9.19
14419 19.4180 100.12 89.99 10.12
14420 19.4190 105.45 90.06 10.38
14421 19.4200 95.75 90.05 9.83
14422 19.4210 93.34 90.05 9.74
14423 19.4220 91.65 90.04 9.70
14424 19.4230 99.44 90.20 10.12
14425 19.4240 106.20 90.19 10.40
14426 19.4250 86.25 90.19 9.40
14427 19.4260 86.79 90.18 9.42
14428 19.4270 76.95 90.18 8.92
14429 19.4280 102.56 90.17 10.29
14430 19.4290 106.58 90.17 10.47
14431 19.4300 85.09 90.17 9.32
14432 19.4310 93.30 90.16 9.71
14433 19.4320 101.18 90.16 10.21
14434 19.4330 88.97 90.10 9.61
14435 19.4340 93.50 90.10 9.78
14436 19.4350 90.61 90.07 9.62
14437 19.4360 92.17 90.07 9.70
14438 19.4370 84.67 90.07 9.37
14439 19.4380 85.89 90.06 9.40
14440 19.4390 87.97 90.06 9.48
14441 19.4400 100.87 90.06 10.09
14442 19.4410 101.06 90.06 10.10
14443 19.4420 96.91 90.05 9.98
14444 19.4430 97.92 90.05 10.07
14445 19.4440 89.24 90.05 9.56
14446 19.4450 84.15 90.04 9.28
14447 19.4460 100.94 90.04 10.13
14448 19.4470 89.49 90.04 9.54
14449 19.4480 98.44 90.04 10.03
14450 19.4490 79.78 90.03 8.98
14451 19.4500 93.28 90.03 9.69
14452 19.4510 89.62 90.03 9.56
14453 19.4520 96.39 90.03 10.01
14454 19.4530 82.65 90.02 9.31
14455 19.4540 88.82 90.02 9.57
14456 19.4550 95.07 90.02 9.86
14457 19.4560 84.81 90.02 9.26
14458 19.4570 88.30 90.02 9.49
14459 19.4580 87.43 90.01 9.45
14460 19.4590 85.85 90.01 9.41
14461 19.4600 88.79 90.01 9.49
14462 19.4610 87.89 90.01 9.45
14463 19.4620 88.67 90.01 9.58
14464 19.4630 88.41 90.01 9.57
14465 19.4640 91.40 90.00 9.68
14466 19.4650 88.30 90.00 9.48
14467 19.4660 97.24 90.00 9.90
14468 19.4670 111.10 90.00 10.64
14469 19.4680 87.33 90.00 9.42
14470 19.4690 88.69 90.00 9.48
14471 19.4700 87.79 90.00 9.39
14472 19.4710 88.56 90.00 9.46
14473 19.4720 86.50 89.99 9.39
14474 19.4730 109.24 89.99 10.63
14475 19.4740 89.82 89.99 9.56
14476 19.4750 100.73 89.99 10.12
14477 19.4760 84.69 89.99 9.28
14478 19.4770 96.32 89.99 9.94
14479 19.4780 82.23 89.99 9.19
14480 19.4790 103.62 89.99 10.32
14481 19.4800 84.69 89.99 9.25
14482 19.4810 67.89 89.99 8.28
14483 19.4820 85.64 89.99 9.36
14484 19.4830 93.59 89.99 9.85
14485 19.4840 96.50 89.92 9.96
14486 19.4850 76.28 89.93 8.84
14487 19.4860 83.34 89.93 9.21
14488 19.4870 88.61 89.93 9.54
14489 19.4880 108.75 89.86 10.59
14490 19.4890 79.74 89.79 9.02
14491 19.4900 75.33 89.79 8.69
14492 19.4910 75.57 89.79 8.71
14493 19.4920 84.21 89.79 9.28
14494 19.4930 79.02 89.79 9.02
14495 19.4940 94.26 89.80 9.83
14496 19.4950 84.87 89.80 9.31
14497 19.4960 93.28 89.80 9.72
14498 19.4970 96.52 89.80 9.95
14499 19.4980 82.48 89.81 9.16
14500 19.4990 87.69 89.81 9.43
14501 19.5000 82.03 89.81 9.11
14502 19.5010 99.18 89.81 10.08
14503 19.5020 110.82 89.82 10.69
14504 19.5030 72.23 89.82 8.68
14505 19.5040 81.41 89.82 9.17
14506 19.5050 93.04 89.83 9.76
14507 19.5060 69.26 89.83 8.38
14508 19.5070 90.42 89.83 9.59
14509 19.5080 95.45 89.84 9.91
14510 19.5090 100.29 89.84 10.13
14511 19.5100 91.56 89.84 9.63
14512 19.5110 89.68 89.85 9.55
14513 19.5120 89.11 89.85 9.57
14514 19.5130 92.14 89.86 9.79
14515 19.5140 84.90 89.86 9.29
14516 19.5150 96.84 89.86 9.91
14517 19.5160 76.74 89.87 8.79
14518 19.5170 82.85 89.87 9.22
14519 19.5180 94.66 89.88 9.85
14520 19.5190 82.38 89.88 9.18
14521 19.5200 83.76 89.89 9.21
14522 19.5210 84.59 89.89 9.31
14523 19.5220 105.81 89.90 10.40
14524 19.5230 103.13 89.90 10.34
14525 19.5240 98.34 89.91 10.04
14526 19.5250 89.51 89.91 9.59
14527 19.5260 84.93 89.92 9.35
14528 19.5270 91.71 89.92 9.73
14529 19.5280 97.35 89.93 10.02
14530 19.5290 83.45 89.94 9.26
14531 19.5300 107.26 89.94 10.37
14532 19.5310 95.82 89.95 9.86
14533 19.5320 110.17 89.95 10.65
14534 19.5330 84.75 89.96 9.41
14535 19.5340 81.66 89.97 9.18
14536 19.5350 79.37 89.98 8.98
14537 19.5360 93.92 89.98 9.81
14538 19.5370 91.04 89.99 9.65
14539 19.5380 76.01 90.00 8.83
14540 19.5390 91.07 90.01 9.66
14541 19.5400 71.13 90.01 8.49
14542 19.5410 84.24 90.02 9.24
14543 19.5420 100.29 90.03 10.16
14544 19.5430 87.89 90.04 9.53
14545 19.5440 87.49 90.05 9.46
14546 19.5450 87.95 90.06 9.47
14547 19.5460 104.95 90.07 10.32
14548 19.5470 92.41 90.08 9.76
14549 19.5480 99.06 90.09 10.10
14550 19.5490 99.62 90.10 10.10
14551 19.5500 81.04 90.11 9.11
14552 19.5510 83.17 90.12 9.23
14553 19.5520 82.85 90.13 9.26
14554 19.5530 76.15 90.14 8.93
14555 19.5540 96.37 90.15 9.93
14556 19.5550 88.61 90.17 9.52
14557 19.5560 87.27 90.18 9.44
14558 19.5570 82.87 90.19 9.23
14559 19.5580 89.08 90.21 9.59
14560 19.5590 104.55 90.22 10.35
14561 19.5600 89.89 90.23 9.55
14562 19.5610 93.49 90.25 9.78
14563 19.5620 65.67 90.26 8.21
14564 19.5630 81.61 90.28 9.22
14565 19.5640 90.28 90.29 9.62
14566 19.5650 87.31 90.31 9.43
14567 19.5660 97.07 90.33 9.93
14568 19.5670 81.92 90.34 9.13
14569 19.5680 99.74 90.36 10.11
14570 19.5690 90.90 90.38 9.66
14571 19.5700 86.34 90.40 9.34
14572 19.5710 88.22 90.42 9.45
14573 19.5720 84.41 90.44 9.34
14574 19.5730 88.30 90.46 9.61
14575 19.5740 76.17 90.48 8.85
14576 19.5750 79.10 90.50 9.01
14577 19.5760 85.30 90.52 9.35
14578 19.5770 83.17 90.55 9.27
14579 19.5780 95.02 90.57 9.92
14580 19.5790 97.16 90.59 9.95
14581 19.5800 97.94 90.62 9.98
14582 19.5810 93.74 90.65 9.76
14583 19.5820 75.50 90.67 8.80
14584 19.5830 110.24 90.70 10.68
14585 19.5840 83.01 90.73 9.24
14586 19.5850 92.17 90.76 9.72
14587 19.5860 105.20 90.79 10.35
14588 19.5870 88.12 90.82 9.50
14589 19.5880 93.06 90.85 9.79
14590 19.5890 92.03 90.89 9.69
14591 19.5900 73.68 90.92 8.62
14592 19.5910 88.31 90.96 9.47
14593 19.5920 83.32 91.00 9.26
14594 19.5930 91.73 91.04 9.77
14595 19.5940 93.03 91.07 9.81
14596 19.5950 123.22 91.12 11.18
14597 19.5960 98.13 91.16 9.99
14598 19.5970 74.55 91.20 8.78
14599 19.5980 110.26 91.25 10.65
14600 19.5990 83.16 91.30 9.20
14601 19.6000 86.21 91.35 9.35
14602 19.6010 85.74 91.40 9.38
14603 19.6020 86.89 91.45 9.49
14604 19.6030 91.81 91.51 9.75
14605 19.6040 108.68 91.56 10.55
14606 19.6050 97.43 91.62 9.98
14607 19.6060 103.68 91.69 10.25
14608 19.6070 79.16 91.75 9.01
14609 19.6080 98.50 91.82 10.08
14610 19.6090 98.60 91.89 10.04
14611 19.6100 95.51 91.96 9.87
14612 19.6110 91.35 92.04 9.63
14613 19.6120 97.77 92.11 10.05
14614 19.6130 104.43 92.20 10.41
14615 19.6140 81.83 92.28 9.19
14616 19.6150 88.14 92.37 9.46
14617 19.6160 83.94 92.46 9.25
14618 19.6170 94.47 92.56 9.84
14619 19.6180 92.44 92.66 9.78
14620 19.6190 93.72 92.77 9.81
14621 19.6200 90.95 92.88 9.63
14622 19.6210 88.48 93.00 9.50
14623 19.6220 71.32 93.12 8.59
14624 19.6230 88.07 93.25 9.56
14625 19.6240 93.28 93.39 9.80
14626 19.6250 112.44 93.53 10.72
14627 19.6260 97.60 93.68 9.98
14628 19.6270 98.52 93.83 10.05
14629 19.6280 89.04 94.00 9.58
14630 19.6290 99.97 94.17 10.09
14631 19.6300 92.19 94.36 9.69
14632 19.6310 89.42 94.55 9.55
14633 19.6320 92.39 94.76 9.76
14634 19.6330 98.99 94.97 10.16
14635 19.6340 86.49 95.20 9.41
14636 19.6350 104.10 95.44 10.29
14637 19.6360 89.72 95.70 9.58
14638 19.6370 81.24 95.98 9.13
14639 19.6380 97.27 96.27 10.01
14640 19.6390 111.83 96.58 10.65
14641 19.6400 94.18 96.91 9.80
14642 19.6410 103.00 97.26 10.24
14643 19.6420 89.55 97.64 9.62
14644 19.6430 91.20 98.04 9.73
14645 19.6440 98.83 98.47 10.09
14646 19.6450 94.34 98.94 9.84
14647 19.6460 84.11 99.44 9.26
14648 19.6470 97.17 99.98 9.94
14649 19.6480 101.54 100.56 10.21
14650 19.6490 89.57 101.19 9.56
14651 19.6500 108.03 101.87 10.51
14652 19.6510 97.78 102.61 9.99
14653 19.6520 93.58 103.41 9.86
14654 19.6530 105.35 104.29 10.50
14655 19.6540 114.60 105.25 10.92
14656 19.6550 85.64 106.31 9.32
14657 19.6560 102.19 107.47 10.22
14658 19.6570 98.07 108.75 10.03
14659 19.6580 96.19 110.18 9.96
14660 19.6590 117.49 111.75 10.93
14661 19.6600 111.50 113.51 10.62
14662 19.6610 125.86 115.48 11.29
14663 19.6620 130.99 117.70 11.63
14664 19.6630 117.48 120.20 11.03
14665 19.6640 136.08 123.04 11.82
14666 19.6650 127.11 126.29 11.35
14667 19.6660 121.97 130.01 11.14
14668 19.6670 141.19 134.31 11.99
14669 19.6680 161.58 139.32 12.91
14670 19.6690 164.85 145.21 12.95
14671 19.6700 173.09 152.19 13.21
14672 19.6710 156.59 160.55 12.55
14673 19.6720 185.24 170.76 13.78
14674 19.6730 186.36 183.38 13.89
14675 19.6740 211.47 199.27 14.76
14676 19.6750 227.18 219.62 15.25
14677 19.6760 264.58 246.17 16.45
14678 19.6770 274.46 280.86 16.86
14679 19.6780 345.67 326.38 18.90
14680 19.6790 392.39 385.83 19.98
14681 19.6800 484.53 461.27 22.08
14682 19.6810 566.66 553.12 23.88
14683 19.6820 635.47 656.78 25.54
14684 19.6830 777.07 760.63 28.33
14685 19.6840 879.59 851.52 29.97
14686 19.6850 969.92 922.12 31.51
14687 19.6860 975.97 966.17 31.59
14688 19.6870 903.77 967.27 30.38
14689 19.6880 878.49 911.04 30.03
14690 19.6890 730.07 807.07 27.23
14691 19.6900 604.85 683.64 24.63
14692 19.6910 488.02 566.70 22.17
14693 19.6920 423.86 467.64 20.81
14694 19.6930 403.99 388.43 20.49
14695 19.6940 340.95 327.54 18.71
14696 19.6950 312.04 281.31 17.75
14697 19.6960 264.28 246.36 16.32
14698 19.6970 237.01 219.89 15.55
14699 19.6980 209.71 199.62 14.62
14700 19.6990 187.25 183.79 13.78
14701 19.7000 155.86 171.19 12.62
14702 19.7010 152.28 161.00 12.52
14703 19.7020 132.19 152.59 11.71
14704 19.7030 141.21 145.57 12.14
14705 19.7040 124.66 139.64 11.28
14706 19.7050 129.96 134.57 11.47
14707 19.7060 118.91 130.23 10.98
14708 19.7070 122.20 126.46 11.16
14709 19.7080 118.03 123.18 11.00
14710 19.7090 103.91 120.31 10.34
14711 19.7100 113.79 117.78 10.79
14712 19.7110 114.04 115.54 10.78
14713 19.7120 98.23 113.54 10.05
14714 19.7130 93.06 111.76 9.79
14715 19.7140 111.68 110.16 10.70
14716 19.7150 99.75 108.72 10.01
14717 19.7160 103.65 107.43 10.22
14718 19.7170 99.66 106.25 10.08
14719 19.7180 103.61 105.18 10.31
14720 19.7190 86.51 104.20 9.38
14721 19.7200 95.60 103.31 9.79
14722 19.7210 78.81 102.49 8.94
14723 19.7220 95.09 101.74 9.90
14724 19.7230 90.28 101.04 9.69
14725 19.7240 91.81 100.40 9.77
14726 19.7250 108.79 99.81 10.57
14727 19.7260 108.23 99.26 10.54
14728 19.7270 102.52 98.75 10.32
14729 19.7280 93.46 98.28 9.77
14730 19.7290 86.73 97.84 9.39
14731 19.7300 90.15 97.43 9.55
14732 19.7310 95.65 97.04 9.87
14733 19.7320 79.76 96.68 9.05
14734 19.7330 84.64 96.34 9.37
14735 19.7340 86.69 96.02 9.46
14736 19.7350 93.13 95.73 9.75
14737 19.7360 77.09 95.45 8.86
14738 19.7370 103.42 95.18 10.29
14739 19.7380 96.24 94.93 9.93
14740 19.7390 99.69 94.70 10.02
14741 19.7400 84.85 94.47 9.24
14742 19.7410 93.41 94.26 9.71
14743 19.7420 105.28 94.06 10.39
14744 19.7430 98.64 93.87 10.10
14745 19.7440 92.96 93.69 9.78
14746 19.7450 85.62 93.52 9.35
14747 19.7460 74.11 93.35 8.70
14748 19.7470 84.88 93.20 9.34
14749 19.7480 89.97 93.05 9.64
14750 19.7490 97.73 92.91 10.02
14751 19.7500 91.21 92.77 9.63
14752 19.7510 90.86 92.64 9.65
14753 19.7520 83.47 92.52 9.29
14754 19.7530 87.53 92.40 9.56
14755 19.7540 80.55 92.29 9.13
14756 19.7550 97.68 92.18 9.93
14757 19.7560 86.26 92.08 9.37
14758 19.7570 108.04 91.98 10.51
14759 19.7580 85.33 91.88 9.38
14760 19.7590 88.77 91.79 9.53
14761 19.7600 86.39 91.70 9.35
14762 19.7610 80.73 91.62 9.09
14763 19.7620 105.16 91.66 10.41
14764 19.7630 94.04 91.58 9.87
14765 19.7640 111.10 91.51 10.66
14766 19.7650 93.56 91.44 9.74
14767 19.7660 86.96 91.62 9.45
14768 19.7670 89.10 91.56 9.53
14769 19.7680 98.13 91.49 10.06
14770 19.7690 90.24 91.43 9.61
14771 19.7700 71.75 91.37 8.54
14772 19.7710 89.26 91.32 9.56
14773 19.7720 89.60 91.26 9.62
14774 19.7730 70.37 91.21 8.59
14775 19.7740 77.95 91.16 9.03
14776 19.7750 79.56 91.11 9.06
14777 19.7760 92.14 91.07 9.71
14778 19.7770 92.72 91.02 9.78
14779 19.7780 94.87 90.98 9.86
14780 19.7790 73.31 90.93 8.66
14781 19.7800 82.07 90.89 9.13
14782 19.7810 101.01 90.85 10.14
14783 19.7820 82.00 90.81 9.24
14784 19.7830 77.79 90.78 9.02
14785 19.7840 93.32 90.74 9.80
14786 19.7850 82.11 90.71 9.17
14787 19.7860 80.59 90.67 9.07
14788 19.7870 81.35 90.64 9.13
14789 19.7880 95.44 90.61 9.90
14790 19.7890 96.34 90.58 9.92
14791 19.7900 96.48 90.55 9.89
14792 19.7910 99.48 90.52 10.05
14793 19.7920 88.01 90.49 9.54
14794 19.7930 81.36 90.46 9.20
14795 19.7940 75.34 90.44 8.82
14796 19.7950 79.12 90.41 8.96
14797 19.7960 86.39 90.39 9.39
14798 19.7970 87.22 90.36 9.48
14799 19.7980 62.36 90.34 8.06
14800 19.7990 78.48 90.32 8.98
14801 19.8000 93.27 90.29 9.77
14802 19.8010 83.82 90.27 9.26
14803 19.8020 75.38 90.25 8.86
14804 19.8030 85.63 90.23 9.43
14805 19.8040 88.16 90.21 9.51
14806 19.8050 72.65 90.19 8.62
14807 19.8060 77.38 90.18 8.88
14808 19.8070 85.60 90.16 9.40
14809 19.8080 77.08 90.14 8.91
14810 19.8090 95.99 90.12 9.88
14811 19.8100 62.91 90.11 8.01
14812 19.8110 81.76 90.09 9.13
14813 19.8120 72.77 90.08 8.64
14814 19.8130 78.80 90.06 9.02
14815 19.8140 84.13 90.05 9.30
14816 19.8150 91.40 90.03 9.67
14817 19.8160 83.44 90.02 9.21
14818 19.8170 77.36 90.01 8.90
14819 19.8180 88.37 90.00 9.55
14820 19.8190 82.23 89.98 9.18
14821 19.8200 82.20 89.97 9.10
14822 19.8210 73.19 89.96 8.64
14823 19.8220 79.58 89.95 9.10
14824 19.8230 88.22 89.94 9.61
14825 19.8240 91.55 89.93 9.73
14826 19.8250 86.68 89.92 9.39
14827 19.8260 102.63 89.91 10.26
14828 19.8270 92.48 89.90 9.74
14829 19.8280 88.25 89.89 9.50
14830 19.8290 89.86 89.88 9.53
14831 19.8300 74.59 89.88 8.69
14832 19.8310 72.55 89.87 8.58
14833 19.8320 86.66 89.86 9.44
14834 19.8330 89.49 89.85 9.64
14835 19.8340 86.71 89.85 9.43
14836 19.8350 89.71 89.84 9.56
14837 19.8360 93.24 89.83 9.73
14838 19.8370 77.30 89.83 8.87
14839 19.8380 83.42 89.82 9.27
14840 19.8390 86.94 89.82 9.42
14841 19.8400 84.36 89.81 9.21
14842 19.8410 77.52 89.81 8.90
14843 19.8420 83.66 89.80 9.31
14844 19.8430 100.24 89.80 10.24
14845 19.8440 73.77 89.80 8.72
14846 19.8450 78.14 89.79 8.94
14847 19.8460 90.83 89.79 9.63
14848 19.8470 88.35 89.79 9.54
14849 19.8480 82.91 89.79 9.22
14850 19.8490 91.68 89.78 9.69
14851 19.8500 86.68 89.78 9.39
14852 19.8510 74.28 89.78 8.71
14853 19.8520 86.83 89.78 9.49
14854 19.8530 95.83 89.78 9.97
14855 19.8540 87.28 89.78 9.48
14856 19.8550 77.54 89.78 8.89
14857 19.8560 84.73 89.78 9.29
14858 19.8570 85.33 89.78 9.38
14859 19.8580 85.45 89.78 9.40
14860 19.8590 83.59 89.78 9.23
14861 19.8600 82.31 89.78 9.17
14862 19.8610 79.22 89.78 8.97
14863 19.8620 91.84 89.78 9.72
14864 19.8630 92.22 89.78 9.82
14865 19.8640 78.55 89.78 8.98
14866 19.8650 79.06 89.79 8.99
14867 19.8660 91.02 89.79 9.61
14868 19.8670 75.60 89.79 8.82
14869 19.8680 76.89 89.80 8.88
14870 19.8690 102.01 89.80 10.19
14871 19.8700 91.76 89.80 9.63
14872 19.8710 90.66 89.81 9.56
14873 19.8720 81.37 89.81 9.15
14874 19.8730 72.71 89.82 8.73
14875 19.8740 80.99 89.82 9.20
14876 19.8750 102.08 89.83 10.24
14877 19.8760 86.71 89.84 9.44
14878 19.8770 83.09 89.84 9.26
14879 19.8780 74.73 89.85 8.77
14880 19.8790 77.98 89.86 8.92
14881 19.8800 87.37 89.86 9.40
14882 19.8810 76.24 89.87 8.83
14883 19.8820 91.27 89.88 9.72
14884 19.8830 78.55 89.89 9.05
14885 19.8840 80.79 89.90 9.11
14886 19.8850 77.41 89.91 8.87
14887 19.8860 91.07 89.92 9.64
14888 19.8870 87.69 89.93 9.49
14889 19.8880 81.82 89.94 9.13
14890 19.8890 85.21 89.95 9.33
14891 19.8900 81.08 89.96 9.09
14892 19.8910 74.71 89.97 8.71
14893 19.8920 71.58 89.99 8.59
14894 19.8930 75.41 90.00 8.84
14895 19.8940 67.33 90.01 8.32
14896 19.8950 101.50 90.03 10.18
14897 19.8960 83.35 90.04 9.20
14898 19.8970 90.77 90.06 9.68
14899 19.8980 84.36 90.07 9.36
14900 19.8990 89.16 90.09 9.60
14901 19.9000 83.82 90.10 9.27
14902 19.9010 100.06 90.12 10.12
14903 19.9020 95.92 90.14 9.97
14904 19.9030 86.46 90.16 9.47
14905 19.9040 76.52 90.18 8.86
14906 19.9050 83.91 90.20 9.24
14907 19.9060 77.76 90.22 8.91
14908 19.9070 79.34 90.24 9.03
14909 19.9080 77.45 90.26 8.94
14910 19.9090 92.77 90.28 9.70
14911 19.9100 72.03 90.31 8.56
14912 19.9110 85.58 90.33 9.34
14913 19.9120 100.84 90.36 10.19
14914 19.9130 84.51 90.38 9.36
14915 19.9140 86.88 90.41 9.45
14916 19.9150 83.77 90.44 9.23
14917 19.9160 68.79 90.47 8.37
14918 19.9170 83.68 90.49 9.25
14919 19.9180 84.01 90.53 9.26
14920 19.9190 91.35 90.56 9.61
14921 19.9200 93.63 90.59 9.72
14922 19.9210 82.65 90.62 9.13
14923 19.9220 83.52 90.66 9.32
14924 19.9230 88.75 90.69 9.66
14925 19.9240 72.07 90.73 8.66
14926 19.9250 80.39 90.77 9.09
14927 19.9260 84.51 90.81 9.33
14928 19.9270 73.94 90.85 8.73
14929 19.9280 74.40 90.89 8.74
14930 19.9290 95.48 90.93 9.85
14931 19.9300 92.69 90.98 9.64
14932 19.9310 85.01 91.03 9.31
14933 19.9320 100.72 91.07 10.16
14934 19.9330 93.93 91.12 9.86
14935 19.9340 91.08 91.18 9.66
14936 19.9350 76.11 91.23 8.84
14937 19.9360 71.02 91.29 8.49
14938 19.9370 79.88 91.34 9.04
14939 19.9380 85.14 91.40 9.36
14940 19.9390 73.48 91.46 8.65
14941 19.9400 87.61 91.53 9.41
14942 19.9410 78.43 91.59 8.87
14943 19.9420 86.42 91.66 9.38
14944 19.9430 81.43 91.73 9.19
14945 19.9440 83.52 91.81 9.26
14946 19.9450 92.86 91.88 9.71
14947 19.9460 97.72 91.96 9.97
14948 19.9470 76.60 92.05 8.90
14949 19.9480 87.55 92.13 9.53
14950 19.9490 87.19 92.14 9.48
14951 19.9500 76.72 92.24 8.84
14952 19.9510 88.09 92.33 9.48
14953 19.9520 91.20 92.27 9.69
14954 19.9530 101.37 92.38 10.26
14955 19.9540 85.15 92.49 9.35
14956 19.9550 89.52 92.60 9.55
14957 19.9560 72.55 92.72 8.64
14958 19.9570 69.75 92.85 8.46
14959 19.9580 82.37 92.98 9.17
14960 19.9590 101.46 93.11 10.17
14961 19.9600 96.01 93.25 9.85
14962 19.9610 79.69 93.40 8.98
14963 19.9620 83.74 93.56 9.27
14964 19.9630 81.32 93.72 9.16
14965 19.9640 98.67 93.89 10.05
14966 19.9650 85.39 94.06 9.33
14967 19.9660 74.98 94.25 8.73
14968 19.9670 85.57 94.44 9.38
14969 19.9680 72.14 94.65 8.61
14970 19.9690 82.08 94.86 9.17
14971 19.9700 87.41 95.09 9.43
14972 19.9710 87.16 95.33 9.41
14973 19.9720 84.23 95.58 9.36
14974 19.9730 82.74 95.84 9.29
14975 19.9740 89.79 96.12 9.67
14976 19.9750 82.16 96.41 9.18
14977 19.9760 87.57 96.72 9.49
14978 19.9770 93.04 97.05 9.76
14979 19.9780 95.08 97.40 9.89
14980 19.9790 87.01 97.78 9.44
14981 19.9800 109.50 98.17 10.55
14982 19.9810 86.40 98.59 9.36
14983 19.9820 90.70 99.04 9.67
14984 19.9830 95.26 99.53 9.93
14985 19.9840 85.87 100.05 9.38
14986 19.9850 79.88 100.61 9.02
14987 19.9860 85.27 101.21 9.34
14988 19.9870 104.02 101.86 10.31
14989 19.9880 82.06 102.57 9.20
14990 19.9890 87.64 103.35 9.43
14991 19.9900 85.42 104.20 9.29
14992 19.9910 93.86 105.15 9.75
14993 19.9920 81.26 106.22 9.14
14994 19.9930 106.11 107.43 10.45
14995 19.9940 91.84 108.82 9.72
14996 19.9950 86.66 110.45 9.43
14997 19.9960 120.67 112.38 11.16
14998 19.9970 118.48 114.68 11.06
14999 19.9980 90.28 117.44 9.68
15000 19.9990 108.56 120.71 10.58
15001 20.0000 110.37 124.46 10.61
15002 20.0010 111.08 128.51 10.65
15003 20.0020 101.78 132.35 10.25
15004 20.0030 137.14 135.26 11.96
15005 20.0040 127.31 136.81 11.45
15006 20.0050 122.46 137.29 11.21
15007 20.0060 140.67 137.46 11.97
15008 20.0070 132.16 137.97 11.65
15009 20.0080 117.51 139.16 10.99
15010 20.0090 148.01 141.16 12.25
15011 20.0100 138.01 144.02 11.78
15012 20.0110 120.94 147.74 11.12
15013 20.0120 143.00 152.38 12.13
15014 20.0130 153.64 158.02 12.62
15015 20.0140 158.77 164.76 12.75
15016 20.0150 156.24 172.77 12.61
15017 20.0160 186.02 182.37 13.77
15018 20.0170 197.70 193.85 14.24
15019 20.0180 210.13 207.76 14.69
15020 20.0190 219.63 224.88 14.97
15021 20.0200 283.26 246.22 16.96
15022 20.0210 281.42 273.27 16.89
15023 20.0220 316.71 308.01 18.10
15024 20.0230 368.55 353.23 19.69
15025 20.0240 440.06 412.33 21.30
15026 20.0250 454.86 489.18 21.65
15027 20.0260 605.58 587.95 24.79
15028 20.0270 704.41 711.76 26.91
15029 20.0280 835.97 857.64 29.26
15030 20.0290 1000.28 1014.86 31.94
15031 20.0300 1210.07 1164.35 35.01
15032 20.0310 1261.41 1288.48 35.76
15033 20.0320 1467.43 1382.45 39.01
15034 20.0330 1588.90 1437.99 40.59
15035 20.0340 1470.05 1430.01 38.87
15036 20.0350 1244.49 1339.13 35.58
15037 20.0360 1093.00 1180.46 33.39
15038 20.0370 970.47 995.43 31.58
15039 20.0380 776.99 820.07 28.29
15040 20.0390 675.91 670.83 26.28
15041 20.0400 585.81 551.34 24.36
15042 20.0410 508.86 458.66 22.69
15043 20.0420 390.45 388.03 20.08
15044 20.0430 359.48 334.40 19.21
15045 20.0440 324.95 293.42 18.29
15046 20.0450 266.25 261.96 16.48
15047 20.0460 248.34 237.35 15.93
15048 20.0470 232.73 217.65 15.49
15049 20.0480 188.76 201.72 13.98
15050 20.0490 181.89 188.57 13.65
15051 20.0500 161.48 177.56 12.79
15052 20.0510 166.76 168.24 13.00
15053 20.0520 138.41 160.30 11.95
15054 20.0530 159.80 153.46 12.87
15055 20.0540 141.98 147.53 12.06
15056 20.0550 125.16 142.36 11.32
15057 20.0560 120.44 137.83 11.09
15058 20.0570 114.79 133.84 10.81
15059 20.0580 132.35 130.29 11.63
15060 20.0590 105.11 127.14 10.33
15061 20.0600 106.69 124.32 10.39
15062 20.0610 108.63 121.79 10.50
15063 20.0620 102.39 119.51 10.28
15064 20.0630 112.71 117.45 10.85
15065 20.0640 104.59 115.59 10.39
15066 20.0650 104.04 113.88 10.34
15067 20.0660 101.16 112.33 10.14
15068 20.0670 92.85 110.92 9.75
15069 20.0680 85.41 109.61 9.41
15070 20.0690 74.13 108.42 8.71
15071 20.0700 93.23 107.32 9.72
15072 20.0710 92.79 106.30 9.72
15073 20.0720 85.04 105.36 9.42
15074 20.0730 77.12 104.49 8.98
15075 20.0740 73.99 103.68 8.72
15076 20.0750 88.68 102.92 9.56
15077 20.0760 81.52 102.22 9.12
15078 20.0770 110.90 101.56 10.66
15079 20.0780 91.63 100.95 9.74
15080 20.0790 83.37 100.38 9.22
15081 20.0800 89.01 99.84 9.50
15082 20.0810 101.54 99.33 10.15
15083 20.0820 89.86 98.85 9.60
15084 20.0830 105.24 98.40 10.45
15085 20.0840 88.74 97.98 9.54
15086 20.0850 89.27 97.58 9.50
15087 20.0860 82.71 97.21 9.17
15088 20.0870 88.10 96.85 9.51
15089 20.0880 74.26 96.51 8.75
15090 20.0890 75.21 96.19 8.74
15091 20.0900 96.39 95.89 9.88
15092 20.0910 83.81 95.60 9.20
15093 20.0920 94.19 95.33 9.83
15094 20.0930 78.81 95.06 8.99
15095 20.0940 70.45 94.82 8.51
15096 20.0950 79.62 94.58 9.00
15097 20.0960 85.40 94.35 9.35
15098 20.0970 87.80 94.14 9.52
15099 20.0980 78.73 93.93 9.03
15100 20.0990 82.25 93.74 9.19
15101 20.1000 85.69 93.55 9.32
15102 20.1010 81.98 93.37 9.11
15103 20.1020 93.32 93.19 9.81
15104 20.1030 71.69 93.03 8.64
15105 20.1040 80.38 92.87 9.07
15106 20.1050 84.33 92.72 9.28
15107 20.1060 88.73 92.57 9.50
15108 20.1070 75.76 92.43 8.80
15109 20.1080 77.01 92.30 8.89
15110 20.1090 76.12 92.17 8.77
15111 20.1100 75.57 92.04 8.75
15112 20.1110 95.35 91.92 9.81
15113 20.1120 74.04 91.80 8.74
15114 20.1130 61.68 91.69 8.01
15115 20.1140 81.45 91.58 9.14
15116 20.1150 72.91 91.48 8.60
15117 20.1160 81.43 91.38 9.08
15118 20.1170 67.70 91.28 8.31
15119 20.1180 83.80 91.19 9.23
15120 20.1190 75.68 91.10 8.76
15121 20.1200 83.66 91.01 9.19
15122 20.1210 73.27 90.92 8.67
15123 20.1220 72.43 90.84 8.65
15124 20.1230 91.20 90.76 9.76
15125 20.1240 83.44 90.68 9.27
15126 20.1250 76.74 90.61 8.85
15127 20.1260 68.38 90.54 8.34
15128 20.1270 82.35 90.47 9.16
15129 20.1280 70.16 90.40 8.47
15130 20.1290 76.02 90.33 8.80
15131 20.1300 90.17 90.27 9.54
15132 20.1310 79.03 90.20 8.95
15133 20.1320 75.33 90.14 8.79
15134 20.1330 72.92 90.08 8.68
15135 20.1340 75.82 90.03 8.79
15136 20.1350 80.38 89.97 9.03
15137 20.1360 78.12 89.92 8.91
15138 20.1370 89.01 89.86 9.55
15139 20.1380 80.81 89.81 9.11
15140 20.1390 79.49 89.76 8.97
15141 20.1400 83.67 89.71 9.20
15142 20.1410 79.99 89.66 8.97
15143 20.1420 94.20 89.62 9.78
15144 20.1430 72.43 89.57 8.64
15145 20.1440 78.54 89.53 8.95
15146 20.1450 73.86 89.49 8.68
15147 20.1460 92.44 89.44 9.70
15148 20.1470 70.80 89.40 8.56
15149 20.1480 68.73 89.36 8.44
15150 20.1490 74.16 89.32 8.74
15151 20.1500 77.79 89.28 8.88
15152 20.1510 81.74 89.25 9.08
15153 20.1520 89.29 89.21 9.59
15154 20.1530 84.01 89.17 9.33
15155 20.1540 96.54 89.14 9.92
15156 20.1550 82.43 89.11 9.17
15157 20.1560 83.15 89.07 9.19
15158 20.1570 85.00 89.04 9.31
15159 20.1580 84.72 89.01 9.30
15160 20.1590 82.79 88.98 9.16
15161 20.1600 75.74 88.94 8.76
15162 20.1610 84.04 88.91 9.21
15163 20.1620 84.89 88.89 9.32
15164 20.1630 82.71 88.86 9.25
15165 20.1640 81.20 88.83 9.10
15166 20.1650 82.46 88.80 9.13
15167 20.1660 71.34 88.77 8.52
15168 20.1670 82.60 88.75 9.13
15169 20.1680 78.08 88.72 8.94
15170 20.1690 74.25 88.69 8.66
15171 20.1700 89.58 88.67 9.55
15172 20.1710 69.44 88.64 8.44
15173 20.1720 69.41 88.62 8.48
15174 20.1730 71.09 88.60 8.62
15175 20.1740 87.80 88.57 9.52
15176 20.1750 93.80 88.55 9.76
15177 20.1760 60.89 88.53 7.87
15178 20.1770 63.79 88.50 8.09
15179 20.1780 79.62 88.48 9.00
15180 20.1790 70.46 88.46 8.48
15181 20.1800 104.30 88.44 10.26
15182 20.1810 84.12 88.42 9.23
15183 20.1820 74.24 88.40 8.72
15184 20.1830 67.51 88.38 8.37
15185 20.1840 73.27 88.36 8.66
15186 20.1850 67.71 88.34 8.29
15187 20.1860 74.98 88.32 8.74
15188 20.1870 74.94 88.30 8.75
15189 20.1880 70.44 88.28 8.52
15190 20.1890 69.45 88.26 8.41
15191 20.1900 69.95 88.24 8.39
15192 20.1910 78.52 88.23 8.89
15193 20.1920 60.75 88.21 7.93
15194 20.1930 70.19 88.19 8.53
15195 20.1940 82.57 88.17 9.19
15196 20.1950 75.44 88.16 8.81
15197 20.1960 78.25 88.14 8.96
15198 20.1970 82.05 88.12 9.21
15199 20.1980 74.61 88.11 8.78
15200 20.1990 84.65 88.09 9.30
15201 20.2000 70.72 88.08 8.47
15202 20.2010 92.92 88.06 9.73
15203 20.2020 75.05 88.05 8.76
15204 20.2030 65.98 88.03 8.30
15205 20.2040 91.63 88.02 9.70
15206 20.2050 60.12 88.00 7.84
15207 20.2060 73.84 87.99 8.62
15208 20.2070 87.15 87.97 9.46
15209 20.2080 76.45 87.96 8.84
15210 20.2090 83.78 87.94 9.22
15211 20.2100 58.67 87.93 7.71
15212 20.2110 82.50 87.92 9.16
15213 20.2120 81.63 87.90 9.19
15214 20.2130 77.53 87.89 8.95
15215 20.2140 80.20 87.88 9.06
15216 20.2150 83.01 87.86 9.19
15217 20.2160 72.28 87.85 8.54
15218 20.2170 79.64 87.84 9.02
15219 20.2180 74.37 87.83 8.71
15220 20.2190 85.56 87.81 9.35
15221 20.2200 83.34 87.80 9.22
15222 20.2210 77.94 87.79 8.94
15223 20.2220 82.56 87.78 9.28
15224 20.2230 77.01 87.76 8.98
15225 20.2240 85.65 87.75 9.40
15226 20.2250 68.47 87.74 8.37
15227 20.2260 65.90 87.73 8.17
15228 20.2270 85.15 87.72 9.33
15229 20.2280 83.80 87.71 9.27
15230 20.2290 74.36 87.70 8.71
15231 20.2300 71.76 87.68 8.51
15232 20.2310 81.26 87.67 9.08
15233 20.2320 81.34 87.66 9.13
15234 20.2330 70.82 87.65 8.57
15235 20.2340 87.30 87.64 9.46
15236 20.2350 71.26 87.63 8.51
15237 20.2360 74.47 87.62 8.69
15238 20.2370 74.13 87.61 8.74
15239 20.2380 77.73 87.60 8.94
15240 20.2390 76.31 87.59 8.83
15241 20.2400 76.67 87.58 8.77
15242 20.2410 88.57 87.57 9.45
15243 20.2420 78.33 87.56 8.94
15244 20.2430 68.56 87.55 8.45
15245 20.2440 71.36 87.54 8.58
15246 20.2450 86.65 87.53 9.45
15247 20.2460 71.92 87.52 8.59
15248 20.2470 83.19 87.51 9.28
15249 20.2480 72.99 87.50 8.69
15250 20.2490 60.95 87.49 7.86
15251 20.2500 86.06 87.48 9.30
15252 20.2510 90.93 87.47 9.60
15253 20.2520 72.79 87.46 8.65
15254 20.2530 62.87 87.45 8.06
15255 20.2540 63.73 87.45 8.11
15256 20.2550 75.99 87.44 8.79
15257 20.2560 62.64 87.43 7.94
15258 20.2570 67.60 87.42 8.29
15259 20.2580 83.74 87.41 9.22
15260 20.2590 74.63 87.40 8.71
15261 20.2600 79.43 87.39 8.95
15262 20.2610 76.78 87.38 8.83
15263 20.2620 69.41 87.38 8.46
15264 20.2630 75.58 87.37 8.88
15265 20.2640 71.26 87.36 8.55
15266 20.2650 74.85 87.35 8.72
15267 20.2660 72.67 87.34 8.57
15268 20.2670 79.54 87.33 9.01
15269 20.2680 72.55 87.33 8.64
15270 20.2690 77.32 87.32 8.89
15271 20.2700 76.92 87.31 8.84
15272 20.2710 71.93 87.30 8.59
15273 20.2720 77.52 87.29 8.96
15274 20.2730 89.55 87.28 9.65
15275 20.2740 87.90 87.27 9.49
15276 20.2750 61.45 87.27 7.92
15277 20.2760 78.89 87.26 8.93
15278 20.2770 82.38 87.25 9.19
15279 20.2780 87.16 87.24 9.46
15280 20.2790 63.94 87.23 8.07
15281 20.2800 73.67 87.23 8.63
15282 20.2810 83.11 87.22 9.16
15283 20.2820 84.61 87.21 9.32
15284 20.2830 62.96 87.20 8.07
15285 20.2840 91.67 87.20 9.68
15286 20.2850 69.17 87.19 8.38
15287 20.2860 73.45 87.18 8.65
15288 20.2870 69.75 87.17 8.44
15289 20.2880 70.83 87.17 8.55
15290 20.2890 86.14 87.16 9.35
15291 20.2900 73.03 87.15 8.57
15292 20.2910 74.96 87.15 8.69
15293 20.2920 69.80 87.14 8.46
15294 20.2930 79.92 87.13 9.11
15295 20.2940 75.77 87.12 8.82
15296 20.2950 51.33 87.12 7.27
15297 20.2960 88.35 87.11 9.51
15298 20.2970 68.61 87.10 8.44
15299 20.2980 84.45 87.10 9.33
15300 20.2990 66.74 86.96 8.25
15301 20.3000 74.75 86.96 8.68
15302 20.3010 90.07 86.95 9.57
15303 20.3020 67.44 86.95 8.30
15304 20.3030 71.87 86.82 8.63
15305 20.3040 69.26 86.68 8.43
15306 20.3050 74.50 86.68 8.68
15307 20.3060 78.89 86.68 8.91
15308 20.3070 72.04 86.67 8.57
15309 20.3080 73.63 86.67 8.69
15310 20.3090 53.95 86.66 7.39
15311 20.3100 68.90 86.66 8.33
15312 20.3110 91.48 86.66 9.59
15313 20.3120 81.29 86.65 9.13
15314 20.3130 76.66 86.65 8.92
15315 20.3140 76.66 86.64 8.84
15316 20.3150 90.79 86.64 9.59
15317 20.3160 77.44 86.64 8.85
15318 20.3170 81.50 86.63 9.12
15319 20.3180 77.29 86.63 8.90
15320 20.3190 86.78 86.62 9.41
15321 20.3200 71.65 86.62 8.53
15322 20.3210 87.19 86.62 9.44
15323 20.3220 68.64 86.61 8.43
15324 20.3230 74.15 86.61 8.78
15325 20.3240 83.02 86.60 9.19
15326 20.3250 74.55 86.60 8.71
15327 20.3260 57.75 86.60 7.66
15328 20.3270 72.92 86.59 8.60
15329 20.3280 73.86 86.59 8.69
15330 20.3290 72.69 86.58 8.57
15331 20.3300 73.96 86.58 8.62
15332 20.3310 79.22 86.57 8.93
15333 20.3320 64.81 86.57 8.11
15334 20.3330 76.24 86.57 8.85
15335 20.3340 71.72 86.56 8.56
15336 20.3350 74.89 86.56 8.72
15337 20.3360 89.56 86.55 9.53
15338 20.3370 70.18 86.55 8.50
15339 20.3380 79.56 86.55 9.01
15340 20.3390 71.16 86.54 8.48
15341 20.3400 69.70 86.54 8.35
15342 20.3410 71.18 86.53 8.46
15343 20.3420 75.27 86.53 8.76
15344 20.3430 74.12 86.53 8.76
15345 20.3440 64.60 86.52 8.15
15346 20.3450 76.93 86.52 8.88
15347 20.3460 78.05 86.51 8.95
15348 20.3470 65.38 86.51 8.21
15349 20.3480 78.07 86.51 8.96
15350 20.3490 77.66 86.50 8.87
15351 20.3500 90.04 86.50 9.50
15352 20.3510 86.06 86.49 9.29
15353 20.3520 75.96 86.49 8.82
15354 20.3530 64.62 86.49 8.18
15355 20.3540 84.61 86.48 9.28
15356 20.3550 84.24 86.48 9.25
15357 20.3560 81.67 86.47 9.05
15358 20.3570 92.15 86.47 9.67
15359 20.3580 66.77 86.46 8.26
15360 20.3590 79.64 86.46 9.02
15361 20.3600 76.43 86.46 8.78
15362 20.3610 80.29 86.45 9.01
15363 20.3620 76.02 86.45 8.83
15364 20.3630 60.63 86.44 7.91
15365 20.3640 74.23 86.44 8.70
15366 20.3650 71.94 86.44 8.51
15367 20.3660 70.63 86.43 8.45
15368 20.3670 59.74 86.43 7.80
15369 20.3680 76.76 86.42 8.89
15370 20.3690 83.93 86.42 9.25
15371 20.3700 57.46 86.42 7.66
15372 20.3710 83.34 86.41 9.22
15373 20.3720 74.23 86.41 8.77
15374 20.3730 63.12 86.40 8.11
15375 20.3740 71.04 86.40 8.52
15376 20.3750 88.49 86.39 9.48
15377 20.3760 68.78 86.39 8.34
15378 20.3770 58.43 86.39 7.73
15379 20.3780 74.83 86.38 8.77
15380 20.3790 58.10 86.38 7.66
15381 20.3800 90.50 86.38 9.52
15382 20.3810 69.32 86.37 8.34
15383 20.3820 60.10 86.37 7.86
15384 20.3830 62.96 86.36 8.05
15385 20.3840 80.07 86.36 9.03
15386 20.3850 63.17 86.35 8.02
15387 20.3860 79.35 86.35 8.94
15388 20.3870 98.04 86.35 10.03
15389 20.3880 74.87 86.34 8.78
15390 20.3890 64.88 86.34 8.09
15391 20.3900 74.57 86.33 8.63
15392 20.3910 75.82 86.33 8.77
15393 20.3920 71.01 86.33 8.54
15394 20.3930 70.73 86.32 8.57
15395 20.3940 88.66 86.32 9.58
15396 20.3950 70.80 86.31 8.53
15397 20.3960 92.70 86.31 9.71
15398 20.3970 76.89 86.31 8.92
15399 20.3980 82.43 86.30 9.19
15400 20.3990 76.19 86.30 8.77
15401 20.4000 73.92 86.29 8.63
15402 20.4010 78.24 86.29 8.89
15403 20.4020 72.77 86.28 8.62
15404 20.4030 77.21 86.28 8.90
15405 20.4040 76.28 86.28 8.80
15406 20.4050 73.30 86.27 8.60
15407 20.4060 83.35 86.27 9.14
15408 20.4070 87.29 86.26 9.39
15409 20.4080 79.09 86.26 9.00
15410 20.4090 77.70 86.25 8.85
15411 20.4100 72.60 86.25 8.54
15412 20.4110 79.85 86.25 9.01
15413 20.4120 74.90 86.24 8.79
15414 20.4130 70.99 86.24 8.58
15415 20.4140 78.01 86.23 8.90
15416 20.4150 71.22 86.23 8.48
15417 20.4160 75.09 86.23 8.70
15418 20.4170 86.58 86.22 9.40
15419 20.4180 65.14 86.22 8.17
15420 20.4190 68.14 86.21 8.37
15421 20.4200 96.08 86.21 9.88
15422 20.4210 74.18 86.20 8.72
15423 20.4220 80.26 86.20 9.07
15424 20.4230 85.46 86.20 9.38
15425 20.4240 89.03 86.19 9.53
15426 20.4250 82.44 86.19 9.15
15427 20.4260 72.15 86.18 8.54
15428 20.4270 75.75 86.18 8.78
15429 20.4280 75.05 86.18 8.79
15430 20.4290 77.42 86.17 8.84
15431 20.4300 80.63 86.17 8.99
15432 20.4310 83.00 86.16 9.12
15433 20.4320 64.86 86.16 8.15
15434 20.4330 74.13 86.15 8.76
15435 20.4340 79.75 86.15 9.05
15436 20.4350 95.57 86.15 9.84
15437 20.4360 71.75 86.14 8.54
15438 20.4370 85.16 86.14 9.32
15439 20.4380 71.87 86.13 8.54
15440 20.4390 60.58 86.13 7.86
15441 20.4400 73.84 86.12 8.60
15442 20.4410 78.67 86.12 8.91
15443 20.4420 72.17 86.12 8.62
15444 20.4430 73.48 86.11 8.72
15445 20.4440 79.59 86.11 9.09
15446 20.4450 76.16 86.10 8.84
15447 20.4460 81.84 86.10 9.13
15448 20.4470 75.35 86.10 8.81
15449 20.4480 66.76 86.09 8.26
15450 20.4490 72.57 86.09 8.59
15451 20.4500 56.10 86.08 7.51
15452 20.4510 61.25 86.08 7.88
15453 20.4520 73.11 86.18 8.67
15454 20.4530 70.25 86.17 8.53
15455 20.4540 72.76 86.17 8.58
15456 20.4550 83.96 86.38 9.22
15457 20.4560 87.43 86.38 9.42
15458 20.4570 61.83 86.38 7.93
15459 20.4580 65.18 86.38 8.17
15460 20.4590 75.37 86.37 8.76
15461 20.4600 73.58 86.37 8.61
15462 20.4610 67.30 86.37 8.28
15463 20.4620 71.06 86.37 8.56
15464 20.4630 76.49 86.37 8.92
15465 20.4640 79.92 86.37 9.05
15466 20.4650 72.00 86.36 8.58
15467 20.4660 63.18 86.36 8.04
15468 20.4670 72.70 86.36 8.64
15469 20.4680 74.52 86.36 8.78
15470 20.4690 78.24 86.36 8.95
15471 20.4700 65.61 86.36 8.19
15472 20.4710 75.06 86.35 8.74
15473 20.4720 62.58 86.35 8.05
15474 20.4730 67.69 86.35 8.40
15475 20.4740 81.75 86.35 9.16
15476 20.4750 70.66 86.35 8.48
15477 20.4760 77.82 86.35 8.91
15478 20.4770 72.66 86.35 8.59
15479 20.4780 75.11 86.35 8.76
15480 20.4790 77.79 86.34 8.87
15481 20.4800 85.27 86.34 9.23
15482 20.4810 70.49 86.34 8.44
15483 20.4820 79.62 86.34 9.03
15484 20.4830 81.37 86.34 9.20
15485 20.4840 70.32 86.34 8.53
15486 20.4850 78.94 86.34 8.97
15487 20.4860 87.38 86.34 9.43
15488 20.4870 79.88 86.34 9.05
15489 20.4880 75.79 86.33 8.80
15490 20.4890 76.25 86.33 8.79
15491 20.4900 80.01 86.33 9.00
15492 20.4910 81.80 86.33 9.12
15493 20.4920 66.50 86.33 8.32
15494 20.4930 76.03 86.33 8.90
15495 20.4940 76.58 86.33 8.88
15496 20.4950 75.31 86.33 8.79
15497 20.4960 72.61 86.33 8.63
15498 20.4970 75.23 86.33 8.77
15499 20.4980 63.30 86.33 8.07
15500 20.4990 74.52 86.33 8.72
15501 20.5000 75.02 86.33 8.68
15502 20.5010 61.40 86.33 7.91
15503 20.5020 78.56 86.33 8.97
15504 20.5030 68.74 86.33 8.43
15505 20.5040 77.45 86.33 8.88
15506 20.5050 86.67 86.33 9.39
15507 20.5060 74.71 86.33 8.70
15508 20.5070 70.55 86.33 8.47
15509 20.5080 81.70 86.33 9.19
15510 20.5090 68.15 86.33 8.32
15511 20.5100 77.10 86.33 8.83
15512 20.5110 69.77 86.33 8.39
15513 20.5120 58.65 86.33 7.76
15514 20.5130 63.13 86.33 8.07
15515 20.5140 67.81 86.33 8.32
15516 20.5150 69.46 86.33 8.40
15517 20.5160 66.10 86.33 8.22
15518 20.5170 71.58 86.33 8.59
15519 20.5180 76.79 86.33 8.91
15520 20.5190 72.81 86.33 8.66
15521 20.5200 68.90 86.33 8.38
15522 20.5210 69.60 86.33 8.42
15523 20.5220 67.87 86.33 8.34
15524 20.5230 61.62 86.34 8.01
15525 20.5240 79.51 86.34 9.03
15526 20.5250 72.96 86.34 8.61
15527 20.5260 70.59 86.34 8.46
15528 20.5270 73.67 86.34 8.66
15529 20.5280 76.09 86.34 8.79
15530 20.5290 66.20 86.34 8.20
15531 20.5300 74.97 86.35 8.66
15532 20.5310 72.84 86.35 8.58
15533 20.5320 80.56 86.35 9.09
15534 20.5330 71.20 86.35 8.59
15535 20.5340 74.57 86.35 8.75
15536 20.5350 63.96 86.36 8.09
15537 20.5360 76.75 86.36 8.82
15538 20.5370 68.67 86.36 8.35
15539 20.5380 71.13 86.36 8.51
15540 20.5390 77.16 86.37 8.84
15541 20.5400 64.77 86.37 8.09
15542 20.5410 69.06 86.37 8.40
15543 20.5420 77.14 86.37 8.98
15544 20.5430 81.40 86.38 9.24
15545 20.5440 78.81 86.38 9.05
15546 20.5450 63.12 86.38 8.02
15547 20.5460 70.90 86.39 8.48
15548 20.5470 83.19 86.39 9.20
15549 20.5480 91.00 86.39 9.66
15550 20.5490 70.67 86.40 8.49
15551 20.5500 72.70 86.40 8.52
15552 20.5510 75.57 86.41 8.74
15553 20.5520 70.55 86.41 8.49
15554 20.5530 75.78 86.42 8.83
15555 20.5540 73.26 86.42 8.63
15556 20.5550 59.43 86.42 7.73
15557 20.5560 64.13 86.43 8.06
15558 20.5570 68.63 86.43 8.39
15559 20.5580 59.76 86.44 7.85
15560 20.5590 75.98 86.45 8.83
15561 20.5600 69.50 86.45 8.40
15562 20.5610 65.88 86.46 8.18
15563 20.5620 59.63 86.46 7.83
15564 20.5630 77.19 86.47 8.93
15565 20.5640 83.24 86.48 9.23
15566 20.5650 67.91 86.48 8.34
15567 20.5660 74.82 86.49 8.77
15568 20.5670 68.11 86.50 8.40
15569 20.5680 71.80 86.50 8.63
15570 20.5690 72.94 86.51 8.68
15571 20.5700 83.70 86.52 9.21
15572 20.5710 74.95 86.53 8.74
15573 20.5720 71.46 86.53 8.60
15574 20.5730 61.42 86.54 7.99
15575 20.5740 74.88 86.55 8.77
15576 20.5750 61.21 86.56 7.91
15577 20.5760 82.24 86.57 9.13
15578 20.5770 77.86 86.58 8.90
15579 20.5780 73.17 86.59 8.63
15580 20.5790 64.77 86.60 8.11
15581 20.5800 70.65 86.61 8.41
15582 20.5810 79.91 86.62 8.97
15583 20.5820 69.98 86.63 8.50
15584 20.5830 77.15 86.64 8.98
15585 20.5840 68.66 86.65 8.42
15586 20.5850 62.51 86.66 8.01
15587 20.5860 69.50 86.68 8.42
15588 20.5870 63.99 86.69 8.06
15589 20.5880 74.97 86.70 8.77
15590 20.5890 63.39 86.72 8.05
15591 20.5900 85.20 86.73 9.29
15592 20.5910 84.77 86.74 9.32
15593 20.5920 82.11 86.76 9.23
15594 20.5930 81.56 86.77 9.26
15595 20.5940 69.01 86.79 8.44
15596 20.5950 71.22 86.80 8.55
15597 20.5960 62.75 86.82 8.01
15598 20.5970 64.75 86.84 8.14
15599 20.5980 76.22 86.86 8.84
15600 20.5990 71.50 86.87 8.54
15601 20.6000 77.15 86.89 8.81
15602 20.6010 66.63 86.91 8.22
15603 20.6020 69.24 86.93 8.41
15604 20.6030 68.89 86.95 8.44
15605 20.6040 64.49 86.97 8.13
15606 20.6050 66.40 87.00 8.22
15607 20.6060 81.88 87.02 9.11
15608 20.6070 77.60 87.04 8.92
15609 20.6080 89.59 87.07 9.59
15610 20.6090 77.68 87.09 8.89
15611 20.6100 76.67 87.12 8.84
15612 20.6110 75.57 87.14 8.75
15613 20.6120 73.30 87.17 8.67
15614 20.6130 77.30 87.20 8.96
15615 20.6140 81.08 87.23 9.15
15616 20.6150 63.77 87.26 8.09
15617 20.6160 67.10 87.29 8.31
15618 20.6170 68.82 87.32 8.46
15619 20.6180 61.01 87.36 7.93
15620 20.6190 60.51 87.39 7.89
15621 20.6200 67.78 87.43 8.33
15622 20.6210 64.96 87.47 8.12
15623 20.6220 73.30 87.51 8.70
15624 20.6230 68.02 87.55 8.43
15625 20.6240 70.47 87.59 8.52
15626 20.6250 84.08 87.64 9.25
15627 20.6260 76.96 87.69 8.85
15628 20.6270 59.81 87.74 7.81
15629 20.6280 63.64 87.79 8.07
15630 20.6290 68.96 87.85 8.34
15631 20.6300 69.07 87.90 8.35
15632 20.6310 68.09 87.97 8.31
15633 20.6320 64.44 88.03 8.16
15634 20.6330 60.19 88.10 7.94
15635 20.6340 74.90 88.18 8.76
15636 20.6350 76.65 88.26 8.84
15637 20.6360 71.79 88.34 8.55
15638 20.6370 79.47 88.44 9.03
15639 20.6380 60.10 88.54 7.84
15640 20.6390 67.29 88.65 8.31
15641 20.6400 74.82 88.78 8.72
15642 20.6410 77.60 88.92 8.90
15643 20.6420 76.20 89.08 8.91
15644 20.6430 66.60 89.27 8.35
15645 20.6440 63.23 89.50 8.12
15646 20.6450 76.99 89.77 8.86
15647 20.6460 78.63 90.11 8.96
15648 20.6470 73.07 90.54 8.67
15649 20.6480 69.60 91.07 8.44
15650 20.6490 76.56 91.74 8.83
15651 20.6500 75.27 92.56 8.73
15652 20.6510 79.63 93.52 8.96
15653 20.6520 69.34 94.57 8.43
15654 20.6530 96.55 95.56 9.96
15655 20.6540 76.12 96.25 8.84
15656 20.6550 82.86 96.44 9.16
15657 20.6560 81.36 96.06 9.09
15658 20.6570 73.67 95.32 8.70
15659 20.6580 67.94 94.46 8.37
15660 20.6590 64.26 93.67 8.09
15661 20.6600 71.11 93.04 8.48
15662 20.6610 72.02 92.56 8.56
15663 20.6620 84.94 92.23 9.32
15664 20.6630 68.78 92.01 8.43
15665 20.6640 53.92 91.89 7.46
15666 20.6650 73.61 91.85 8.69
15667 20.6660 67.17 91.85 8.33
15668 20.6670 72.28 91.91 8.65
15669 20.6680 70.87 91.99 8.56
15670 20.6690 66.32 92.11 8.24
15671 20.6700 74.30 92.25 8.67
15672 20.6710 71.00 92.41 8.49
15673 20.6720 77.43 92.60 8.91
15674 20.6730 81.12 92.80 9.15
15675 20.6740 85.94 93.02 9.37
15676 20.6750 72.70 93.26 8.59
15677 20.6760 84.20 93.52 9.22
15678 20.6770 61.47 93.80 7.91
15679 20.6780 79.18 94.10 8.95
15680 20.6790 78.55 94.42 8.90
15681 20.6800 73.95 94.77 8.63
15682 20.6810 88.14 95.13 9.45
15683 20.6820 95.55 95.53 9.91
15684 20.6830 78.04 95.95 9.01
15685 20.6840 77.02 96.40 8.91
15686 20.6850 79.30 96.88 9.00
15687 20.6860 78.80 97.40 8.95
15688 20.6870 65.32 97.95 8.16
15689 20.6880 91.48 98.54 9.70
15690 20.6890 73.82 99.18 8.68
15691 20.6900 74.12 99.87 8.70
15692 20.6910 97.27 100.61 9.95
15693 20.6920 85.86 101.41 9.43
15694 20.6930 80.03 102.28 9.14
15695 20.6940 80.25 103.22 9.09
15696 20.6950 88.18 104.24 9.46
15697 20.6960 77.75 105.34 8.90
15698 20.6970 96.41 106.55 9.94
15699 20.6980 88.96 107.88 9.56
15700 20.6990 88.27 109.32 9.47
15701 20.7000 96.56 110.92 9.89
15702 20.7010 92.01 112.68 9.63
15703 20.7020 94.70 114.61 9.83
15704 20.7030 100.23 116.77 10.13
15705 20.7040 106.00 119.17 10.39
15706 20.7050 85.37 121.85 9.30
15707 20.7060 76.40 124.85 8.79
15708 20.7070 104.88 128.24 10.38
15709 20.7080 117.38 132.08 10.99
15710 20.7090 117.18 136.44 10.92
15711 20.7100 117.87 141.44 10.88
15712 20.7110 134.19 147.20 11.60
15713 20.7120 146.74 153.88 12.26
15714 20.7130 143.25 161.67 12.13
15715 20.7140 154.68 170.88 12.61
15716 20.7150 178.64 181.86 13.49
15717 20.7160 162.44 195.12 12.90
15718 20.7170 188.99 211.36 13.93
15719 20.7180 231.87 231.69 15.49
15720 20.7190 249.99 257.33 15.92
15721 20.7200 283.32 290.21 16.92
15722 20.7210 330.40 332.93 18.27
15723 20.7220 366.31 388.19 19.44
15724 20.7230 475.11 459.52 22.15
15725 20.7240 547.37 550.49 23.66
15726 20.7250 636.96 662.02 25.44
15727 20.7260 704.36 791.34 26.62
15728 20.7270 910.74 928.13 30.33
15729 20.7280 1123.79 1055.52 33.78
15730 20.7290 1159.60 1158.66 34.19
15731 20.7300 1221.78 1227.64 35.10
15732 20.7310 1324.92 1247.00 36.66
15733 20.7320 1196.99 1198.99 35.11
15734 20.7330 975.66 1086.01 31.81
15735 20.7340 794.83 936.38 28.50
15736 20.7350 732.31 782.76 27.27
15737 20.7360 565.38 646.57 23.91
15738 20.7370 543.22 534.24 23.47
15739 20.7380 480.39 445.02 22.12
15740 20.7390 383.00 376.17 19.72
15741 20.7400 309.00 323.35 17.74
15742 20.7410 266.34 282.85 16.48
15743 20.7420 238.49 251.64 15.78
15744 20.7430 230.65 227.34 15.50
15745 20.7440 198.34 208.04 14.25
15746 20.7450 175.26 192.49 13.38
15747 20.7460 152.46 179.75 12.43
15748 20.7470 169.57 169.14 13.16
15749 20.7480 142.77 160.22 12.10
15750 20.7490 137.17 152.61 11.77
15751 20.7500 125.22 146.09 11.21
15752 20.7510 110.60 140.46 10.54
15753 20.7520 104.14 135.56 10.34
15754 20.7530 99.03 131.26 10.05
15755 20.7540 99.68 127.49 10.08
15756 20.7550 107.15 124.16 10.43
15757 20.7560 94.20 121.18 9.82
15758 20.7570 102.55 118.54 10.23
15759 20.7580 102.43 116.17 10.24
15760 20.7590 82.34 114.03 9.16
15761 20.7600 79.94 112.11 8.98
15762 20.7610 101.60 110.36 10.09
15763 20.7620 98.03 108.78 10.02
15764 20.7630 81.63 107.33 9.22
15765 20.7640 88.51 106.01 9.58
15766 20.7650 81.62 104.81 9.17
15767 20.7660 70.95 103.69 8.57
15768 20.7670 99.87 102.67 10.15
15769 20.7680 88.78 101.73 9.58
15770 20.7690 78.85 100.86 8.96
15771 20.7700 80.94 100.05 9.03
15772 20.7710 82.95 99.30 9.15
15773 20.7720 70.78 98.60 8.51
15774 20.7730 98.18 97.95 10.08
15775 20.7740 84.71 97.35 9.31
15776 20.7750 81.20 96.78 9.07
15777 20.7760 76.41 96.25 8.80
15778 20.7770 78.71 95.75 8.93
15779 20.7780 75.88 95.29 8.80
15780 20.7790 61.39 94.85 7.88
15781 20.7800 68.64 94.44 8.32
15782 20.7810 69.14 94.05 8.37
15783 20.7820 68.50 93.68 8.43
15784 20.7830 64.30 93.33 8.17
15785 20.7840 78.84 93.01 9.01
15786 20.7850 73.83 92.70 8.65
15787 20.7860 75.81 92.40 8.77
15788 20.7870 87.69 92.12 9.46
15789 20.7880 76.07 91.86 8.85
15790 20.7890 68.20 91.61 8.36
15791 20.7900 76.30 91.37 8.83
15792 20.7910 85.83 91.14 9.35
15793 20.7920 71.24 90.92 8.61
15794 20.7930 73.93 90.72 8.78
15795 20.7940 67.08 90.52 8.31
15796 20.7950 82.76 90.33 9.16
15797 20.7960 77.56 90.15 8.89
15798 20.7970 69.83 89.98 8.46
15799 20.7980 79.68 89.81 9.04
15800 20.7990 70.46 89.65 8.45
15801 20.8000 69.46 89.50 8.36
15802 20.8010 64.63 89.35 8.06
15803 20.8020 73.71 89.21 8.69
15804 20.8030 64.23 89.08 8.10
15805 20.8040 69.30 88.95 8.40
15806 20.8050 84.62 88.83 9.23
15807 20.8060 89.49 88.71 9.56
15808 20.8070 73.57 88.59 8.67
15809 20.8080 73.89 88.48 8.71
15810 20.8090 65.69 88.38 8.15
15811 20.8100 65.23 88.27 8.12
15812 20.8110 62.88 88.17 7.97
15813 20.8120 65.75 88.08 8.21
15814 20.8130 76.31 87.98 8.88
15815 20.8140 70.16 87.89 8.51
15816 20.8150 82.50 87.81 9.20
15817 20.8160 73.02 87.72 8.64
15818 20.8170 62.15 87.64 7.98
15819 20.8180 71.44 87.56 8.60
15820 20.8190 65.52 87.49 8.16
15821 20.8200 85.25 87.42 9.22
15822 20.8210 78.55 87.34 8.91
15823 20.8220 62.92 87.27 8.05
15824 20.8230 85.19 87.21 9.36
15825 20.8240 76.73 87.14 8.85
15826 20.8250 65.33 87.08 8.13
15827 20.8260 72.72 87.02 8.57
15828 20.8270 71.91 86.96 8.52
15829 20.8280 81.66 86.90 9.11
15830 20.8290 85.47 86.84 9.28
15831 20.8300 67.49 86.79 8.21
15832 20.8310 66.70 86.74 8.23
15833 20.8320 74.12 86.68 8.72
15834 20.8330 66.10 86.63 8.30
15835 20.8340 66.18 86.58 8.22
15836 20.8350 67.76 86.54 8.28
15837 20.8360 79.19 86.49 8.96
15838 20.8370 62.70 86.44 8.00
15839 20.8380 76.83 86.40 8.88
15840 20.8390 69.94 86.36 8.48
15841 20.8400 88.58 86.31 9.46
15842 20.8410 70.13 86.27 8.45
15843 20.8420 63.33 86.23 8.09
15844 20.8430 70.23 86.19 8.53
15845 20.8440 71.40 86.15 8.55
15846 20.8450 53.13 86.12 7.35
15847 20.8460 66.55 86.08 8.24
15848 20.8470 68.37 86.04 8.35
15849 20.8480 82.95 86.01 9.17
15850 20.8490 60.82 85.97 7.85
15851 20.8500 52.64 85.94 7.26
15852 20.8510 55.26 85.91 7.46
15853 20.8520 58.98 85.87 7.75
15854 20.8530 60.86 85.84 7.93
15855 20.8540 77.16 85.81 8.86
15856 20.8550 57.08 85.78 7.62
15857 20.8560 68.60 85.75 8.37
15858 20.8570 73.68 85.72 8.69
15859 20.8580 73.52 85.69 8.70
15860 20.8590 81.54 85.66 9.12
15861 20.8600 68.78 85.64 8.31
15862 20.8610 62.38 85.61 7.95
15863 20.8620 75.59 85.58 8.80
15864 20.8630 68.28 85.56 8.44
15865 20.8640 62.91 85.53 8.04
15866 20.8650 62.40 85.51 8.00
15867 20.8660 80.38 85.48 9.09
15868 20.8670 63.49 85.46 8.09
15869 20.8680 77.59 85.43 8.91
15870 20.8690 66.69 85.41 8.25
15871 20.8700 62.66 85.39 7.97
15872 20.8710 66.73 85.36 8.21
15873 20.8720 62.40 85.34 7.99
15874 20.8730 62.95 85.32 8.06
15875 20.8740 69.94 85.30 8.45
15876 20.8750 76.92 85.28 8.81
15877 20.8760 72.95 85.26 8.55
15878 20.8770 68.15 85.24 8.30
15879 20.8780 63.80 85.22 8.05
15880 20.8790 68.25 85.20 8.30
15881 20.8800 64.07 85.18 8.03
15882 20.8810 68.97 85.16 8.36
15883 20.8820 71.52 85.14 8.58
15884 20.8830 51.69 85.12 7.31
15885 20.8840 74.79 85.10 8.75
15886 20.8850 72.85 85.08 8.57
15887 20.8860 68.88 85.06 8.32
15888 20.8870 64.76 85.05 8.14
15889 20.8880 80.01 85.03 9.04
15890 20.8890 68.04 85.01 8.36
15891 20.8900 87.06 84.99 9.43
15892 20.8910 71.42 84.98 8.54
15893 20.8920 74.08 84.96 8.75
15894 20.8930 67.99 84.94 8.40
15895 20.8940 72.72 84.93 8.65
15896 20.8950 77.62 84.91 8.86
15897 20.8960 67.05 84.90 8.22
15898 20.8970 57.23 84.88 7.66
15899 20.8980 56.76 84.86 7.60
15900 20.8990 76.90 84.85 8.84
15901 20.9000 65.53 84.83 8.11
15902 20.9010 69.90 84.82 8.39
15903 20.9020 62.66 84.80 7.97
15904 20.9030 61.25 84.79 7.94
15905 20.9040 78.80 84.78 8.97
15906 20.9050 65.37 84.76 8.17
15907 20.9060 58.02 84.75 7.70
15908 20.9070 76.91 84.73 8.87
15909 20.9080 69.32 84.72 8.41
15910 20.9090 54.42 84.71 7.43
15911 20.9100 66.94 84.69 8.20
15912 20.9110 69.09 84.68 8.37
15913 20.9120 80.67 84.67 9.10
15914 20.9130 53.79 84.65 7.50
15915 20.9140 71.00 84.64 8.55
15916 20.9150 77.12 84.63 8.89
15917 20.9160 69.35 84.61 8.41
15918 20.9170 75.01 84.60 8.79
15919 20.9180 73.93 84.59 8.70
15920 20.9190 69.16 84.58 8.38
15921 20.9200 70.14 84.56 8.42
15922 20.9210 65.59 84.55 8.18
15923 20.9220 67.78 84.54 8.36
15924 20.9230 60.45 84.53 7.90
15925 20.9240 74.39 84.52 8.70
15926 20.9250 63.25 84.50 8.02
15927 20.9260 77.45 84.49 8.85
15928 20.9270 61.61 84.48 7.89
15929 20.9280 72.85 84.47 8.63
15930 20.9290 64.73 84.46 8.09
15931 20.9300 71.63 84.45 8.52
15932 20.9310 62.38 84.44 7.97
15933 20.9320 69.80 84.42 8.47
15934 20.9330 72.44 84.41 8.63
15935 20.9340 68.09 84.40 8.35
15936 20.9350 78.24 84.39 8.90
15937 20.9360 59.48 84.38 7.77
15938 20.9370 58.01 84.37 7.73
15939 20.9380 73.42 84.36 8.70
15940 20.9390 62.64 84.35 8.03
15941 20.9400 71.27 84.34 8.52
15942 20.9410 47.05 84.33 6.93
15943 20.9420 70.47 84.32 8.54
15944 20.9430 76.53 84.31 8.89
15945 20.9440 71.32 84.30 8.55
15946 20.9450 69.88 84.29 8.45
15947 20.9460 66.04 84.28 8.19
15948 20.9470 52.26 84.27 7.32
15949 20.9480 61.32 84.26 7.91
15950 20.9490 62.74 84.26 7.93
15951 20.9500 82.04 84.25 9.08
15952 20.9510 61.11 84.24 7.85
15953 20.9520 62.94 84.23 8.03
15954 20.9530 69.79 84.24 8.48
15955 20.9540 75.43 84.23 8.80
15956 20.9550 76.62 84.22 8.85
15957 20.9560 63.29 84.21 8.01
15958 20.9570 67.36 84.20 8.32
15959 20.9580 77.58 84.20 8.90
15960 20.9590 74.76 84.19 8.69
15961 20.9600 56.18 84.18 7.53
15962 20.9610 64.11 84.17 8.06
15963 20.9620 72.13 84.16 8.66
15964 20.9630 72.73 84.15 8.74
15965 20.9640 68.34 84.14 8.45
15966 20.9650 49.39 84.13 7.12
15967 20.9660 72.73 84.13 8.64
15968 20.9670 66.52 84.12 8.28
15969 20.9680 74.75 84.11 8.74
15970 20.9690 69.02 84.10 8.41
15971 20.9700 77.86 84.09 8.87
15972 20.9710 60.37 84.08 7.82
15973 20.9720 72.78 84.07 8.65
15974 20.9730 67.21 84.07 8.34
15975 20.9740 59.08 84.06 7.78
15976 20.9750 71.19 84.05 8.47
15977 20.9760 65.29 84.04 8.16
15978 20.9770 72.18 84.03 8.59
15979 20.9780 77.91 84.03 8.92
15980 20.9790 70.78 84.02 8.52
15981 20.9800 61.94 84.01 7.91
15982 20.9810 74.55 84.00 8.71
15983 20.9820 63.80 83.99 8.12
15984 20.9830 85.73 83.99 9.40
15985 20.9840 64.75 83.98 8.11
15986 20.9850 57.05 83.97 7.63
15987 20.9860 65.35 83.96 8.17
15988 20.9870 61.54 83.95 7.97
15989 20.9880 59.67 83.95 7.88
15990 20.9890 62.48 83.94 8.02
15991 20.9900 61.61 83.93 7.92
15992 20.9910 59.07 83.92 7.78
15993 20.9920 67.61 83.92 8.36
15994 20.9930 78.95 83.91 9.04
15995 20.9940 66.73 83.90 8.25
15996 20.9950 60.04 83.89 7.84
15997 20.9960 58.87 83.89 7.76
15998 20.9970 55.13 83.88 7.51
15999 20.9980 72.30 83.87 8.59
16000 20.9990 60.05 83.87 7.77
16001 21.0000 75.99 83.86 8.74
16002 21.0010 65.65 83.85 8.12
16003 21.0020 54.91 83.84 7.49
16004 21.0030 63.60 83.84 8.10
16005 21.0040 69.76 83.83 8.49
16006 21.0050 68.91 83.82 8.41
16007 21.0060 65.69 83.71 8.19
16008 21.0070 60.44 83.71 7.88
16009 21.0080 76.80 83.70 8.85
16010 21.0090 72.86 83.48 8.59
16011 21.0100 81.06 83.48 9.04
16012 21.0110 74.28 83.47 8.67
16013 21.0120 60.85 83.47 7.96
16014 21.0130 68.30 83.46 8.46
16015 21.0140 74.94 83.46 8.82
16016 21.0150 83.68 83.45 9.26
16017 21.0160 68.44 83.45 8.39
16018 21.0170 73.50 83.45 8.69
16019 21.0180 63.41 83.44 8.07
16020 21.0190 65.12 83.44 8.12
16021 21.0200 81.30 83.43 9.07
16022 21.0210 56.18 83.43 7.55
16023 21.0220 68.58 83.43 8.39
16024 21.0230 72.62 83.42 8.66
16025 21.0240 70.58 83.42 8.49
16026 21.0250 72.93 83.42 8.59
16027 21.0260 71.40 83.42 8.49
16028 21.0270 65.89 83.42 8.20
16029 21.0280 68.65 83.42 8.35
16030 21.0290 82.59 83.42 9.17
16031 21.0300 60.26 83.42 7.84
16032 21.0310 72.91 83.42 8.62
16033 21.0320 59.03 83.43 7.80
16034 21.0330 64.64 83.44 8.15
16035 21.0340 64.94 83.44 8.18
16036 21.0350 69.58 83.44 8.43
16037 21.0360 70.12 83.44 8.44
16038 21.0370 67.05 83.42 8.31
16039 21.0380 66.00 83.41 8.27
16040 21.0390 61.57 83.39 7.94
16041 21.0400 75.11 83.38 8.73
16042 21.0410 68.06 83.36 8.31
16043 21.0420 56.79 83.35 7.64
16044 21.0430 59.71 83.34 7.86
16045 21.0440 81.82 83.33 9.17
16046 21.0450 74.26 83.33 8.68
16047 21.0460 67.73 83.32 8.26
16048 21.0470 69.82 83.31 8.44
16049 21.0480 53.37 83.31 7.38
16050 21.0490 61.51 83.30 7.90
16051 21.0500 58.59 83.30 7.67
16052 21.0510 61.25 83.29 7.84
16053 21.0520 39.69 83.29 6.39
16054 21.0530 66.02 83.28 8.28
16055 21.0540 56.88 83.28 7.65
16056 21.0550 69.93 83.27 8.45
16057 21.0560 67.87 83.27 8.30
16058 21.0570 61.96 83.26 7.94
16059 21.0580 61.66 83.26 7.93
16060 21.0590 67.39 83.25 8.25
16061 21.0600 74.62 83.25 8.66
16062 21.0610 72.26 83.24 8.59
16063 21.0620 76.46 83.24 8.90
16064 21.0630 67.31 83.24 8.38
16065 21.0640 63.00 83.23 8.08
16066 21.0650 82.41 83.23 9.19
16067 21.0660 78.25 83.22 8.94
16068 21.0670 63.68 83.22 8.05
16069 21.0680 75.94 83.21 8.81
16070 21.0690 61.62 83.21 7.92
16071 21.0700 60.24 83.21 7.81
16072 21.0710 56.89 83.20 7.59
16073 21.0720 66.96 83.20 8.29
16074 21.0730 73.61 83.19 8.69
16075 21.0740 62.23 83.19 7.97
16076 21.0750 65.64 83.19 8.13
16077 21.0760 65.98 83.18 8.15
16078 21.0770 70.70 83.18 8.47
16079 21.0780 59.42 83.17 7.82
16080 21.0790 69.00 83.17 8.37
16081 21.0800 59.93 83.17 7.79
16082 21.0810 61.67 83.16 7.89
16083 21.0820 67.52 83.16 8.31
16084 21.0830 62.93 83.15 8.05
16085 21.0840 79.86 83.15 9.03
16086 21.0850 66.40 83.15 8.23
16087 21.0860 76.41 83.14 8.83
16088 21.0870 59.84 83.14 7.87
16089 21.0880 54.27 83.14 7.49
16090 21.0890 74.40 83.13 8.72
16091 21.0900 67.46 83.13 8.27
16092 21.0910 55.71 83.12 7.52
16093 21.0920 64.09 83.12 8.11
16094 21.0930 68.12 83.12 8.39
16095 21.0940 60.17 83.11 7.84
16096 21.0950 57.72 83.11 7.69
16097 21.0960 69.47 83.11 8.35
16098 21.0970 64.80 83.10 8.12
16099 21.0980 57.40 83.10 7.64
16100 21.0990 60.87 83.10 7.84
16101 21.1000 65.81 83.10 8.14
16102 21.1010 73.07 83.09 8.57
16103 21.1020 74.28 83.09 8.74
16104 21.1030 44.72 83.09 6.83
16105 21.1040 64.62 83.08 8.15
16106 21.1050 65.66 83.08 8.19
16107 21.1060 65.30 83.08 8.12
16108 21.1070 70.01 83.08 8.41
16109 21.1080 65.19 83.07 8.14
16110 21.1090 67.18 83.07 8.24
16111 21.1100 66.69 83.07 8.22
16112 21.1110 74.20 83.07 8.69
16113 21.1120 74.01 83.07 8.78
16114 21.1130 57.68 83.06 7.75
16115 21.1140 66.36 83.06 8.28
16116 21.1150 75.81 83.06 8.81
16117 21.1160 54.70 83.06 7.47
16118 21.1170 50.91 83.06 7.21
16119 21.1180 68.00 83.06 8.35
16120 21.1190 75.97 83.06 8.80
16121 21.1200 71.62 83.07 8.50
16122 21.1210 55.45 83.07 7.48
16123 21.1220 50.99 83.08 7.24
16124 21.1230 69.94 83.08 8.47
16125 21.1240 70.06 83.09 8.45
16126 21.1250 60.38 83.11 7.80
16127 21.1260 62.34 83.13 7.95
16128 21.1270 75.98 83.15 8.81
16129 21.1280 59.73 83.18 7.84
16130 21.1290 80.29 83.20 9.04
16131 21.1300 67.88 83.22 8.28
16132 21.1310 59.40 83.22 7.74
16133 21.1320 73.37 83.21 8.66
16134 21.1330 63.85 83.18 8.13
16135 21.1340 87.23 83.15 9.45
16136 21.1350 63.23 83.13 8.04
16137 21.1360 68.12 83.11 8.34
16138 21.1370 69.78 83.09 8.49
16139 21.1380 63.84 83.08 8.14
16140 21.1390 71.04 83.07 8.52
16141 21.1400 72.30 83.06 8.58
16142 21.1410 79.36 83.05 8.99
16143 21.1420 68.11 83.05 8.37
16144 21.1430 71.74 83.05 8.59
16145 21.1440 75.17 83.04 8.79
16146 21.1450 76.50 83.04 8.82
16147 21.1460 67.47 83.04 8.27
16148 21.1470 73.30 83.04 8.63
16149 21.1480 68.21 83.05 8.32
16150 21.1490 59.89 83.05 7.76
16151 21.1500 68.67 83.05 8.28
16152 21.1510 69.48 83.05 8.38
16153 21.1520 80.68 83.05 9.12
16154 21.1530 58.37 83.06 7.79
16155 21.1540 66.81 83.06 8.27
16156 21.1550 66.78 83.06 8.24
16157 21.1560 67.69 83.07 8.29
16158 21.1570 63.60 83.07 8.05
16159 21.1580 71.93 83.08 8.58
16160 21.1590 61.53 83.09 7.91
16161 21.1600 66.78 83.09 8.27
16162 21.1610 70.87 83.10 8.50
16163 21.1620 64.16 83.11 8.16
16164 21.1630 60.51 83.11 7.95
16165 21.1640 70.93 83.12 8.54
16166 21.1650 63.75 83.13 8.06
16167 21.1660 61.62 83.14 7.89
16168 21.1670 60.39 83.15 7.87
16169 21.1680 61.77 83.16 7.96
16170 21.1690 70.39 83.18 8.45
16171 21.1700 68.89 83.19 8.34
16172 21.1710 70.56 83.20 8.40
16173 21.1720 83.30 83.22 9.23
16174 21.1730 65.51 83.23 8.19
16175 21.1740 72.49 83.25 8.59
16176 21.1750 61.87 83.27 7.93
16177 21.1760 68.84 83.29 8.37
16178 21.1770 60.86 83.31 7.90
16179 21.1780 66.34 83.33 8.25
16180 21.1790 68.92 83.36 8.37
16181 21.1800 76.10 83.38 8.77
16182 21.1810 82.26 83.41 9.09
16183 21.1820 63.36 83.44 8.08
16184 21.1830 71.39 83.47 8.58
16185 21.1840 68.78 83.50 8.41
16186 21.1850 79.73 83.54 9.03
16187 21.1860 60.51 83.58 7.89
16188 21.1870 75.44 83.62 8.85
16189 21.1880 52.53 83.66 7.39
16190 21.1890 71.84 83.71 8.55
16191 21.1900 61.77 83.76 7.95
16192 21.1910 61.79 83.82 7.91
16193 21.1920 56.58 83.88 7.63
16194 21.1930 69.66 83.94 8.50
16195 21.1940 87.40 84.01 9.45
16196 21.1950 71.79 84.08 8.54
16197 21.1960 77.62 84.17 8.86
16198 21.1970 68.56 84.25 8.35
16199 21.1980 66.73 84.35 8.22
16200 21.1990 71.54 84.46 8.51
16201 21.2000 55.48 84.57 7.49
16202 21.2010 75.18 84.70 8.74
16203 21.2020 76.18 84.84 8.85
16204 21.2030 69.41 84.99 8.49
16205 21.2040 79.79 85.16 9.04
16206 21.2050 63.63 85.34 8.05
16207 21.2060 76.99 85.55 8.86
16208 21.2070 54.32 85.78 7.48
16209 21.2080 71.03 86.04 8.51
16210 21.2090 63.71 86.32 8.08
16211 21.2100 69.93 86.65 8.46
16212 21.2110 86.52 87.01 9.40
16213 21.2120 75.79 87.43 8.87
16214 21.2130 63.76 87.91 8.16
16215 21.2140 60.07 88.46 7.87
16216 21.2150 78.20 89.09 8.92
16217 21.2160 68.79 89.83 8.39
16218 21.2170 73.49 90.69 8.66
16219 21.2180 75.67 91.72 8.80
16220 21.2190 75.72 92.96 8.77
16221 21.2200 61.39 94.46 7.87
16222 21.2210 67.58 96.32 8.25
16223 21.2220 77.13 98.66 8.85
16224 21.2230 92.77 101.62 9.76
16225 21.2240 91.69 105.44 9.63
16226 21.2250 82.93 110.37 9.19
16227 21.2260 85.54 116.72 9.33
16228 21.2270 97.28 124.82 9.97
16229 21.2280 113.33 134.96 10.82
16230 21.2290 117.30 147.02 10.90
16231 21.2300 150.17 160.38 12.30
16232 21.2310 153.88 173.57 12.44
16233 21.2320 157.00 184.59 12.68
16234 21.2330 163.29 192.18 12.98
16235 21.2340 171.07 195.68 13.23
16236 21.2350 177.85 194.11 13.49
16237 21.2360 152.15 186.65 12.52
16238 21.2370 152.04 174.32 12.52
16239 21.2380 140.90 159.80 12.05
16240 21.2390 100.00 145.72 10.10
16241 21.2400 101.14 133.49 10.12
16242 21.2410 98.29 123.49 9.98
16243 21.2420 104.54 115.55 10.34
16244 21.2430 97.17 109.40 10.02
16245 21.2440 105.82 104.65 10.40
16246 21.2450 79.69 100.97 8.98
16247 21.2460 80.84 98.12 9.05
16248 21.2470 96.96 95.87 9.92
16249 21.2480 83.18 94.07 9.17
16250 21.2490 95.06 92.60 9.81
16251 21.2500 74.99 91.39 8.68
16252 21.2510 65.61 90.38 8.18
16253 21.2520 77.03 89.52 8.93
16254 21.2530 86.49 88.79 9.49
16255 21.2540 62.46 88.16 8.01
16256 21.2550 70.94 87.61 8.51
16257 21.2560 58.96 87.13 7.75
16258 21.2570 70.98 86.71 8.53
16259 21.2580 73.12 86.34 8.67
16260 21.2590 69.81 86.01 8.45
16261 21.2600 72.68 85.71 8.61
16262 21.2610 82.44 85.45 9.19
16263 21.2620 69.70 85.21 8.51
16264 21.2630 71.13 85.00 8.60
16265 21.2640 78.23 84.80 8.99
16266 21.2650 84.37 84.62 9.28
16267 21.2660 70.07 84.46 8.42
16268 21.2670 69.09 84.32 8.41
16269 21.2680 70.42 84.18 8.50
16270 21.2690 58.49 84.05 7.72
16271 21.2700 76.04 83.94 8.77
16272 21.2710 72.11 83.83 8.53
16273 21.2720 66.43 83.73 8.25
16274 21.2730 63.17 83.64 8.06
16275 21.2740 46.16 83.56 6.88
16276 21.2750 67.89 83.48 8.33
16277 21.2760 76.89 83.40 8.86
16278 21.2770 74.85 83.33 8.80
16279 21.2780 76.55 83.27 8.87
16280 21.2790 67.55 83.20 8.28
16281 21.2800 61.48 83.15 7.88
16282 21.2810 62.38 83.09 7.93
16283 21.2820 72.39 83.04 8.64
16284 21.2830 55.74 82.99 7.63
16285 21.2840 52.83 82.94 7.39
16286 21.2850 64.98 82.90 8.19
16287 21.2860 72.54 82.86 8.65
16288 21.2870 64.96 82.82 8.18
16289 21.2880 76.59 82.78 8.90
16290 21.2890 66.73 82.74 8.25
16291 21.2900 53.89 82.71 7.39
16292 21.2910 58.32 82.67 7.71
16293 21.2920 70.09 82.64 8.52
16294 21.2930 67.33 82.61 8.35
16295 21.2940 60.96 82.58 7.90
16296 21.2950 50.10 82.56 7.14
16297 21.2960 70.77 82.53 8.49
16298 21.2970 62.76 82.50 8.01
16299 21.2980 69.78 82.48 8.44
16300 21.2990 68.92 82.45 8.38
16301 21.3000 68.56 82.43 8.33
16302 21.3010 66.72 82.41 8.24
16303 21.3020 72.87 82.38 8.67
16304 21.3030 62.70 82.36 8.07
16305 21.3040 62.56 82.34 8.04
16306 21.3050 63.28 82.32 8.03
16307 21.3060 72.24 82.30 8.54
16308 21.3070 55.11 82.29 7.51
16309 21.3080 64.71 82.27 8.18
16310 21.3090 58.94 82.25 7.80
16311 21.3100 67.98 82.23 8.31
16312 21.3110 71.28 82.21 8.57
16313 21.3120 76.28 82.20 8.91
16314 21.3130 60.06 82.18 7.91
16315 21.3140 59.24 82.17 7.82
16316 21.3150 67.52 82.15 8.31
16317 21.3160 66.51 82.14 8.23
16318 21.3170 76.56 82.12 8.84
16319 21.3180 72.20 82.11 8.61
16320 21.3190 56.82 82.09 7.62
16321 21.3200 65.99 82.08 8.16
16322 21.3210 81.73 82.07 9.08
16323 21.3220 62.97 82.05 8.04
16324 21.3230 56.75 82.04 7.66
16325 21.3240 60.35 82.03 7.89
16326 21.3250 73.11 82.02 8.64
16327 21.3260 65.32 82.00 8.18
16328 21.3270 65.69 81.99 8.22
16329 21.3280 64.71 81.98 8.16
16330 21.3290 70.13 81.97 8.44
16331 21.3300 69.92 81.96 8.39
16332 21.3310 70.47 81.95 8.48
16333 21.3320 73.80 81.93 8.78
16334 21.3330 50.95 81.92 7.30
16335 21.3340 72.01 81.91 8.64
16336 21.3350 67.53 81.90 8.34
16337 21.3360 57.95 81.89 7.74
16338 21.3370 65.15 81.88 8.22
16339 21.3380 76.11 81.87 8.87
16340 21.3390 79.84 81.86 9.02
16341 21.3400 57.93 81.85 7.67
16342 21.3410 49.96 81.84 7.14
16343 21.3420 77.88 81.83 8.96
16344 21.3430 64.23 81.82 8.17
16345 21.3440 58.64 81.81 7.77
16346 21.3450 68.16 81.80 8.32
16347 21.3460 76.38 81.79 8.80
16348 21.3470 67.84 81.78 8.33
16349 21.3480 75.59 81.78 8.81
16350 21.3490 57.32 81.77 7.68
16351 21.3500 60.53 81.76 7.83
16352 21.3510 62.22 81.75 7.98
16353 21.3520 61.77 81.74 7.98
16354 21.3530 81.11 81.73 9.18
16355 21.3540 66.37 81.72 8.29
16356 21.3550 77.62 81.71 8.88
16357 21.3560 81.96 81.71 9.15
16358 21.3570 70.94 81.70 8.55
16359 21.3580 87.06 81.69 9.48
16360 21.3590 53.05 81.68 7.41
16361 21.3600 67.69 81.67 8.31
16362 21.3610 66.98 81.66 8.29
16363 21.3620 58.24 81.66 7.80
16364 21.3630 71.53 81.65 8.64
16365 21.3640 69.89 81.64 8.50
16366 21.3650 60.51 81.63 7.86
16367 21.3660 59.16 81.62 7.76
16368 21.3670 54.94 81.62 7.51
16369 21.3680 69.96 81.61 8.46
16370 21.3690 83.15 81.60 9.18
16371 21.3700 62.42 81.59 7.94
16372 21.3710 69.78 81.58 8.40
16373 21.3720 71.12 81.58 8.57
16374 21.3730 74.30 81.57 8.80
16375 21.3740 68.56 81.56 8.42
16376 21.3750 69.10 81.55 8.40
16377 21.3760 68.77 81.55 8.38
16378 21.3770 70.27 81.54 8.50
16379 21.3780 62.44 81.53 8.02
16380 21.3790 56.69 81.52 7.60
16381 21.3800 61.12 81.52 7.88
16382 21.3810 60.91 81.51 7.88
16383 21.3820 55.36 81.50 7.60
16384 21.3830 60.44 81.49 7.96
16385 21.3840 62.44 81.49 8.05
16386 21.3850 59.88 81.48 7.84
16387 21.3860 59.39 81.47 7.80
16388 21.3870 71.73 81.47 8.60
16389 21.3880 83.48 81.46 9.27
16390 21.3890 56.17 81.45 7.59
16391 21.3900 64.21 81.44 8.06
16392 21.3910 63.56 81.44 8.05
16393 21.3920 68.44 81.43 8.41
16394 21.3930 75.44 81.42 8.82
16395 21.3940 59.23 81.42 7.80
16396 21.3950 70.05 81.41 8.45
16397 21.3960 58.35 81.40 7.69
16398 21.3970 61.88 81.40 7.98
16399 21.3980 73.79 81.39 8.69
16400 21.3990 86.62 81.38 9.38
16401 21.4000 58.00 81.38 7.71
16402 21.4010 77.76 81.37 8.90
16403 21.4020 75.79 81.36 8.83
16404 21.4030 70.66 81.35 8.57
16405 21.4040 66.04 81.35 8.24
16406 21.4050 63.15 81.34 8.02
16407 21.4060 72.09 81.33 8.55
16408 21.4070 70.33 81.33 8.51
16409 21.4080 61.71 81.32 7.99
16410 21.4090 74.55 81.42 8.74
16411 21.4100 74.11 81.42 8.69
16412 21.4110 66.73 81.52 8.27
16413 21.4120 73.10 81.61 8.72
16414 21.4130 78.86 81.61 9.09
16415 21.4140 64.01 81.60 8.09
16416 21.4150 58.79 81.60 7.77
16417 21.4160 68.95 81.60 8.39
16418 21.4170 76.34 81.59 8.87
16419 21.4180 64.62 81.59 8.14
16420 21.4190 63.27 81.58 8.01
16421 21.4200 65.49 81.58 8.14
16422 21.4210 53.13 81.57 7.35
16423 21.4220 72.74 81.57 8.68
16424 21.4230 73.55 81.57 8.75
16425 21.4240 62.79 81.56 8.06
16426 21.4250 75.56 81.56 8.82
16427 21.4260 69.25 81.55 8.40
16428 21.4270 65.27 81.55 8.16
16429 21.4280 59.97 81.55 7.87
16430 21.4290 61.36 81.54 7.88
16431 21.4300 62.89 81.54 7.98
16432 21.4310 75.05 81.53 8.74
16433 21.4320 75.66 81.53 8.87
16434 21.4330 75.82 81.53 8.92
16435 21.4340 59.28 81.52 7.83
16436 21.4350 60.14 81.52 7.88
16437 21.4360 76.78 81.52 8.87
16438 21.4370 66.14 81.51 8.27
16439 21.4380 67.71 81.51 8.36
16440 21.4390 60.30 81.51 7.84
16441 21.4400 62.69 81.50 7.98
16442 21.4410 66.11 81.50 8.20
16443 21.4420 60.77 81.50 7.90
16444 21.4430 72.23 81.49 8.62
16445 21.4440 59.08 81.49 7.81
16446 21.4450 69.31 81.49 8.39
16447 21.4460 61.02 81.48 7.87
16448 21.4470 62.94 81.48 8.02
16449 21.4480 63.09 81.48 8.03
16450 21.4490 70.34 81.47 8.48
16451 21.4500 72.01 81.47 8.55
16452 21.4510 68.77 81.47 8.37
16453 21.4520 62.26 81.46 8.01
16454 21.4530 65.67 81.46 8.25
16455 21.4540 60.15 81.46 7.87
16456 21.4550 61.71 81.46 7.93
16457 21.4560 60.84 81.45 7.88
16458 21.4570 73.74 81.45 8.70
16459 21.4580 69.60 81.45 8.48
16460 21.4590 66.07 81.45 8.23
16461 21.4600 69.60 81.44 8.42
16462 21.4610 70.81 81.44 8.53
16463 21.4620 68.86 81.44 8.44
16464 21.4630 75.38 81.44 8.86
16465 21.4640 67.25 81.43 8.34
16466 21.4650 71.23 81.43 8.51
16467 21.4660 76.85 81.43 8.85
16468 21.4670 52.44 81.43 7.33
16469 21.4680 55.03 81.43 7.50
16470 21.4690 57.94 81.42 7.66
16471 21.4700 52.03 81.42 7.25
16472 21.4710 84.65 81.42 9.24
16473 21.4720 54.78 81.42 7.50
16474 21.4730 78.02 81.42 9.00
16475 21.4740 65.20 81.41 8.18
16476 21.4750 72.07 81.41 8.58
16477 21.4760 51.24 81.41 7.26
16478 21.4770 65.30 81.41 8.19
16479 21.4780 81.52 81.41 9.15
16480 21.4790 66.31 81.41 8.19
16481 21.4800 75.94 81.41 8.76
16482 21.4810 77.83 81.41 8.90
16483 21.4820 56.75 81.40 7.69
16484 21.4830 68.24 81.40 8.46
16485 21.4840 63.86 81.40 8.14
16486 21.4850 73.03 81.40 8.68
16487 21.4860 72.65 81.40 8.64
16488 21.4870 61.34 81.40 7.94
16489 21.4880 65.07 81.40 8.20
16490 21.4890 67.83 81.40 8.33
16491 21.4900 66.03 81.40 8.16
16492 21.4910 77.87 81.40 8.88
16493 21.4920 66.67 81.40 8.28
16494 21.4930 60.92 81.40 7.95
16495 21.4940 68.77 81.40 8.37
16496 21.4950 59.82 81.40 7.79
16497 21.4960 64.75 81.40 8.08
16498 21.4970 74.24 81.40 8.70
16499 21.4980 70.29 81.40 8.48
16500 21.4990 61.81 81.40 7.94
16501 21.5000 58.90 81.40 7.75
16502 21.5010 56.92 81.40 7.61
16503 21.5020 64.44 81.40 8.15
16504 21.5030 62.94 81.40 8.06
16505 21.5040 54.49 81.40 7.48
16506 21.5050 46.35 81.40 6.89
16507 21.5060 66.05 81.40 8.21
16508 21.5070 63.59 81.40 8.09
16509 21.5080 62.64 81.40 8.04
16510 21.5090 61.24 81.41 7.91
16511 21.5100 56.43 81.41 7.57
16512 21.5110 65.36 81.41 8.15
16513 21.5120 62.20 81.41 8.05
16514 21.5130 63.64 81.41 8.16
16515 21.5140 66.64 81.42 8.28
16516 21.5150 68.22 81.42 8.34
16517 21.5160 67.92 81.41 8.29
16518 21.5170 60.55 81.41 7.88
16519 21.5180 66.64 81.41 8.23
16520 21.5190 75.71 81.40 8.77
16521 21.5200 72.66 81.40 8.56
16522 21.5210 61.79 81.40 7.92
16523 21.5220 75.24 81.41 8.81
16524 21.5230 72.58 81.41 8.68
16525 21.5240 69.50 81.41 8.47
16526 21.5250 59.51 81.42 7.81
16527 21.5260 66.29 81.42 8.22
16528 21.5270 62.66 81.43 8.01
16529 21.5280 69.16 81.43 8.42
16530 21.5290 67.95 81.43 8.33
16531 21.5300 65.18 81.44 8.14
16532 21.5310 67.09 81.44 8.25
16533 21.5320 64.79 81.45 8.22
16534 21.5330 51.11 81.46 7.34
16535 21.5340 74.19 81.46 8.81
16536 21.5350 68.24 81.47 8.40
16537 21.5360 72.59 81.47 8.62
16538 21.5370 65.98 81.48 8.25
16539 21.5380 70.36 81.49 8.52
16540 21.5390 70.25 81.49 8.47
16541 21.5400 71.86 81.50 8.52
16542 21.5410 65.11 81.51 8.16
16543 21.5420 75.13 81.51 8.80
16544 21.5430 67.46 81.52 8.35
16545 21.5440 60.17 81.53 7.87
16546 21.5450 69.58 81.54 8.42
16547 21.5460 68.35 81.55 8.32
16548 21.5470 53.24 81.55 7.38
16549 21.5480 55.95 81.56 7.60
16550 21.5490 61.59 81.57 7.95
16551 21.5500 76.19 81.58 8.81
16552 21.5510 66.66 81.59 8.26
16553 21.5520 72.62 81.60 8.64
16554 21.5530 64.47 81.61 8.19
16555 21.5540 73.60 81.62 8.72
16556 21.5550 66.41 81.64 8.22
16557 21.5560 63.47 81.65 8.07
16558 21.5570 71.31 81.66 8.59
16559 21.5580 58.80 81.67 7.81
16560 21.5590 80.51 81.69 9.11
16561 21.5600 65.44 81.70 8.17
16562 21.5610 71.28 81.71 8.53
16563 21.5620 70.81 81.73 8.56
16564 21.5630 64.45 81.74 8.18
16565 21.5640 66.79 81.76 8.30
16566 21.5650 60.05 81.77 7.85
16567 21.5660 57.30 81.79 7.64
16568 21.5670 63.85 81.80 8.11
16569 21.5680 54.36 81.82 7.49
16570 21.5690 56.15 81.84 7.56
16571 21.5700 72.58 81.86 8.55
16572 21.5710 79.48 81.87 8.98
16573 21.5720 65.08 81.89 8.22
16574 21.5730 62.78 81.91 8.11
16575 21.5740 68.38 81.93 8.43
16576 21.5750 66.73 81.96 8.28
16577 21.5760 64.14 81.98 8.09
16578 21.5770 59.32 82.00 7.77
16579 21.5780 52.25 82.02 7.34
16580 21.5790 85.66 82.05 9.32
16581 21.5800 64.38 82.07 8.10
16582 21.5810 68.99 82.10 8.39
16583 21.5820 68.62 82.12 8.45
16584 21.5830 69.75 82.15 8.54
16585 21.5840 51.05 82.18 7.26
16586 21.5850 67.34 82.21 8.31
16587 21.5860 66.31 82.24 8.24
16588 21.5870 60.58 82.27 7.87
16589 21.5880 70.82 82.30 8.56
16590 21.5890 69.45 82.33 8.41
16591 21.5900 65.10 82.36 8.12
16592 21.5910 72.96 82.40 8.60
16593 21.5920 75.53 82.43 8.83
16594 21.5930 72.47 82.47 8.64
16595 21.5940 76.23 82.51 8.83
16596 21.5950 62.08 82.55 7.95
16597 21.5960 72.93 82.59 8.62
16598 21.5970 68.98 82.63 8.41
16599 21.5980 65.23 82.68 8.21
16600 21.5990 59.72 82.72 7.83
16601 21.6000 63.81 82.77 8.05
16602 21.6010 67.10 82.82 8.24
16603 21.6020 61.22 82.87 7.94
16604 21.6030 61.89 82.92 8.02
16605 21.6040 67.21 82.97 8.31
16606 21.6050 67.97 83.03 8.36
16607 21.6060 65.04 83.09 8.17
16608 21.6070 75.79 83.15 8.85
16609 21.6080 79.20 83.21 9.04
16610 21.6090 57.39 83.27 7.69
16611 21.6100 59.78 83.34 7.80
16612 21.6110 58.42 83.41 7.73
16613 21.6120 56.97 83.48 7.71
16614 21.6130 76.50 83.55 8.93
16615 21.6140 75.66 83.63 8.81
16616 21.6150 62.16 83.71 7.97
16617 21.6160 61.12 83.79 7.89
16618 21.6170 63.20 83.88 8.05
16619 21.6180 65.75 83.97 8.21
16620 21.6190 63.81 84.06 8.04
16621 21.6200 82.06 84.16 9.12
16622 21.6210 73.09 84.26 8.63
16623 21.6220 72.24 84.37 8.67
16624 21.6230 74.95 84.48 8.84
16625 21.6240 63.80 84.59 8.13
16626 21.6250 67.67 84.71 8.32
16627 21.6260 67.24 84.83 8.26
16628 21.6270 68.40 84.96 8.37
16629 21.6280 71.70 85.10 8.58
16630 21.6290 62.35 85.24 7.98
16631 21.6300 53.35 85.39 7.39
16632 21.6310 70.29 85.54 8.47
16633 21.6320 57.03 85.71 7.69
16634 21.6330 78.48 85.88 9.08
16635 21.6340 73.86 86.05 8.74
16636 21.6350 75.02 86.24 8.78
16637 21.6360 71.22 86.44 8.55
16638 21.6370 66.28 86.64 8.25
16639 21.6380 58.54 86.86 7.78
16640 21.6390 63.70 87.08 8.07
16641 21.6400 69.01 87.32 8.38
16642 21.6410 51.33 87.57 7.22
16643 21.6420 67.03 87.84 8.33
16644 21.6430 73.50 88.12 8.77
16645 21.6440 82.57 88.41 9.20
16646 21.6450 66.52 88.72 8.26
16647 21.6460 62.81 89.05 8.01
16648 21.6470 69.18 89.40 8.44
16649 21.6480 76.73 89.77 8.91
16650 21.6490 73.77 90.16 8.70
16651 21.6500 80.79 90.58 9.05
16652 21.6510 68.91 91.02 8.35
16653 21.6520 75.26 91.49 8.79
16654 21.6530 66.89 91.99 8.33
16655 21.6540 69.22 92.53 8.45
16656 21.6550 67.73 93.10 8.36
16657 21.6560 57.49 93.71 7.65
16658 21.6570 68.02 94.37 8.42
16659 21.6580 77.04 95.07 8.94
16660 21.6590 74.51 95.83 8.74
16661 21.6600 75.09 96.65 8.75
16662 21.6610 77.31 97.53 8.90
16663 21.6620 79.99 98.48 9.11
16664 21.6630 79.10 99.51 9.11
16665 21.6640 76.55 100.63 8.87
16666 21.6650 71.08 101.85 8.52
16667 21.6660 68.98 103.17 8.38
16668 21.6670 77.32 104.62 8.88
16669 21.6680 78.85 106.21 9.00
16670 21.6690 83.19 107.96 9.22
16671 21.6700 94.54 109.88 9.78
16672 21.6710 74.79 112.01 8.72
16673 21.6720 97.19 114.37 9.98
16674 21.6730 106.18 117.00 10.51
16675 21.6740 93.11 119.93 9.75
16676 21.6750 90.40 123.22 9.59
16677 21.6760 117.24 126.94 10.90
16678 21.6770 110.86 131.14 10.65
16679 21.6780 125.59 135.92 11.35
16680 21.6790 127.70 141.40 11.41
16681 21.6800 134.13 147.70 11.71
16682 21.6810 124.36 155.00 11.26
16683 21.6820 144.47 163.52 12.27
16684 21.6830 152.37 173.62 12.62
16685 21.6840 176.36 185.61 13.45
16686 21.6850 181.57 200.10 13.62
16687 21.6860 224.29 217.91 15.11
16688 21.6870 230.34 239.99 15.36
16689 21.6880 262.24 267.86 16.42
16690 21.6890 299.02 303.50 17.41
16691 21.6900 378.51 349.33 19.55
16692 21.6910 403.51 408.36 20.22
16693 21.6920 433.93 483.77 21.11
16694 21.6930 527.97 578.90 23.33
16695 21.6940 623.75 695.09 25.24
16696 21.6950 736.21 829.27 27.37
16697 21.6960 951.51 971.05 31.02
16698 21.6970 1036.28 1101.78 32.54
16699 21.6980 1175.05 1198.50 34.68
16700 21.6990 1230.06 1244.66 35.41
16701 21.7000 1188.75 1231.01 34.63
16702 21.7010 1095.93 1158.24 33.38
16703 21.7020 975.47 1039.51 31.71
16704 21.7030 802.14 897.58 28.84
16705 21.7040 678.87 755.99 26.39
16706 21.7050 570.42 629.94 24.14
16707 21.7060 506.03 524.72 22.69
16708 21.7070 404.17 440.37 20.37
16709 21.7080 348.10 374.26 18.87
16710 21.7090 333.47 322.78 18.48
16711 21.7100 269.07 282.89 16.54
16712 21.7110 232.00 251.69 15.38
16713 21.7120 229.59 227.19 15.43
16714 21.7130 168.60 207.63 13.20
16715 21.7140 170.66 191.71 13.20
16716 21.7150 149.18 178.66 12.28
16717 21.7160 139.27 167.77 11.89
16718 21.7170 134.86 158.56 11.74
16719 21.7180 115.43 150.71 10.86
16720 21.7190 112.41 143.97 10.68
16721 21.7200 136.27 138.12 11.67
16722 21.7210 124.73 133.02 11.25
16723 21.7220 102.60 128.56 10.27
16724 21.7230 107.74 124.72 10.53
16725 21.7240 108.14 121.22 10.55
16726 21.7250 103.82 118.12 10.30
16727 21.7260 92.62 115.35 9.72
16728 21.7270 91.62 112.86 9.70
16729 21.7280 89.22 110.62 9.58
16730 21.7290 90.54 108.59 9.59
16731 21.7300 85.91 106.75 9.29
16732 21.7310 68.05 105.08 8.34
16733 21.7320 75.68 103.56 8.85
16734 21.7330 76.51 102.17 8.94
16735 21.7340 77.79 100.89 8.98
16736 21.7350 81.59 99.72 9.16
16737 21.7360 77.81 98.64 8.92
16738 21.7370 67.08 97.64 8.33
16739 21.7380 61.24 96.71 7.94
16740 21.7390 78.87 95.86 8.95
16741 21.7400 68.37 95.07 8.31
16742 21.7410 68.28 94.33 8.31
16743 21.7420 84.72 93.64 9.33
16744 21.7430 88.39 93.00 9.55
16745 21.7440 66.51 92.40 8.23
16746 21.7450 67.17 91.84 8.27
16747 21.7460 67.68 91.32 8.29
16748 21.7470 72.65 90.83 8.63
16749 21.7480 81.09 90.36 9.12
16750 21.7490 67.41 89.92 8.31
16751 21.7500 78.99 89.51 8.94
16752 21.7510 60.05 89.12 7.83
16753 21.7520 80.82 88.74 9.15
16754 21.7530 86.54 88.39 9.47
16755 21.7540 79.08 88.06 9.03
16756 21.7550 75.09 87.74 8.78
16757 21.7560 71.50 87.44 8.57
16758 21.7570 62.85 87.16 8.06
16759 21.7580 60.80 86.89 7.95
16760 21.7590 60.46 86.63 7.89
16761 21.7600 76.94 86.38 8.86
16762 21.7610 66.66 86.15 8.26
16763 21.7620 55.17 85.93 7.57
16764 21.7630 58.73 85.72 7.83
16765 21.7640 74.79 85.52 8.78
16766 21.7650 73.06 85.33 8.65
16767 21.7660 71.45 85.14 8.51
16768 21.7670 53.53 84.96 7.40
16769 21.7680 55.64 84.80 7.57
16770 21.7690 69.01 84.63 8.39
16771 21.7700 51.76 84.48 7.25
16772 21.7710 68.68 84.33 8.39
16773 21.7720 64.41 84.19 8.17
16774 21.7730 56.88 84.05 7.72
16775 21.7740 74.81 83.92 8.79
16776 21.7750 72.41 83.79 8.59
16777 21.7760 71.99 83.67 8.56
16778 21.7770 84.27 83.55 9.31
16779 21.7780 81.45 83.43 9.14
16780 21.7790 95.17 83.32 9.87
16781 21.7800 80.36 83.22 9.06
16782 21.7810 67.07 83.12 8.28
16783 21.7820 64.40 83.02 8.18
16784 21.7830 69.20 82.92 8.50
16785 21.7840 64.24 82.83 8.16
16786 21.7850 59.87 82.74 7.88
16787 21.7860 72.40 82.66 8.61
16788 21.7870 73.40 82.57 8.70
16789 21.7880 76.88 82.49 8.90
16790 21.7890 74.09 82.41 8.69
16791 21.7900 74.43 82.34 8.66
16792 21.7910 77.29 82.27 8.85
16793 21.7920 62.52 82.19 8.03
16794 21.7930 49.63 82.13 7.19
16795 21.7940 63.82 82.06 8.12
16796 21.7950 66.69 81.99 8.26
16797 21.7960 66.61 81.93 8.28
16798 21.7970 56.09 81.87 7.60
16799 21.7980 69.28 81.81 8.48
16800 21.7990 59.29 81.75 7.79
16801 21.8000 52.73 81.70 7.30
16802 21.8010 71.56 81.64 8.54
16803 21.8020 52.87 81.59 7.40
16804 21.8030 66.61 81.54 8.31
16805 21.8040 72.96 81.49 8.68
16806 21.8050 69.28 81.44 8.46
16807 21.8060 69.42 81.39 8.44
16808 21.8070 68.17 81.35 8.36
16809 21.8080 70.25 81.30 8.52
16810 21.8090 74.78 81.26 8.76
16811 21.8100 59.28 81.21 7.79
16812 21.8110 62.43 81.17 8.01
16813 21.8120 66.21 81.13 8.27
16814 21.8130 55.12 81.09 7.60
16815 21.8140 76.36 81.05 8.86
16816 21.8150 79.53 81.02 9.00
16817 21.8160 62.84 80.98 8.01
16818 21.8170 64.44 80.94 8.16
16819 21.8180 80.30 80.91 9.07
16820 21.8190 81.36 80.87 9.12
16821 21.8200 71.12 80.84 8.50
16822 21.8210 79.98 80.81 9.03
16823 21.8220 74.47 80.78 8.80
16824 21.8230 61.70 80.75 8.02
16825 21.8240 58.81 80.72 7.79
16826 21.8250 59.69 80.69 7.82
16827 21.8260 59.29 80.66 7.77
16828 21.8270 66.64 80.63 8.27
16829 21.8280 70.35 80.60 8.51
16830 21.8290 61.50 80.57 7.93
16831 21.8300 74.33 80.55 8.74
16832 21.8310 64.38 80.52 8.15
16833 21.8320 52.43 80.50 7.39
16834 21.8330 66.67 80.47 8.37
16835 21.8340 65.75 80.45 8.24
16836 21.8350 59.19 80.42 7.82
16837 21.8360 68.11 80.40 8.33
16838 21.8370 71.19 80.38 8.54
16839 21.8380 83.52 80.36 9.28
16840 21.8390 52.63 80.34 7.33
16841 21.8400 69.42 80.31 8.39
16842 21.8410 74.71 80.29 8.72
16843 21.8420 72.15 80.27 8.64
16844 21.8430 66.78 80.25 8.33
16845 21.8440 66.24 80.24 8.28
16846 21.8450 62.60 80.22 8.01
16847 21.8460 61.86 80.20 7.98
16848 21.8470 64.97 80.18 8.17
16849 21.8480 55.64 80.16 7.59
16850 21.8490 69.84 80.15 8.43
16851 21.8500 65.57 80.13 8.15
16852 21.8510 73.46 80.11 8.64
16853 21.8520 64.03 80.10 8.12
16854 21.8530 62.97 80.08 8.09
16855 21.8540 69.20 80.07 8.46
16856 21.8550 52.10 80.05 7.32
16857 21.8560 73.56 80.04 8.71
16858 21.8570 69.61 80.03 8.48
16859 21.8580 64.39 80.01 8.19
16860 21.8590 68.31 80.00 8.37
16861 21.8600 63.20 79.99 8.03
16862 21.8610 69.18 79.97 8.41
16863 21.8620 71.07 79.96 8.61
16864 21.8630 67.67 79.95 8.41
16865 21.8640 65.68 79.94 8.24
16866 21.8650 79.57 79.93 9.02
16867 21.8660 70.93 79.92 8.50
16868 21.8670 70.16 79.91 8.46
16869 21.8680 68.86 79.90 8.45
16870 21.8690 70.73 79.89 8.50
16871 21.8700 67.74 79.88 8.31
16872 21.8710 65.37 79.87 8.18
16873 21.8720 78.39 79.86 9.01
16874 21.8730 72.13 79.86 8.65
16875 21.8740 70.03 79.85 8.47
16876 21.8750 63.78 79.84 8.06
16877 21.8760 61.58 79.83 7.90
16878 21.8770 85.75 79.83 9.36
16879 21.8780 79.32 79.82 9.04
16880 21.8790 69.44 79.82 8.44
16881 21.8800 69.32 79.81 8.41
16882 21.8810 70.63 79.81 8.50
16883 21.8820 80.86 79.80 9.21
16884 21.8830 63.54 79.80 8.13
16885 21.8840 71.53 79.79 8.61
16886 21.8850 77.71 79.79 8.94
16887 21.8860 73.60 79.79 8.67
16888 21.8870 74.22 79.78 8.76
16889 21.8880 76.05 79.78 8.84
16890 21.8890 59.94 79.78 7.80
16891 21.8900 67.20 79.78 8.27
16892 21.8910 60.61 79.78 7.85
16893 21.8920 80.05 79.78 9.09
16894 21.8930 68.11 79.78 8.43
16895 21.8940 63.95 79.78 8.14
16896 21.8950 67.61 79.78 8.34
16897 21.8960 63.39 79.78 8.00
16898 21.8970 66.35 79.79 8.24
16899 21.8980 78.91 79.79 8.99
16900 21.8990 62.77 79.79 7.94
16901 21.9000 74.86 79.80 8.71
16902 21.9010 56.00 79.80 7.54
16903 21.9020 69.56 79.81 8.51
16904 21.9030 72.28 79.81 8.69
16905 21.9040 69.87 79.82 8.54
16906 21.9050 63.97 79.83 8.12
16907 21.9060 64.82 79.83 8.16
16908 21.9070 65.80 79.84 8.24
16909 21.9080 72.91 79.85 8.72
16910 21.9090 66.72 79.86 8.26
16911 21.9100 56.59 79.87 7.60
16912 21.9110 65.52 79.88 8.18
16913 21.9120 86.41 79.90 9.48
16914 21.9130 67.30 79.91 8.37
16915 21.9140 70.21 79.92 8.52
16916 21.9150 61.86 79.94 7.95
16917 21.9160 75.23 79.96 8.74
16918 21.9170 70.78 79.97 8.53
16919 21.9180 62.31 79.99 8.02
16920 21.9190 62.07 80.01 7.96
16921 21.9200 71.52 80.03 8.50
16922 21.9210 73.17 80.06 8.63
16923 21.9220 60.35 80.08 7.91
16924 21.9230 59.38 80.10 7.85
16925 21.9240 67.57 80.13 8.34
16926 21.9250 69.14 80.16 8.39
16927 21.9260 68.80 80.19 8.39
16928 21.9270 58.05 80.22 7.72
16929 21.9280 83.42 80.25 9.23
16930 21.9290 67.13 80.29 8.30
16931 21.9300 83.26 80.32 9.19
16932 21.9310 78.75 80.36 8.97
16933 21.9320 71.80 80.40 8.61
16934 21.9330 77.05 80.45 8.98
16935 21.9340 63.17 80.49 8.10
16936 21.9350 60.16 80.54 7.86
16937 21.9360 60.13 80.59 7.84
16938 21.9370 66.51 80.65 8.26
16939 21.9380 71.91 80.71 8.61
16940 21.9390 69.99 80.77 8.45
16941 21.9400 67.53 80.83 8.29
16942 21.9410 69.34 80.90 8.38
16943 21.9420 70.04 80.97 8.48
16944 21.9430 82.98 81.05 9.28
16945 21.9440 74.31 81.13 8.71
16946 21.9450 74.37 81.22 8.70
16947 21.9460 58.62 81.31 7.71
16948 21.9470 66.13 81.41 8.25
16949 21.9480 72.01 81.52 8.59
16950 21.9490 64.75 81.63 8.10
16951 21.9500 61.13 81.75 7.85
16952 21.9510 65.40 81.88 8.16
16953 21.9520 65.63 82.02 8.23
16954 21.9530 82.42 82.17 9.25
16955 21.9540 73.23 82.33 8.68
16956 21.9550 76.12 82.51 8.83
16957 21.9560 79.23 82.69 9.00
16958 21.9570 80.33 82.89 9.10
16959 21.9580 71.21 83.11 8.59
16960 21.9590 56.45 83.35 7.64
16961 21.9600 76.64 83.61 8.80
16962 21.9610 82.31 83.89 9.16
16963 21.9620 77.10 84.20 8.93
16964 21.9630 67.51 84.54 8.37
16965 21.9640 80.63 84.92 9.06
16966 21.9650 69.90 85.34 8.42
16967 21.9660 58.99 85.80 7.74
16968 21.9670 62.88 86.32 8.00
16969 21.9680 87.91 86.90 9.48
16970 21.9690 65.55 87.56 8.16
16971 21.9700 72.62 88.30 8.58
16972 21.9710 76.97 89.16 8.84
16973 21.9720 75.22 90.14 8.83
16974 21.9730 68.18 91.29 8.44
16975 21.9740 74.12 92.65 8.76
16976 21.9750 82.54 94.26 9.17
16977 21.9760 69.01 96.22 8.37
16978 21.9770 73.24 98.64 8.65
16979 21.9780 80.33 101.65 9.13
16980 21.9790 84.63 105.46 9.29
16981 21.9800 86.30 110.28 9.37
16982 21.9810 86.53 116.41 9.41
16983 21.9820 112.74 124.11 10.82
16984 21.9830 101.18 133.58 10.25
16985 21.9840 105.46 144.80 10.46
16986 21.9850 132.59 157.28 11.67
16987 21.9860 145.53 169.70 12.17
16988 21.9870 141.20 180.12 12.01
16989 21.9880 174.83 186.97 13.38
16990 21.9890 173.50 188.63 13.26
16991 21.9900 155.23 184.91 12.53
16992 21.9910 135.72 176.45 11.73
16993 21.9920 133.81 165.55 11.73
16994 21.9930 115.77 154.40 10.98
16995 21.9940 94.26 144.51 9.87
16996 21.9950 105.03 136.57 10.38
16997 21.9960 123.52 130.67 11.17
16998 21.9970 107.31 126.67 10.52
16999 21.9980 96.53 124.33 9.95
17000 21.9990 97.89 123.44 10.00
17001 22.0000 94.81 123.87 9.80
17002 22.0010 124.82 125.52 11.29
17003 22.0020 134.06 128.46 11.75
17004 22.0030 121.44 132.78 11.26
17005 22.0040 125.26 138.76 11.39
17006 22.0050 152.63 146.82 12.50
17007 22.0060 162.30 157.57 12.93
17008 22.0070 171.11 171.76 13.30
17009 22.0080 183.52 190.46 13.74
17010 22.0090 218.95 214.79 14.94
17011 22.0100 248.72 245.88 15.90
17012 22.0110 305.14 284.74 17.64
17013 22.0120 329.30 331.10 18.39
17014 22.0130 397.07 382.51 20.25
17015 22.0140 449.35 431.71 21.48
17016 22.0150 519.29 466.36 23.01
17017 22.0160 552.35 474.14 23.74
17018 22.0170 511.42 451.63 22.88
17019 22.0180 433.36 407.75 21.09
17020 22.0190 370.97 355.84 19.45
17021 22.0200 330.38 305.70 18.32
17022 22.0210 288.19 262.37 17.18
17023 22.0220 250.21 226.82 16.10
17024 22.0230 205.64 198.47 14.62
17025 22.0240 185.31 176.39 13.79
17026 22.0250 181.37 159.25 13.61
17027 22.0260 144.06 145.98 12.09
17028 22.0270 136.66 135.63 11.86
17029 22.0280 141.74 127.47 12.09
17030 22.0290 116.34 120.95 10.92
17031 22.0300 114.56 115.64 10.82
17032 22.0310 95.21 111.27 9.89
17033 22.0320 116.23 107.61 10.96
17034 22.0330 93.89 104.51 9.89
17035 22.0340 88.42 101.86 9.57
17036 22.0350 81.58 99.59 9.15
17037 22.0360 62.35 97.61 7.98
17038 22.0370 75.23 95.88 8.79
17039 22.0380 92.66 94.36 9.72
17040 22.0390 78.16 93.02 8.91
17041 22.0400 82.12 91.83 9.14
17042 22.0410 68.40 90.77 8.35
17043 22.0420 77.70 89.82 8.95
17044 22.0430 83.98 88.97 9.36
17045 22.0440 68.76 88.20 8.47
17046 22.0450 67.42 87.50 8.30
17047 22.0460 67.40 86.87 8.29
17048 22.0470 74.03 86.29 8.71
17049 22.0480 66.55 85.76 8.28
17050 22.0490 71.82 85.28 8.54
17051 22.0500 63.58 84.84 8.03
17052 22.0510 77.03 84.43 8.84
17053 22.0520 68.75 84.05 8.45
17054 22.0530 58.42 83.71 7.79
17055 22.0540 63.75 83.38 8.14
17056 22.0550 72.33 83.08 8.61
17057 22.0560 77.80 82.80 8.91
17058 22.0570 61.31 82.54 7.94
17059 22.0580 65.80 82.30 8.22
17060 22.0590 58.44 82.07 7.75
17061 22.0600 58.02 81.85 7.68
17062 22.0610 57.93 81.65 7.68
17063 22.0620 69.96 81.47 8.48
17064 22.0630 56.12 81.29 7.62
17065 22.0640 61.70 81.12 7.96
17066 22.0650 55.26 80.96 7.51
17067 22.0660 49.04 80.81 7.09
17068 22.0670 60.58 80.67 7.91
17069 22.0680 71.26 80.54 8.58
17070 22.0690 73.65 80.41 8.67
17071 22.0700 62.91 80.29 8.00
17072 22.0710 63.68 80.17 8.06
17073 22.0720 62.40 80.06 8.05
17074 22.0730 60.87 79.96 7.96
17075 22.0740 65.99 79.86 8.26
17076 22.0750 57.22 79.77 7.62
17077 22.0760 79.06 79.67 9.00
17078 22.0770 76.42 79.59 8.87
17079 22.0780 65.56 79.51 8.23
17080 22.0790 76.72 79.43 8.85
17081 22.0800 82.38 79.35 9.14
17082 22.0810 69.03 79.28 8.41
17083 22.0820 60.09 79.21 7.90
17084 22.0830 59.65 79.14 7.91
17085 22.0840 66.87 79.07 8.32
17086 22.0850 58.97 79.01 7.79
17087 22.0860 98.56 78.95 10.02
17088 22.0870 75.19 78.89 8.78
17089 22.0880 72.66 78.84 8.64
17090 22.0890 74.69 78.78 8.69
17091 22.0900 71.45 78.73 8.51
17092 22.0910 63.05 78.68 8.01
17093 22.0920 72.16 78.63 8.64
17094 22.0930 76.79 78.58 8.97
17095 22.0940 55.58 78.54 7.59
17096 22.0950 57.04 78.49 7.63
17097 22.0960 48.99 78.45 7.06
17098 22.0970 67.43 78.41 8.32
17099 22.0980 65.24 78.37 8.16
17100 22.0990 64.72 78.33 8.07
17101 22.1000 71.78 78.29 8.49
17102 22.1010 74.80 78.25 8.72
17103 22.1020 69.24 78.22 8.49
17104 22.1030 60.98 78.18 7.98
17105 22.1040 59.93 78.15 7.89
17106 22.1050 55.62 78.12 7.54
17107 22.1060 60.26 78.08 7.88
17108 22.1070 55.86 78.05 7.57
17109 22.1080 72.97 78.02 8.66
17110 22.1090 86.26 77.99 9.38
17111 22.1100 78.92 77.96 8.95
17112 22.1110 73.40 77.93 8.64
17113 22.1120 59.32 77.91 7.80
17114 22.1130 70.56 77.88 8.56
17115 22.1140 72.47 77.85 8.61
17116 22.1150 65.36 77.83 8.16
17117 22.1160 66.84 77.80 8.25
17118 22.1170 66.34 77.78 8.26
17119 22.1180 64.64 77.75 8.15
17120 22.1190 67.37 77.73 8.29
17121 22.1200 68.79 77.70 8.32
17122 22.1210 73.95 77.68 8.63
17123 22.1220 70.81 77.66 8.51
17124 22.1230 62.16 77.64 8.00
17125 22.1240 80.20 77.62 9.07
17126 22.1250 70.79 77.59 8.49
17127 22.1260 74.82 77.57 8.73
17128 22.1270 68.45 77.55 8.41
17129 22.1280 66.50 77.53 8.28
17130 22.1290 69.84 77.51 8.44
17131 22.1300 59.63 77.49 7.77
17132 22.1310 63.95 77.47 8.07
17133 22.1320 74.49 77.46 8.77
17134 22.1330 85.22 77.44 9.43
17135 22.1340 62.12 77.42 8.00
17136 22.1350 72.33 77.40 8.59
17137 22.1360 63.96 77.38 8.06
17138 22.1370 57.72 77.37 7.68
17139 22.1380 59.52 77.35 7.81
17140 22.1390 55.83 77.33 7.54
17141 22.1400 60.01 77.32 7.79
17142 22.1410 62.05 77.30 7.95
17143 22.1420 54.09 77.28 7.44
17144 22.1430 70.04 77.27 8.51
17145 22.1440 68.88 77.25 8.39
17146 22.1450 58.62 77.24 7.73
17147 22.1460 56.60 77.22 7.58
17148 22.1470 56.92 77.21 7.62
17149 22.1480 62.45 77.19 7.98
17150 22.1490 68.92 77.18 8.38
17151 22.1500 65.26 77.16 8.13
17152 22.1510 71.41 77.15 8.52
17153 22.1520 61.48 77.14 7.98
17154 22.1530 67.82 77.12 8.42
17155 22.1540 56.58 77.11 7.63
17156 22.1550 56.93 77.10 7.61
17157 22.1560 58.92 77.08 7.75
17158 22.1570 70.67 77.07 8.53
17159 22.1580 53.41 77.06 7.43
17160 22.1590 59.31 77.04 7.79
17161 22.1600 72.65 77.03 8.59
17162 22.1610 53.92 77.02 7.43
17163 22.1620 64.03 77.01 8.09
17164 22.1630 69.28 76.99 8.46
17165 22.1640 71.71 76.98 8.54
17166 22.1650 62.32 76.97 7.95
17167 22.1660 51.73 76.96 7.26
17168 22.1670 62.42 76.95 7.97
17169 22.1680 65.96 76.94 8.23
17170 22.1690 66.32 76.92 8.23
17171 22.1700 64.46 76.91 8.08
17172 22.1710 76.22 76.90 8.77
17173 22.1720 68.09 76.89 8.36
17174 22.1730 61.47 76.88 8.01
17175 22.1740 62.40 76.87 7.99
17176 22.1750 67.35 76.86 8.26
17177 22.1760 68.49 76.85 8.35
17178 22.1770 62.41 76.84 8.01
17179 22.1780 63.44 76.83 8.08
17180 22.1790 53.95 76.82 7.42
17181 22.1800 63.27 76.81 8.03
17182 22.1810 69.11 76.80 8.41
17183 22.1820 60.16 76.79 7.90
17184 22.1830 64.67 76.78 8.22
17185 22.1840 55.40 76.77 7.55
17186 22.1850 67.08 76.77 8.27
17187 22.1860 71.40 76.76 8.54
17188 22.1870 68.00 76.75 8.30
17189 22.1880 61.59 76.74 7.93
17190 22.1890 63.22 76.73 8.01
17191 22.1900 55.18 76.73 7.47
17192 22.1910 66.53 76.72 8.23
17193 22.1920 64.91 76.71 8.16
17194 22.1930 69.92 76.71 8.52
17195 22.1940 61.96 76.70 8.00
17196 22.1950 75.93 76.69 8.79
17197 22.1960 81.00 76.69 9.07
17198 22.1970 61.43 76.68 7.93
17199 22.1980 59.18 76.68 7.79
17200 22.1990 63.80 76.68 8.04
17201 22.2000 68.66 76.68 8.33
17202 22.2010 64.93 76.67 8.13
17203 22.2020 60.04 76.67 7.89
17204 22.2030 60.01 76.67 7.93
17205 22.2040 55.46 76.67 7.56
17206 22.2050 69.82 76.68 8.46
17207 22.2060 68.90 76.68 8.42
17208 22.2070 61.70 76.69 7.97
17209 22.2080 53.28 76.70 7.44
17210 22.2090 46.35 76.71 6.87
17211 22.2100 63.79 76.72 8.04
17212 22.2110 66.89 76.74 8.22
17213 22.2120 61.52 76.77 7.95
17214 22.2130 74.48 76.80 8.78
17215 22.2140 80.12 76.84 9.08
17216 22.2150 78.17 76.89 8.92
17217 22.2160 68.97 76.95 8.39
17218 22.2170 61.53 77.03 7.95
17219 22.2180 75.63 77.14 8.83
17220 22.2190 76.13 77.27 8.81
17221 22.2200 73.53 77.45 8.62
17222 22.2210 56.69 77.67 7.58
17223 22.2220 73.13 77.96 8.67
17224 22.2230 55.46 78.30 7.59
17225 22.2240 62.77 78.70 8.04
17226 22.2250 76.63 79.11 8.83
17227 22.2260 65.01 79.49 8.16
17228 22.2270 61.60 79.76 7.96
17229 22.2280 74.46 79.91 8.79
17230 22.2290 76.47 79.96 8.82
17231 22.2300 63.81 79.96 8.07
17232 22.2310 80.02 79.89 9.03
17233 22.2320 77.71 79.70 8.99
17234 22.2330 65.82 79.37 8.29
17235 22.2340 71.02 78.95 8.56
17236 22.2350 70.16 78.50 8.46
17237 22.2360 72.95 78.09 8.63
17238 22.2370 69.67 77.75 8.46
17239 22.2380 56.77 77.46 7.62
17240 22.2390 72.59 77.23 8.59
17241 22.2400 64.32 77.05 8.05
17242 22.2410 76.38 76.90 8.81
17243 22.2420 66.00 76.79 8.28
17244 22.2430 61.97 76.69 7.99
17245 22.2440 65.61 76.62 8.24
17246 22.2450 46.45 76.55 6.90
17247 22.2460 72.30 76.50 8.59
17248 22.2470 72.08 76.45 8.58
17249 22.2480 81.48 76.41 9.14
17250 22.2490 68.07 76.38 8.32
17251 22.2500 75.61 76.34 8.73
17252 22.2510 62.90 76.31 8.02
17253 22.2520 65.42 76.29 8.22
17254 22.2530 46.05 76.26 6.95
17255 22.2540 67.71 76.24 8.36
17256 22.2550 60.43 76.22 7.89
17257 22.2560 56.98 76.20 7.63
17258 22.2570 70.28 76.18 8.50
17259 22.2580 62.34 76.17 8.02
17260 22.2590 60.26 76.15 7.82
17261 22.2600 65.59 76.14 8.14
17262 22.2610 64.53 76.12 8.07
17263 22.2620 56.30 76.11 7.63
17264 22.2630 56.86 76.09 7.64
17265 22.2640 68.46 76.08 8.38
17266 22.2650 66.81 76.07 8.26
17267 22.2660 72.03 76.06 8.54
17268 22.2670 76.56 76.04 8.84
17269 22.2680 71.73 76.03 8.58
17270 22.2690 75.65 76.02 8.78
17271 22.2700 60.06 76.01 7.79
17272 22.2710 68.16 76.00 8.32
17273 22.2720 64.54 75.99 8.15
17274 22.2730 68.79 75.98 8.43
17275 22.2740 75.06 75.97 8.78
17276 22.2750 67.13 75.96 8.27
17277 22.2760 68.65 75.95 8.34
17278 22.2770 67.80 75.94 8.33
17279 22.2780 73.35 75.93 8.67
17280 22.2790 71.88 75.92 8.55
17281 22.2800 68.19 75.90 8.31
17282 22.2810 66.21 75.89 8.25
17283 22.2820 53.95 75.87 7.49
17284 22.2830 67.56 75.85 8.39
17285 22.2840 57.98 75.85 7.75
17286 22.2850 61.77 75.84 7.93
17287 22.2860 71.02 75.83 8.51
17288 22.2870 50.67 75.82 7.19
17289 22.2880 68.56 75.81 8.37
17290 22.2890 73.42 75.80 8.63
17291 22.2900 63.42 75.79 7.99
17292 22.2910 71.74 75.79 8.53
17293 22.2920 60.41 75.78 7.88
17294 22.2930 62.07 75.77 8.04
17295 22.2940 62.73 75.76 8.07
17296 22.2950 50.02 75.75 7.15
17297 22.2960 60.84 75.74 7.87
17298 22.2970 57.21 75.74 7.65
17299 22.2980 75.72 75.73 8.78
17300 22.2990 76.49 75.72 8.81
17301 22.3000 76.05 75.71 8.76
17302 22.3010 73.05 75.70 8.61
17303 22.3020 75.96 75.70 8.83
17304 22.3030 74.99 75.69 8.84
17305 22.3040 52.61 75.68 7.36
17306 22.3050 57.43 75.67 7.66
17307 22.3060 72.69 75.66 8.63
17308 22.3070 62.50 75.66 8.02
17309 22.3080 70.82 75.65 8.52
17310 22.3090 55.34 75.54 7.51
17311 22.3100 81.22 75.54 9.05
17312 22.3110 71.91 75.53 8.53
17313 22.3120 64.11 75.53 8.10
17314 22.3130 56.58 75.52 7.68
17315 22.3140 54.34 75.51 7.47
17316 22.3150 67.67 75.51 8.31
17317 22.3160 55.10 75.50 7.48
17318 22.3170 69.68 75.50 8.42
17319 22.3180 70.70 75.49 8.53
17320 22.3190 73.15 75.49 8.61
17321 22.3200 62.35 75.49 7.94
17322 22.3210 66.46 75.48 8.15
17323 22.3220 49.52 75.47 7.13
17324 22.3230 73.03 75.47 8.67
17325 22.3240 74.33 75.46 8.72
17326 22.3250 62.43 75.45 7.96
17327 22.3260 75.02 75.44 8.77
17328 22.3270 60.89 75.43 7.93
17329 22.3280 59.59 75.42 7.84
17330 22.3290 67.58 75.41 8.31
17331 22.3300 65.34 75.40 8.16
17332 22.3310 62.33 75.39 7.94
17333 22.3320 63.10 75.38 8.04
17334 22.3330 69.16 75.38 8.48
17335 22.3340 66.24 75.37 8.23
17336 22.3350 67.65 75.36 8.26
17337 22.3360 63.53 75.35 8.02
17338 22.3370 62.70 75.35 7.99
17339 22.3380 67.25 75.34 8.29
17340 22.3390 62.59 75.33 7.97
17341 22.3400 56.08 75.32 7.53
17342 22.3410 69.77 75.32 8.39
17343 22.3420 62.69 75.31 8.00
17344 22.3430 62.89 75.30 8.04
17345 22.3440 72.14 75.30 8.57
17346 22.3450 62.96 75.29 8.00
17347 22.3460 63.66 75.28 8.06
17348 22.3470 61.96 75.27 7.94
17349 22.3480 65.68 75.27 8.20
17350 22.3490 62.67 75.26 8.01
17351 22.3500 63.96 75.25 8.07
17352 22.3510 54.42 75.25 7.43
17353 22.3520 56.21 75.24 7.61
17354 22.3530 80.57 75.23 9.12
17355 22.3540 64.48 75.23 8.13
17356 22.3550 57.60 75.22 7.67
17357 22.3560 64.63 75.21 8.11
17358 22.3570 61.31 75.20 7.93
17359 22.3580 55.64 75.20 7.57
17360 22.3590 61.53 75.19 7.89
17361 22.3600 75.92 75.18 8.73
17362 22.3610 65.32 75.18 8.11
17363 22.3620 55.02 75.17 7.52
17364 22.3630 56.67 75.16 7.65
17365 22.3640 60.49 75.16 7.85
17366 22.3650 61.08 75.15 7.89
17367 22.3660 69.16 75.14 8.41
17368 22.3670 60.58 75.13 7.84
17369 22.3680 86.32 75.13 9.36
17370 22.3690 62.19 75.12 7.93
17371 22.3700 71.64 75.11 8.48
17372 22.3710 63.36 75.11 8.00
17373 22.3720 63.53 75.10 8.07
17374 22.3730 67.38 75.09 8.33
17375 22.3740 63.30 75.09 8.10
17376 22.3750 59.80 75.08 7.81
17377 22.3760 67.12 75.07 8.26
17378 22.3770 77.32 75.07 8.89
17379 22.3780 71.53 75.06 8.56
17380 22.3790 60.57 75.05 7.83
17381 22.3800 70.12 75.04 8.40
17382 22.3810 71.96 75.04 8.53
17383 22.3820 82.54 75.03 9.24
17384 22.3830 70.01 75.02 8.50
17385 22.3840 52.34 75.02 7.31
17386 22.3850 62.45 75.01 7.96
17387 22.3860 51.62 75.00 7.24
17388 22.3870 53.75 75.00 7.39
17389 22.3880 59.29 74.99 7.78
17390 22.3890 55.00 74.98 7.48
17391 22.3900 79.99 74.97 8.97
17392 22.3910 71.39 74.97 8.52
17393 22.3920 63.95 74.96 8.12
17394 22.3930 61.83 74.95 7.99
17395 22.3940 54.52 74.95 7.50
17396 22.3950 67.17 74.94 8.25
17397 22.3960 67.39 74.93 8.26
17398 22.3970 60.76 74.93 7.84
17399 22.3980 72.03 74.92 8.60
17400 22.3990 65.61 74.91 8.15
17401 22.4000 60.15 74.91 7.82
17402 22.4010 65.00 74.90 8.14
17403 22.4020 60.02 74.89 7.87
17404 22.4030 65.95 74.88 8.27
17405 22.4040 52.54 74.88 7.37
17406 22.4050 58.78 74.87 7.75
17407 22.4060 48.39 74.86 7.03
17408 22.4070 57.90 74.86 7.70
17409 22.4080 68.94 74.85 8.43
17410 22.4090 67.57 74.84 8.27
17411 22.4100 75.09 74.84 8.68
17412 22.4110 76.47 74.83 8.75
17413 22.4120 68.09 74.82 8.34
17414 22.4130 66.30 74.82 8.27
17415 22.4140 54.25 74.81 7.46
17416 22.4150 59.13 74.80 7.74
17417 22.4160 61.17 74.79 7.89
17418 22.4170 69.79 74.79 8.44
17419 22.4180 55.96 74.78 7.58
17420 22.4190 66.85 74.77 8.23
17421 22.4200 62.05 74.77 7.89
17422 22.4210 68.10 74.76 8.28
17423 22.4220 56.82 74.75 7.66
17424 22.4230 48.57 74.75 7.13
17425 22.4240 67.89 74.74 8.37
17426 22.4250 61.96 74.73 7.94
17427 22.4260 82.91 74.72 9.21
17428 22.4270 68.48 74.72 8.34
17429 22.4280 67.54 74.71 8.34
17430 22.4290 61.62 74.70 7.88
17431 22.4300 78.47 74.70 8.92
17432 22.4310 72.28 74.69 8.56
17433 22.4320 68.12 74.68 8.34
17434 22.4330 58.96 74.68 7.81
17435 22.4340 57.72 74.67 7.70
17436 22.4350 62.03 74.66 7.92
17437 22.4360 70.66 74.66 8.44
17438 22.4370 67.17 74.65 8.30
17439 22.4380 74.01 74.64 8.69
17440 22.4390 72.02 74.63 8.54
17441 22.4400 61.39 74.63 7.85
17442 22.4410 59.84 74.62 7.79
17443 22.4420 67.44 74.61 8.34
17444 22.4430 74.11 74.61 8.75
17445 22.4440 62.56 74.60 7.98
17446 22.4450 55.01 74.59 7.47
17447 22.4460 67.44 74.59 8.27
17448 22.4470 68.68 74.58 8.36
17449 22.4480 61.67 74.57 7.96
17450 22.4490 64.45 74.56 8.08
17451 22.4500 64.92 74.56 8.12
17452 22.4510 72.30 74.55 8.55
17453 22.4520 56.62 74.54 7.66
17454 22.4530 58.05 74.54 7.78
17455 22.4540 65.40 74.53 8.19
17456 22.4550 65.41 74.52 8.15
17457 22.4560 58.91 74.52 7.74
17458 22.4570 63.61 74.51 8.08
17459 22.4580 71.10 74.50 8.50
17460 22.4590 76.88 74.50 8.81
17461 22.4600 65.04 74.49 8.09
17462 22.4610 70.04 74.48 8.42
17463 22.4620 70.10 74.47 8.50
17464 22.4630 75.77 74.47 8.83
17465 22.4640 77.17 74.46 8.89
17466 22.4650 53.02 74.45 7.36
17467 22.4660 61.92 74.45 7.95
17468 22.4670 62.78 74.44 8.03
17469 22.4680 71.00 74.43 8.52
17470 22.4690 67.73 74.43 8.28
17471 22.4700 58.74 74.42 7.73
17472 22.4710 70.76 74.41 8.43
17473 22.4720 72.51 74.40 8.65
17474 22.4730 71.79 74.40 8.62
17475 22.4740 58.68 74.39 7.80
17476 22.4750 69.46 74.38 8.46
17477 22.4760 60.30 74.38 7.84
17478 22.4770 71.50 74.37 8.58
17479 22.4780 62.44 74.36 8.04
17480 22.4790 60.75 74.36 7.88
17481 22.4800 53.74 74.35 7.38
17482 22.4810 53.24 74.34 7.36
17483 22.4820 59.44 74.34 7.82
17484 22.4830 56.12 74.33 7.63
17485 22.4840 57.67 74.32 7.71
17486 22.4850 59.47 74.31 7.80
17487 22.4860 84.55 74.31 9.26
17488 22.4870 61.37 74.30 7.92
17489 22.4880 61.08 74.29 7.91
17490 22.4890 68.04 74.29 8.33
17491 22.4900 76.77 74.28 8.82
17492 22.4910 66.69 74.27 8.22
17493 22.4920 72.69 74.27 8.61
17494 22.4930 53.03 74.26 7.41
17495 22.4940 68.78 74.25 8.41
17496 22.4950 63.28 74.24 8.04
17497 22.4960 61.44 74.24 7.91
17498 22.4970 67.15 74.23 8.29
17499 22.4980 74.15 74.22 8.76
17500 22.4990 60.22 74.22 7.81
17501 22.5000 71.94 74.21 8.52
17502 22.5010 73.75 74.20 8.66
17503 22.5020 72.58 74.20 8.65
17504 22.5030 73.01 74.19 8.72
17505 22.5040 64.43 74.18 8.17
17506 22.5050 62.55 74.17 7.97
17507 22.5060 49.39 74.17 7.13
17508 22.5070 64.47 74.16 8.12
17509 22.5080 61.37 74.15 7.96
17510 22.5090 68.07 74.15 8.29
17511 22.5100 77.60 74.14 8.86
17512 22.5110 59.92 74.13 7.80
17513 22.5120 89.75 74.13 9.60
17514 22.5130 85.80 74.12 9.41
17515 22.5140 67.39 74.11 8.32
17516 22.5150 76.82 74.10 8.89
17517 22.5160 58.04 74.10 7.70
17518 22.5170 68.83 74.09 8.40
17519 22.5180 61.36 74.08 7.90
17520 22.5190 55.98 74.08 7.55
17521 22.5200 66.90 74.07 8.19
17522 22.5210 69.15 74.06 8.36
17523 22.5220 58.23 74.06 7.75
17524 22.5230 59.78 74.05 7.86
17525 22.5240 59.07 74.04 7.83
17526 22.5250 62.74 74.03 8.02
17527 22.5260 60.82 74.03 7.91
17528 22.5270 60.10 74.02 7.85
17529 22.5280 64.90 74.01 8.21
17530 22.5290 71.23 74.01 8.51
17531 22.5300 64.97 74.00 8.11
17532 22.5310 55.79 73.99 7.54
17533 22.5320 62.50 73.98 8.04
17534 22.5330 66.91 73.98 8.34
17535 22.5340 59.12 73.97 7.78
17536 22.5350 66.20 73.96 8.19
17537 22.5360 54.86 73.96 7.46
17538 22.5370 66.67 73.95 8.25
17539 22.5380 57.24 73.94 7.67
17540 22.5390 67.76 73.94 8.29
17541 22.5400 72.37 73.93 8.56
17542 22.5410 63.54 73.92 8.04
17543 22.5420 71.91 73.91 8.59
17544 22.5430 62.92 73.91 8.08
17545 22.5440 64.54 73.90 8.12
17546 22.5450 62.97 73.89 8.01
17547 22.5460 69.48 73.89 8.41
17548 22.5470 60.88 73.88 7.91
17549 22.5480 47.66 73.87 7.04
17550 22.5490 65.77 73.87 8.20
17551 22.5500 55.78 73.86 7.55
17552 22.5510 66.74 73.85 8.27
17553 22.5520 69.50 73.85 8.48
17554 22.5530 59.44 73.84 7.87
17555 22.5540 71.00 73.83 8.56
17556 22.5550 73.10 73.82 8.65
17557 22.5560 70.47 73.82 8.46
17558 22.5570 74.97 73.81 8.78
17559 22.5580 56.09 73.80 7.62
17560 22.5590 62.91 73.80 8.00
17561 22.5600 67.15 73.79 8.22
17562 22.5610 61.97 73.78 7.92
17563 22.5620 66.68 73.78 8.31
17564 22.5630 69.81 73.77 8.53
17565 22.5640 77.85 73.76 8.94
17566 22.5650 65.34 73.76 8.19
17567 22.5660 68.70 73.75 8.37
17568 22.5670 63.11 73.74 8.07
17569 22.5680 66.24 73.73 8.26
17570 22.5690 61.10 73.73 7.87
17571 22.5700 57.44 73.72 7.64
17572 22.5710 53.04 73.71 7.37
17573 22.5720 67.54 73.71 8.34
17574 22.5730 62.89 73.70 8.09
17575 22.5740 69.56 73.70 8.50
17576 22.5750 58.84 73.69 7.78
17577 22.5760 65.26 73.68 8.14
17578 22.5770 68.70 73.68 8.40
17579 22.5780 72.26 73.67 8.65
17580 22.5790 55.91 73.67 7.56
17581 22.5800 58.12 73.67 7.68
17582 22.5810 65.55 73.66 8.17
17583 22.5820 66.92 73.66 8.31
17584 22.5830 58.14 73.66 7.76
17585 22.5840 71.30 73.66 8.57
17586 22.5850 70.65 73.66 8.50
17587 22.5860 70.82 73.65 8.49
17588 22.5870 66.06 73.65 8.22
17589 22.5880 76.45 73.64 8.86
17590 22.5890 75.01 73.63 8.70
17591 22.5900 53.27 73.61 7.35
17592 22.5910 64.14 73.60 8.08
17593 22.5920 61.28 73.59 7.95
17594 22.5930 62.35 73.58 8.05
17595 22.5940 59.46 73.56 7.83
17596 22.5950 73.55 73.55 8.70
17597 22.5960 70.17 73.55 8.47
17598 22.5970 66.85 73.54 8.29
17599 22.5980 70.15 73.53 8.48
17600 22.5990 64.22 73.52 8.11
17601 22.6000 65.12 73.51 8.11
17602 22.6010 49.64 73.50 7.14
17603 22.6020 64.25 73.50 8.15
17604 22.6030 78.01 73.49 9.02
17605 22.6040 52.74 73.48 7.40
17606 22.6050 58.45 73.47 7.76
17607 22.6060 85.28 73.47 9.33
17608 22.6070 74.39 73.46 8.72
17609 22.6080 78.45 73.45 8.93
17610 22.6090 52.47 73.45 7.30
17611 22.6100 63.77 73.44 8.01
17612 22.6110 62.09 73.43 7.93
17613 22.6120 58.59 73.42 7.77
17614 22.6130 72.64 73.42 8.70
17615 22.6140 55.78 73.41 7.60
17616 22.6150 71.79 73.40 8.58
17617 22.6160 51.57 73.39 7.26
17618 22.6170 70.16 73.39 8.49
17619 22.6180 64.31 73.38 8.12
17620 22.6190 73.76 73.37 8.68
17621 22.6200 56.43 73.37 7.55
17622 22.6210 57.14 73.36 7.62
17623 22.6220 63.13 73.35 8.07
17624 22.6230 72.98 73.35 8.74
17625 22.6240 60.30 73.34 7.91
17626 22.6250 60.60 73.33 7.89
17627 22.6260 53.73 73.32 7.44
17628 22.6270 66.43 73.32 8.28
17629 22.6280 61.14 73.31 7.96
17630 22.6290 73.03 73.30 8.61
17631 22.6300 69.10 73.30 8.38
17632 22.6310 80.80 73.29 9.06
17633 22.6320 57.51 73.28 7.70
17634 22.6330 53.89 73.28 7.46
17635 22.6340 53.93 73.27 7.43
17636 22.6350 73.92 73.26 8.68
17637 22.6360 68.55 73.26 8.37
17638 22.6370 68.04 73.25 8.36
17639 22.6380 59.61 73.24 7.85
17640 22.6390 63.30 73.23 8.03
17641 22.6400 58.93 73.23 7.73
17642 22.6410 66.26 73.22 8.21
17643 22.6420 79.40 73.21 9.04
17644 22.6430 61.22 73.21 7.96
17645 22.6440 62.30 73.20 8.01
17646 22.6450 55.15 73.19 7.50
17647 22.6460 69.51 73.19 8.42
17648 22.6470 64.70 73.18 8.17
17649 22.6480 64.71 73.17 8.17
17650 22.6490 59.49 73.16 7.79
17651 22.6500 59.77 73.16 7.80
17652 22.6510 68.60 73.15 8.36
17653 22.6520 64.48 73.14 8.14
17654 22.6530 80.93 73.14 9.18
17655 22.6540 67.63 73.13 8.34
17656 22.6550 65.19 73.12 8.18
17657 22.6560 53.38 73.11 7.38
17658 22.6570 65.11 73.11 8.18
17659 22.6580 66.17 73.10 8.25
17660 22.6590 66.29 73.09 8.19
17661 22.6600 64.59 73.09 8.08
17662 22.6610 62.18 73.08 7.93
17663 22.6620 63.65 73.07 8.11
17664 22.6630 61.17 73.07 8.01
17665 22.6640 55.64 73.06 7.56
17666 22.6650 66.77 73.05 8.26
17667 22.6660 59.58 73.04 7.79
17668 22.6670 52.55 73.04 7.32
17669 22.6680 59.16 73.03 7.80
17670 22.6690 57.69 73.02 7.66
17671 22.6700 67.86 73.02 8.29
17672 22.6710 81.19 73.01 9.10
17673 22.6720 58.42 73.00 7.76
17674 22.6730 64.47 72.99 8.19
17675 22.6740 40.81 72.99 6.51
17676 22.6750 48.79 72.98 7.08
17677 22.6760 67.97 72.97 8.32
17678 22.6770 74.92 72.97 8.77
17679 22.6780 54.08 72.96 7.48
17680 22.6790 86.34 72.95 9.39
17681 22.6800 60.45 72.94 7.84
17682 22.6810 59.88 72.94 7.80
17683 22.6820 58.46 72.93 7.75
17684 22.6830 64.93 72.92 8.22
17685 22.6840 63.65 72.92 8.10
17686 22.6850 74.52 72.91 8.70
17687 22.6860 56.35 72.90 7.57
17688 22.6870 69.41 72.90 8.44
17689 22.6880 76.58 72.89 8.88
17690 22.6890 68.34 72.88 8.32
17691 22.6900 60.90 72.87 7.85
17692 22.6910 69.86 72.87 8.44
17693 22.6920 60.18 72.86 7.87
17694 22.6930 60.98 72.85 7.93
17695 22.6940 68.05 72.85 8.38
17696 22.6950 73.07 72.84 8.64
17697 22.6960 62.38 72.83 7.98
17698 22.6970 69.59 72.82 8.43
17699 22.6980 69.31 72.82 8.45
17700 22.6990 64.85 72.81 8.15
17701 22.7000 56.37 72.80 7.57
17702 22.7010 65.02 72.80 8.12
17703 22.7020 70.10 72.79 8.51
17704 22.7030 66.73 72.78 8.34
17705 22.7040 56.72 72.78 7.67
17706 22.7050 65.21 72.77 8.17
17707 22.7060 70.48 72.76 8.49
17708 22.7070 65.96 72.75 8.23
17709 22.7080 64.53 72.75 8.12
17710 22.7090 64.22 72.74 8.06
17711 22.7100 63.39 72.73 8.00
17712 22.7110 68.31 72.73 8.34
17713 22.7120 70.01 72.72 8.48
17714 22.7130 74.81 72.71 8.83
17715 22.7140 74.45 72.70 8.75
17716 22.7150 82.55 72.70 9.17
17717 22.7160 61.26 72.69 7.90
17718 22.7170 69.29 72.68 8.43
17719 22.7180 59.72 72.68 7.82
17720 22.7190 65.86 72.67 8.16
17721 22.7200 63.11 72.66 8.00
17722 22.7210 59.46 72.66 7.76
17723 22.7220 51.69 72.65 7.32
17724 22.7230 61.66 72.64 8.01
17725 22.7240 71.28 72.64 8.56
17726 22.7250 76.29 72.63 8.84
17727 22.7260 61.26 72.62 7.91
17728 22.7270 76.84 72.61 8.88
17729 22.7280 66.61 72.61 8.29
17730 22.7290 59.75 72.60 7.80
17731 22.7300 77.73 72.59 8.86
17732 22.7310 72.20 72.59 8.55
17733 22.7320 72.97 72.58 8.65
17734 22.7330 60.03 72.57 7.88
17735 22.7340 70.47 72.57 8.50
17736 22.7350 68.24 72.56 8.34
17737 22.7360 68.07 72.55 8.31
17738 22.7370 58.76 72.54 7.76
17739 22.7380 41.37 72.54 6.55
17740 22.7390 56.44 72.53 7.57
17741 22.7400 61.06 72.52 7.87
17742 22.7410 58.78 72.52 7.69
17743 22.7420 51.36 72.51 7.27
17744 22.7430 51.63 72.50 7.31
17745 22.7440 54.22 72.50 7.50
17746 22.7450 65.62 72.49 8.17
17747 22.7460 69.69 72.48 8.43
17748 22.7470 65.95 72.47 8.25
17749 22.7480 75.22 72.47 8.81
17750 22.7490 62.75 72.46 8.01
17751 22.7500 72.01 72.45 8.52
17752 22.7510 79.61 72.45 9.02
17753 22.7520 49.27 72.44 7.14
17754 22.7530 63.85 72.43 8.13
17755 22.7540 54.32 72.42 7.47
17756 22.7550 66.70 72.42 8.25
17757 22.7560 68.55 72.41 8.36
17758 22.7570 69.95 72.40 8.45
17759 22.7580 66.86 72.40 8.26
17760 22.7590 59.78 72.39 7.79
17761 22.7600 62.78 72.38 7.98
17762 22.7610 63.86 72.38 8.04
17763 22.7620 58.98 72.37 7.81
17764 22.7630 59.33 72.36 7.86
17765 22.7640 54.74 72.35 7.51
17766 22.7650 67.87 72.35 8.31
17767 22.7660 75.90 72.34 8.77
17768 22.7670 68.42 72.33 8.39
17769 22.7680 67.18 72.33 8.28
17770 22.7690 52.86 72.32 7.35
17771 22.7700 73.87 72.31 8.64
17772 22.7710 65.43 72.31 8.17
17773 22.7720 69.82 72.30 8.49
17774 22.7730 66.19 72.29 8.33
17775 22.7740 67.93 72.28 8.36
17776 22.7750 58.22 72.28 7.75
17777 22.7760 64.44 72.27 8.10
17778 22.7770 74.15 72.26 8.73
17779 22.7780 68.88 72.26 8.39
17780 22.7790 72.90 72.25 8.62
17781 22.7800 71.66 72.24 8.52
17782 22.7810 53.37 72.24 7.37
17783 22.7820 55.12 72.23 7.52
17784 22.7830 58.78 72.22 7.83
17785 22.7840 61.23 72.21 7.92
17786 22.7850 62.98 72.21 8.01
17787 22.7860 61.32 72.20 7.88
17788 22.7870 70.12 72.19 8.47
17789 22.7880 70.24 72.19 8.50
17790 22.7890 70.72 72.18 8.47
17791 22.7900 67.32 72.17 8.23
17792 22.7910 68.16 72.17 8.34
17793 22.7920 70.61 72.16 8.51
17794 22.7930 46.76 72.15 6.98
17795 22.7940 58.46 72.15 7.76
17796 22.7950 74.25 72.14 8.73
17797 22.7960 71.89 72.13 8.56
17798 22.7970 73.43 72.12 8.68
17799 22.7980 69.51 72.12 8.47
17800 22.7990 70.89 72.11 8.52
17801 22.8000 57.32 72.10 7.60
17802 22.8010 69.26 72.10 8.34
17803 22.8020 65.34 72.09 8.19
17804 22.8030 57.94 72.08 7.77
17805 22.8040 64.36 72.08 8.13
17806 22.8050 83.83 72.07 9.24
17807 22.8060 72.82 72.06 8.59
17808 22.8070 69.84 72.06 8.46
17809 22.8080 60.31 72.05 7.86
17810 22.8090 60.51 72.04 7.83
17811 22.8100 71.50 72.04 8.45
17812 22.8110 57.97 72.03 7.67
17813 22.8120 58.28 72.02 7.74
17814 22.8130 67.43 72.02 8.37
17815 22.8140 70.84 72.01 8.52
17816 22.8150 66.40 72.01 8.26
17817 22.8160 65.90 72.00 8.16
17818 22.8170 55.78 71.99 7.56
17819 22.8180 67.76 71.99 8.34
17820 22.8190 68.07 71.98 8.30
17821 22.8200 65.84 71.97 8.14
17822 22.8210 50.91 71.97 7.19
17823 22.8220 57.66 71.96 7.69
17824 22.8230 54.86 71.95 7.56
17825 22.8240 72.49 71.95 8.63
17826 22.8250 79.53 71.94 9.00
17827 22.8260 67.54 71.93 8.26
17828 22.8270 67.41 71.93 8.30
17829 22.8280 69.56 71.92 8.45
17830 22.8290 66.69 71.91 8.25
17831 22.8300 65.00 71.91 8.08
17832 22.8310 60.68 71.90 7.82
17833 22.8320 48.39 71.89 7.05
17834 22.8330 64.41 71.89 8.14
17835 22.8340 70.03 71.88 8.46
17836 22.8350 63.95 71.87 8.08
17837 22.8360 73.94 71.87 8.65
17838 22.8370 66.69 71.86 8.30
17839 22.8380 65.85 71.85 8.22
17840 22.8390 56.10 71.85 7.55
17841 22.8400 62.33 71.84 7.91
17842 22.8410 66.48 71.84 8.17
17843 22.8420 76.22 71.83 8.82
17844 22.8430 58.16 71.82 7.77
17845 22.8440 57.81 71.82 7.70
17846 22.8450 66.72 71.81 8.25
17847 22.8460 60.76 71.80 7.89
17848 22.8470 64.17 71.80 8.13
17849 22.8480 66.38 71.79 8.24
17850 22.8490 71.88 71.79 8.54
17851 22.8500 51.75 71.78 7.22
17852 22.8510 65.68 71.77 8.16
17853 22.8520 81.80 71.77 9.11
17854 22.8530 61.56 71.76 7.97
17855 22.8540 56.88 71.79 7.64
17856 22.8550 60.99 71.79 7.88
17857 22.8560 60.31 71.82 7.81
17858 22.8570 70.74 71.85 8.48
17859 22.8580 62.28 71.84 7.96
17860 22.8590 69.24 71.84 8.37
17861 22.8600 67.38 71.83 8.23
17862 22.8610 77.36 71.83 8.85
17863 22.8620 56.39 71.82 7.60
17864 22.8630 59.31 71.82 7.86
17865 22.8640 66.25 71.81 8.26
17866 22.8650 56.08 71.81 7.56
17867 22.8660 57.54 71.80 7.62
17868 22.8670 48.88 71.80 7.07
17869 22.8680 77.30 71.80 8.89
17870 22.8690 89.46 71.79 9.50
17871 22.8700 63.23 71.79 8.00
17872 22.8710 68.62 71.78 8.35
17873 22.8720 62.76 71.78 8.05
17874 22.8730 62.29 71.78 8.05
17875 22.8740 67.21 71.77 8.30
17876 22.8750 60.44 71.77 7.85
17877 22.8760 75.47 71.77 8.74
17878 22.8770 67.47 71.76 8.31
17879 22.8780 75.73 71.76 8.84
17880 22.8790 63.89 71.76 8.03
17881 22.8800 71.35 71.75 8.47
17882 22.8810 76.87 71.75 8.81
17883 22.8820 62.04 71.75 7.98
17884 22.8830 68.89 71.75 8.44
17885 22.8840 75.34 71.75 8.78
17886 22.8850 65.19 71.74 8.13
17887 22.8860 63.30 71.74 8.03
17888 22.8870 62.94 71.74 8.04
17889 22.8880 62.33 71.74 7.99
17890 22.8890 52.38 71.74 7.27
17891 22.8900 63.44 71.74 7.98
17892 22.8910 51.39 71.74 7.21
17893 22.8920 67.51 71.74 8.29
17894 22.8930 70.98 71.75 8.57
17895 22.8940 69.45 71.75 8.45
17896 22.8950 70.07 71.75 8.48
17897 22.8960 60.41 71.75 7.86
17898 22.8970 68.00 71.76 8.35
17899 22.8980 70.04 71.76 8.49
17900 22.8990 59.33 71.77 7.77
17901 22.9000 62.33 71.78 7.93
17902 22.9010 74.62 71.79 8.69
17903 22.9020 64.86 71.80 8.15
17904 22.9030 56.12 71.81 7.64
17905 22.9040 72.54 71.82 8.61
17906 22.9050 61.68 71.84 7.92
17907 22.9060 68.01 71.85 8.30
17908 22.9070 67.25 71.87 8.32
17909 22.9080 74.11 71.90 8.69
17910 22.9090 54.63 71.92 7.46
17911 22.9100 52.57 71.95 7.28
17912 22.9110 71.79 71.98 8.53
17913 22.9120 75.08 72.02 8.82
17914 22.9130 78.53 72.07 8.99
17915 22.9140 65.68 72.12 8.23
17916 22.9150 78.47 72.18 8.94
17917 22.9160 77.72 72.25 8.87
17918 22.9170 72.02 72.33 8.59
17919 22.9180 61.70 72.43 7.95
17920 22.9190 66.23 72.55 8.24
17921 22.9200 76.00 72.69 8.73
17922 22.9210 67.02 72.87 8.25
17923 22.9220 64.74 73.08 8.16
17924 22.9230 51.05 73.35 7.27
17925 22.9240 80.32 73.69 9.10
17926 22.9250 73.23 74.13 8.61
17927 22.9260 65.43 74.69 8.16
17928 22.9270 55.70 75.41 7.56
17929 22.9280 58.43 76.31 7.76
17930 22.9290 58.36 77.42 7.68
17931 22.9300 77.76 78.75 8.84
17932 22.9310 77.43 80.24 8.85
17933 22.9320 72.60 81.72 8.64
17934 22.9330 56.54 82.92 7.66
17935 22.9340 77.85 83.52 8.94
17936 22.9350 63.90 83.34 8.09
17937 22.9360 75.50 82.49 8.77
17938 22.9370 80.64 81.21 9.09
17939 22.9380 71.21 79.77 8.54
17940 22.9390 77.96 78.36 8.88
17941 22.9400 63.31 77.10 7.98
17942 22.9410 54.91 76.04 7.44
17943 22.9420 66.48 75.18 8.27
17944 22.9430 67.61 74.49 8.39
17945 22.9440 65.16 73.95 8.21
17946 22.9450 73.22 73.52 8.65
17947 22.9460 66.80 73.18 8.24
17948 22.9470 49.95 72.92 7.16
17949 22.9480 52.62 72.70 7.38
17950 22.9490 60.81 72.52 7.87
17951 22.9500 66.03 72.38 8.18
17952 22.9510 61.41 72.25 7.90
17953 22.9520 74.91 72.15 8.80
17954 22.9530 64.71 72.06 8.23
17955 22.9540 59.87 71.98 7.85
17956 22.9550 57.28 71.91 7.65
17957 22.9560 66.22 71.85 8.20
17958 22.9570 59.10 71.80 7.77
17959 22.9580 70.78 71.76 8.49
17960 22.9590 69.57 71.71 8.40
17961 22.9600 65.59 71.68 8.13
17962 22.9610 70.01 71.64 8.42
17963 22.9620 67.25 71.61 8.33
17964 22.9630 69.18 71.59 8.44
17965 22.9640 69.10 71.56 8.42
17966 22.9650 76.10 71.54 8.80
17967 22.9660 61.84 71.52 7.95
17968 22.9670 71.43 71.50 8.58
17969 22.9680 70.64 71.48 8.54
17970 22.9690 59.24 71.46 7.78
17971 22.9700 62.90 71.45 8.00
17972 22.9710 72.95 71.44 8.59
17973 22.9720 71.11 71.42 8.58
17974 22.9730 63.96 71.41 8.15
17975 22.9740 67.56 71.40 8.33
17976 22.9750 64.73 71.39 8.15
17977 22.9760 65.04 71.38 8.15
17978 22.9770 64.25 71.38 8.13
17979 22.9780 67.77 71.37 8.35
17980 22.9790 61.49 71.36 7.89
17981 22.9800 64.48 71.36 8.08
17982 22.9810 56.25 71.35 7.54
17983 22.9820 71.53 71.35 8.58
17984 22.9830 76.43 71.35 8.89
17985 22.9840 70.32 71.34 8.52
17986 22.9850 67.13 71.34 8.28
17987 22.9860 72.70 71.34 8.61
17988 22.9870 65.57 71.34 8.22
17989 22.9880 66.75 71.34 8.30
17990 22.9890 54.05 71.35 7.45
17991 22.9900 55.85 71.35 7.52
17992 22.9910 53.33 71.35 7.36
17993 22.9920 71.78 71.36 8.59
17994 22.9930 63.14 71.36 8.10
17995 22.9940 58.52 71.37 7.79
17996 22.9950 61.52 71.38 7.93
17997 22.9960 72.08 71.39 8.59
17998 22.9970 74.02 71.41 8.72
17999 22.9980 60.80 71.42 7.89
18000 22.9990 61.17 71.44 7.87
18001 23.0000 59.87 71.46 7.80
18002 23.0010 60.86 71.49 7.83
18003 23.0020 63.09 71.52 8.06
18004 23.0030 60.53 71.55 7.93
18005 23.0040 63.22 71.59 8.06
18006 23.0050 58.75 71.64 7.74
18007 23.0060 60.53 71.70 7.84
18008 23.0070 66.91 71.77 8.25
18009 23.0080 53.96 71.85 7.44
18010 23.0090 73.37 71.94 8.61
18011 23.0100 70.75 72.07 8.45
18012 23.0110 54.93 72.22 7.46
18013 23.0120 67.20 72.41 8.35
18014 23.0130 85.36 72.65 9.39
18015 23.0140 61.53 72.96 7.95
18016 23.0150 75.89 73.34 8.82
18017 23.0160 76.20 73.83 8.81
18018 23.0170 62.82 74.41 8.02
18019 23.0180 63.66 75.10 8.09
18020 23.0190 61.34 75.86 7.89
18021 23.0200 59.61 76.60 7.79
18022 23.0210 59.72 77.21 7.76
18023 23.0220 76.29 77.62 8.86
18024 23.0230 78.60 77.83 9.05
18025 23.0240 81.00 77.87 9.12
18026 23.0250 66.53 77.72 8.22
18027 23.0260 84.24 77.36 9.26
18028 23.0270 69.53 76.77 8.42
18029 23.0280 71.17 76.03 8.54
18030 23.0290 68.53 75.27 8.36
18031 23.0300 72.47 74.55 8.58
18032 23.0310 60.93 73.95 7.86
18033 23.0320 73.29 73.44 8.67
18034 23.0330 70.91 73.04 8.56
18035 23.0340 64.49 72.72 8.17
18036 23.0350 63.48 72.47 8.04
18037 23.0360 67.12 72.28 8.28
18038 23.0370 72.90 72.12 8.65
18039 23.0380 69.56 71.99 8.48
18040 23.0390 61.38 71.89 7.90
18041 23.0400 68.67 71.81 8.33
18042 23.0410 60.59 71.75 7.84
18043 23.0420 78.26 71.69 8.97
18044 23.0430 71.70 71.65 8.62
18045 23.0440 65.17 71.61 8.19
18046 23.0450 69.45 71.58 8.42
18047 23.0460 68.64 71.55 8.38
18048 23.0470 71.37 71.53 8.56
18049 23.0480 67.94 71.51 8.35
18050 23.0490 66.31 71.50 8.22
18051 23.0500 62.28 71.49 7.92
18052 23.0510 61.25 71.48 7.87
18053 23.0520 69.87 71.47 8.48
18054 23.0530 70.28 71.47 8.52
18055 23.0540 64.52 71.47 8.14
18056 23.0550 59.76 71.47 7.82
18057 23.0560 67.30 71.47 8.29
18058 23.0570 77.05 71.47 8.84
18059 23.0580 77.04 71.48 8.88
18060 23.0590 80.79 71.48 9.04
18061 23.0600 61.32 71.49 7.88
18062 23.0610 73.19 71.50 8.58
18063 23.0620 54.01 71.51 7.44
18064 23.0630 60.67 71.52 7.94
18065 23.0640 64.03 71.54 8.11
18066 23.0650 59.51 71.55 7.77
18067 23.0660 72.53 71.57 8.60
18068 23.0670 64.16 71.59 8.08
18069 23.0680 64.22 71.61 8.14
18070 23.0690 60.85 71.63 7.85
18071 23.0700 52.77 71.65 7.32
18072 23.0710 69.73 71.68 8.40
18073 23.0720 72.18 71.70 8.62
18074 23.0730 55.48 71.73 7.58
18075 23.0740 58.21 71.76 7.72
18076 23.0750 76.45 71.79 8.83
18077 23.0760 65.69 71.82 8.18
18078 23.0770 70.55 71.86 8.46
18079 23.0780 68.75 71.90 8.40
18080 23.0790 72.05 71.94 8.56
18081 23.0800 68.60 71.98 8.32
18082 23.0810 66.97 72.03 8.20
18083 23.0820 63.46 72.08 8.06
18084 23.0830 60.97 72.13 7.96
18085 23.0840 72.31 72.18 8.58
18086 23.0850 59.94 72.24 7.82
18087 23.0860 66.06 72.31 8.17
18088 23.0870 81.59 72.37 9.12
18089 23.0880 65.41 72.45 8.19
18090 23.0890 62.91 72.52 7.97
18091 23.0900 63.85 72.61 8.01
18092 23.0910 69.87 72.70 8.39
18093 23.0920 53.18 72.80 7.40
18094 23.0930 68.36 72.90 8.44
18095 23.0940 66.81 73.02 8.27
18096 23.0950 52.05 73.14 7.31
18097 23.0960 68.51 73.28 8.38
18098 23.0970 67.62 73.43 8.31
18099 23.0980 77.10 73.60 8.88
18100 23.0990 63.73 73.78 8.04
18101 23.1000 70.67 73.99 8.44
18102 23.1010 67.50 74.22 8.26
18103 23.1020 73.32 74.48 8.67
18104 23.1030 64.94 74.78 8.20
18105 23.1040 70.72 75.13 8.51
18106 23.1050 75.67 75.54 8.77
18107 23.1060 67.09 76.02 8.24
18108 23.1070 58.79 76.60 7.75
18109 23.1080 61.07 77.31 7.92
18110 23.1090 85.21 78.18 9.28
18111 23.1100 85.97 79.27 9.29
18112 23.1110 64.85 80.61 8.08
18113 23.1120 84.14 82.27 9.27
18114 23.1130 69.10 84.28 8.48
18115 23.1140 95.26 86.64 9.87
18116 23.1150 87.76 89.25 9.45
18117 23.1160 83.06 91.90 9.18
18118 23.1170 80.25 94.28 9.04
18119 23.1180 86.88 96.01 9.44
18120 23.1190 93.92 96.85 9.74
18121 23.1200 90.43 96.65 9.55
18122 23.1210 85.79 95.44 9.30
18123 23.1220 75.01 93.50 8.77
18124 23.1230 87.48 91.24 9.52
18125 23.1240 84.16 89.05 9.29
18126 23.1250 85.28 87.15 9.32
18127 23.1260 79.33 85.63 8.96
18128 23.1270 83.13 84.50 9.21
18129 23.1280 88.36 83.72 9.50
18130 23.1290 80.05 83.23 9.01
18131 23.1300 83.24 82.98 9.15
18132 23.1310 78.64 82.94 8.90
18133 23.1320 73.73 83.08 8.68
18134 23.1330 74.15 83.38 8.75
18135 23.1340 73.32 83.81 8.68
18136 23.1350 76.09 84.38 8.79
18137 23.1360 77.53 85.07 8.89
18138 23.1370 81.18 85.91 9.13
18139 23.1380 95.17 86.89 9.86
18140 23.1390 83.82 88.03 9.22
18141 23.1400 85.32 89.35 9.27
18142 23.1410 95.08 90.88 9.81
18143 23.1420 88.31 92.64 9.51
18144 23.1430 96.64 94.67 10.01
18145 23.1440 86.99 97.02 9.47
18146 23.1450 105.14 99.78 10.35
18147 23.1460 94.68 103.00 9.81
18148 23.1470 96.04 106.82 9.90
18149 23.1480 92.29 111.39 9.72
18150 23.1490 100.29 116.89 10.05
18151 23.1500 123.88 123.63 11.14
18152 23.1510 113.71 131.99 10.71
18153 23.1520 115.48 142.46 10.87
18154 23.1530 154.72 155.68 12.63
18155 23.1540 175.14 172.49 13.37
18156 23.1550 171.76 193.83 13.22
18157 23.1560 189.82 220.64 13.85
18158 23.1570 227.98 253.93 15.19
18159 23.1580 244.46 294.02 15.81
18160 23.1590 332.40 339.88 18.28
18161 23.1600 354.22 388.38 18.83
18162 23.1610 410.82 433.30 20.40
18163 23.1620 496.51 467.16 22.53
18164 23.1630 468.39 483.17 22.05
18165 23.1640 477.89 477.60 22.09
18166 23.1650 438.19 450.99 21.12
18167 23.1660 382.22 409.07 19.66
18168 23.1670 336.63 360.24 18.51
18169 23.1680 272.21 312.07 16.67
18170 23.1690 248.03 268.94 15.83
18171 23.1700 223.25 232.78 14.95
18172 23.1710 187.96 203.34 13.77
18173 23.1720 168.37 179.87 13.11
18174 23.1730 153.48 161.37 12.59
18175 23.1740 137.16 146.78 11.82
18176 23.1750 125.51 135.28 11.29
18177 23.1760 135.04 126.11 11.72
18178 23.1770 115.02 118.74 10.83
18179 23.1780 103.30 112.73 10.26
18180 23.1790 112.46 107.77 10.70
18181 23.1800 84.18 103.61 9.17
18182 23.1810 79.84 100.10 9.02
18183 23.1820 82.88 97.09 9.21
18184 23.1830 88.29 94.50 9.55
18185 23.1840 99.33 92.25 10.06
18186 23.1850 73.11 90.28 8.66
18187 23.1860 77.01 88.55 8.81
18188 23.1870 81.33 87.03 9.13
18189 23.1880 78.35 85.67 8.94
18190 23.1890 71.95 84.46 8.57
18191 23.1900 64.36 83.38 8.06
18192 23.1910 66.36 82.41 8.22
18193 23.1920 65.65 81.53 8.22
18194 23.1930 72.74 80.73 8.70
18195 23.1940 68.81 80.01 8.41
18196 23.1950 78.46 79.35 8.96
18197 23.1960 86.99 78.75 9.38
18198 23.1970 58.81 78.20 7.80
18199 23.1980 70.42 77.70 8.49
18200 23.1990 58.31 77.23 7.70
18201 23.2000 58.97 76.80 7.72
18202 23.2010 72.86 76.41 8.59
18203 23.2020 65.08 76.04 8.16
18204 23.2030 63.00 75.70 8.08
18205 23.2040 68.33 75.38 8.40
18206 23.2050 63.33 75.08 8.03
18207 23.2060 84.66 74.81 9.29
18208 23.2070 70.12 74.55 8.46
18209 23.2080 61.67 74.31 7.95
18210 23.2090 64.96 74.08 8.15
18211 23.2100 59.23 73.87 7.74
18212 23.2110 81.32 73.67 9.10
18213 23.2120 60.47 73.48 7.89
18214 23.2130 56.53 73.30 7.70
18215 23.2140 65.58 73.13 8.21
18216 23.2150 68.11 72.97 8.36
18217 23.2160 69.32 72.82 8.40
18218 23.2170 64.86 72.67 8.15
18219 23.2180 70.86 72.54 8.53
18220 23.2190 60.76 72.41 7.85
18221 23.2200 63.91 72.29 8.00
18222 23.2210 62.28 72.17 7.95
18223 23.2220 64.98 72.06 8.17
18224 23.2230 70.20 71.95 8.52
18225 23.2240 75.57 71.85 8.80
18226 23.2250 68.64 71.75 8.35
18227 23.2260 71.57 71.66 8.52
18228 23.2270 66.86 71.57 8.28
18229 23.2280 63.28 71.48 8.02
18230 23.2290 80.96 71.40 9.06
18231 23.2300 66.85 71.32 8.20
18232 23.2310 69.49 71.25 8.41
18233 23.2320 66.68 71.17 8.25
18234 23.2330 86.55 71.10 9.47
18235 23.2340 60.29 71.04 7.86
18236 23.2350 65.54 70.97 8.19
18237 23.2360 60.49 70.91 7.85
18238 23.2370 67.60 70.85 8.33
18239 23.2380 77.33 70.79 8.91
18240 23.2390 68.43 70.73 8.34
18241 23.2400 73.72 70.68 8.62
18242 23.2410 68.50 70.63 8.35
18243 23.2420 66.49 70.57 8.25
18244 23.2430 65.80 70.53 8.26
18245 23.2440 71.65 70.48 8.56
18246 23.2450 60.41 70.43 7.85
18247 23.2460 66.66 70.39 8.25
18248 23.2470 69.76 70.34 8.42
18249 23.2480 61.27 70.30 7.92
18250 23.2490 60.48 70.26 7.83
18251 23.2500 71.30 70.22 8.46
18252 23.2510 80.63 70.18 9.01
18253 23.2520 74.36 70.14 8.73
18254 23.2530 77.19 70.11 8.96
18255 23.2540 62.48 70.07 8.03
18256 23.2550 53.97 70.04 7.45
18257 23.2560 77.73 70.00 8.91
18258 23.2570 63.82 69.97 8.10
18259 23.2580 72.17 69.94 8.60
18260 23.2590 71.97 69.90 8.58
18261 23.2600 68.92 69.87 8.35
18262 23.2610 65.79 69.84 8.19
18263 23.2620 66.44 69.81 8.30
18264 23.2630 75.82 69.79 8.88
18265 23.2640 68.00 69.76 8.37
18266 23.2650 71.99 69.73 8.59
18267 23.2660 74.86 69.70 8.72
18268 23.2670 67.83 69.68 8.37
18269 23.2680 61.57 69.65 7.93
18270 23.2690 76.92 69.63 8.86
18271 23.2700 66.20 69.60 8.20
18272 23.2710 61.75 69.58 7.93
18273 23.2720 55.41 69.55 7.56
18274 23.2730 61.56 69.53 7.98
18275 23.2740 59.63 69.51 7.83
18276 23.2750 63.56 69.48 8.05
18277 23.2760 65.09 69.46 8.15
18278 23.2770 72.97 69.44 8.67
18279 23.2780 70.70 69.42 8.52
18280 23.2790 70.85 69.40 8.49
18281 23.2800 66.19 69.38 8.18
18282 23.2810 66.71 69.36 8.24
18283 23.2820 66.05 69.35 8.24
18284 23.2830 65.68 69.33 8.27
18285 23.2840 63.44 69.31 8.10
18286 23.2850 58.58 69.29 7.74
18287 23.2860 61.19 69.27 7.90
18288 23.2870 64.40 69.25 8.13
18289 23.2880 73.56 69.23 8.68
18290 23.2890 69.53 69.22 8.44
18291 23.2900 70.96 69.20 8.45
18292 23.2910 75.81 69.18 8.76
18293 23.2920 62.72 69.16 8.05
18294 23.2930 67.29 69.15 8.38
18295 23.2940 73.39 69.13 8.68
18296 23.2950 53.22 69.11 7.39
18297 23.2960 76.95 69.10 8.84
18298 23.2970 77.94 69.08 8.91
18299 23.2980 63.76 69.07 8.09
18300 23.2990 60.93 69.05 7.88
18301 23.3000 46.55 69.03 6.86
18302 23.3010 60.11 69.02 7.82
18303 23.3020 50.90 69.00 7.26
18304 23.3030 65.48 68.99 8.27
18305 23.3040 69.21 68.97 8.45
18306 23.3050 61.38 68.96 7.95
18307 23.3060 68.88 68.94 8.37
18308 23.3070 59.08 68.93 7.80
18309 23.3080 62.73 68.92 8.01
18310 23.3090 64.70 68.90 8.13
18311 23.3100 66.40 68.89 8.20
18312 23.3110 66.73 68.87 8.26
18313 23.3120 58.07 68.86 7.76
18314 23.3130 54.78 68.85 7.56
18315 23.3140 63.55 68.83 8.10
18316 23.3150 70.41 68.82 8.49
18317 23.3160 64.46 68.81 8.12
18318 23.3170 61.28 68.79 7.92
18319 23.3180 57.96 68.78 7.72
18320 23.3190 65.62 68.77 8.16
18321 23.3200 75.14 68.75 8.72
18322 23.3210 66.03 68.74 8.19
18323 23.3220 63.97 68.73 8.12
18324 23.3230 61.33 68.72 8.00
18325 23.3240 71.36 68.70 8.58
18326 23.3250 67.52 68.69 8.33
18327 23.3260 82.55 68.68 9.20
18328 23.3270 62.61 68.67 8.02
18329 23.3280 60.71 68.65 7.88
18330 23.3290 66.34 68.64 8.24
18331 23.3300 83.15 68.63 9.18
18332 23.3310 59.30 68.62 7.75
18333 23.3320 69.04 68.61 8.40
18334 23.3330 57.87 68.59 7.76
18335 23.3340 75.18 68.58 8.80
18336 23.3350 76.68 68.57 8.88
18337 23.3360 72.93 68.56 8.62
18338 23.3370 71.05 68.55 8.56
18339 23.3380 48.83 68.54 7.09
18340 23.3390 56.47 68.53 7.60
18341 23.3400 67.45 68.52 8.25
18342 23.3410 61.25 68.50 7.89
18343 23.3420 71.59 68.49 8.60
18344 23.3430 71.14 68.48 8.60
18345 23.3440 65.83 68.47 8.26
18346 23.3450 62.53 68.46 8.00
18347 23.3460 81.33 68.45 9.10
18348 23.3470 65.60 68.44 8.20
18349 23.3480 75.83 68.43 8.81
18350 23.3490 58.78 68.42 7.73
18351 23.3500 67.75 68.41 8.30
18352 23.3510 68.15 68.40 8.32
18353 23.3520 69.99 68.39 8.50
18354 23.3530 70.90 68.38 8.62
18355 23.3540 69.85 68.37 8.50
18356 23.3550 69.49 68.36 8.43
18357 23.3560 75.05 68.35 8.78
18358 23.3570 71.96 68.34 8.58
18359 23.3580 76.93 68.33 8.89
18360 23.3590 71.57 68.32 8.54
18361 23.3600 66.61 68.31 8.25
18362 23.3610 67.54 68.30 8.31
18363 23.3620 73.01 68.29 8.71
18364 23.3630 81.70 68.28 9.23
18365 23.3640 70.61 68.27 8.56
18366 23.3650 77.11 68.26 8.87
18367 23.3660 62.57 68.25 7.98
18368 23.3670 68.22 68.24 8.38
18369 23.3680 72.03 68.23 8.58
18370 23.3690 66.19 68.22 8.22
18371 23.3700 68.22 68.21 8.32
18372 23.3710 63.56 68.20 8.03
18373 23.3720 66.44 68.19 8.29
18374 23.3730 77.20 68.18 8.94
18375 23.3740 66.42 68.17 8.27
18376 23.3750 64.38 68.16 8.11
18377 23.3760 71.13 68.15 8.54
18378 23.3770 67.24 68.14 8.30
18379 23.3780 66.44 68.13 8.29
18380 23.3790 68.60 68.13 8.38
18381 23.3800 56.21 68.12 7.56
18382 23.3810 43.63 68.11 6.67
18383 23.3820 59.95 68.10 7.86
18384 23.3830 63.19 68.09 8.12
18385 23.3840 65.10 68.08 8.22
18386 23.3850 60.85 68.07 7.92
18387 23.3860 59.92 68.06 7.83
18388 23.3870 72.90 68.05 8.68
18389 23.3880 60.32 68.04 7.87
18390 23.3890 65.42 68.03 8.15
18391 23.3900 68.11 68.03 8.31
18392 23.3910 53.34 68.02 7.36
18393 23.3920 66.12 68.01 8.26
18394 23.3930 64.83 68.00 8.23
18395 23.3940 74.40 67.99 8.75
18396 23.3950 67.03 67.98 8.29
18397 23.3960 69.67 67.97 8.42
18398 23.3970 71.53 67.96 8.57
18399 23.3980 75.11 67.96 8.78
18400 23.3990 67.52 67.95 8.32
18401 23.4000 62.78 67.94 7.96
18402 23.4010 60.42 67.93 7.86
18403 23.4020 68.13 67.92 8.38
18404 23.4030 72.30 67.91 8.70
18405 23.4040 73.64 67.90 8.74
18406 23.4050 69.39 67.90 8.46
18407 23.4060 66.22 67.89 8.21
18408 23.4070 73.16 67.88 8.68
18409 23.4080 66.27 67.87 8.25
18410 23.4090 73.87 67.86 8.67
18411 23.4100 74.07 67.85 8.65
18412 23.4110 74.46 67.85 8.73
18413 23.4120 65.83 67.84 8.24
18414 23.4130 76.34 67.83 8.93
18415 23.4140 64.45 67.82 8.16
18416 23.4150 50.22 67.81 7.18
18417 23.4160 72.94 67.80 8.63
18418 23.4170 62.87 67.80 7.99
18419 23.4180 66.55 67.79 8.26
18420 23.4190 72.31 67.78 8.60
18421 23.4200 64.14 67.77 8.08
18422 23.4210 64.08 67.76 8.07
18423 23.4220 78.74 67.76 9.02
18424 23.4230 59.32 67.75 7.85
18425 23.4240 66.36 67.74 8.30
18426 23.4250 74.92 67.73 8.76
18427 23.4260 60.85 67.72 7.90
18428 23.4270 65.57 67.71 8.21
18429 23.4280 63.35 67.70 8.10
18430 23.4290 61.03 67.69 7.88
18431 23.4300 68.91 67.69 8.34
18432 23.4310 68.45 67.68 8.36
18433 23.4320 58.56 67.67 7.77
18434 23.4330 73.39 67.66 8.75
18435 23.4340 69.59 67.65 8.47
18436 23.4350 80.87 67.65 9.15
18437 23.4360 83.63 67.64 9.25
18438 23.4370 67.50 67.63 8.35
18439 23.4380 73.35 67.62 8.68
18440 23.4390 64.18 67.62 8.09
18441 23.4400 69.23 67.61 8.37
18442 23.4410 65.88 67.60 8.20
18443 23.4420 63.94 67.59 8.10
18444 23.4430 80.03 67.59 9.13
18445 23.4440 68.17 67.58 8.39
18446 23.4450 70.94 67.57 8.51
18447 23.4460 52.08 67.56 7.27
18448 23.4470 61.24 67.56 7.92
18449 23.4480 75.62 67.55 8.77
18450 23.4490 65.99 67.54 8.22
18451 23.4500 62.07 67.53 7.94
18452 23.4510 80.89 67.53 9.08
18453 23.4520 58.15 67.52 7.76
18454 23.4530 69.79 67.51 8.55
18455 23.4540 60.89 67.51 7.89
18456 23.4550 54.82 67.50 7.50
18457 23.4560 63.64 67.49 8.05
18458 23.4570 63.74 67.48 8.10
18459 23.4580 67.74 67.48 8.34
18460 23.4590 74.61 67.47 8.73
18461 23.4600 68.27 67.46 8.34
18462 23.4610 57.27 67.46 7.65
18463 23.4620 59.10 67.45 7.82
18464 23.4630 73.42 67.44 8.71
18465 23.4640 69.09 67.43 8.43
18466 23.4650 64.65 67.43 8.13
18467 23.4660 64.78 67.42 8.15
18468 23.4670 60.18 67.41 7.87
18469 23.4680 62.53 67.41 8.03
18470 23.4690 65.81 67.40 8.19
18471 23.4700 83.23 67.35 9.17
18472 23.4710 66.74 67.35 8.24
18473 23.4720 71.50 67.31 8.56
18474 23.4730 79.88 67.27 9.10
18475 23.4740 48.80 67.26 7.11
18476 23.4750 62.68 67.25 8.04
18477 23.4760 58.87 67.25 7.77
18478 23.4770 71.72 67.24 8.60
18479 23.4780 64.13 67.24 8.11
18480 23.4790 72.57 67.23 8.57
18481 23.4800 75.06 67.23 8.69
18482 23.4810 59.96 67.22 7.81
18483 23.4820 74.63 67.22 8.78
18484 23.4830 76.40 67.21 8.92
18485 23.4840 69.74 67.20 8.51
18486 23.4850 72.94 67.20 8.65
18487 23.4860 48.95 67.19 7.10
18488 23.4870 66.42 67.19 8.28
18489 23.4880 62.76 67.18 8.00
18490 23.4890 68.69 67.18 8.35
18491 23.4900 63.18 67.17 8.00
18492 23.4910 54.36 67.17 7.45
18493 23.4920 59.56 67.16 7.84
18494 23.4930 51.74 67.16 7.33
18495 23.4940 76.25 67.15 8.87
18496 23.4950 66.78 67.15 8.28
18497 23.4960 64.79 67.14 8.12
18498 23.4970 66.34 67.14 8.21
18499 23.4980 69.25 67.14 8.40
18500 23.4990 57.75 67.13 7.64
18501 23.5000 75.83 67.13 8.76
18502 23.5010 71.83 67.12 8.53
18503 23.5020 67.66 67.12 8.34
18504 23.5030 67.23 67.12 8.39
18505 23.5040 61.67 67.11 7.97
18506 23.5050 62.36 67.11 7.97
18507 23.5060 68.01 67.10 8.34
18508 23.5070 65.37 67.10 8.18
18509 23.5080 63.52 67.10 8.10
18510 23.5090 74.33 67.10 8.70
18511 23.5100 59.51 67.09 7.80
18512 23.5110 78.54 67.09 8.96
18513 23.5120 69.35 67.09 8.47
18514 23.5130 74.58 67.08 8.78
18515 23.5140 51.07 67.08 7.23
18516 23.5150 54.03 67.08 7.46
18517 23.5160 53.76 67.08 7.44
18518 23.5170 68.11 67.08 8.30
18519 23.5180 65.31 67.08 8.20
18520 23.5190 68.90 67.07 8.37
18521 23.5200 75.54 67.07 8.72
18522 23.5210 70.53 67.07 8.43
18523 23.5220 82.22 67.07 9.15
18524 23.5230 59.89 67.15 7.89
18525 23.5240 66.14 67.15 8.27
18526 23.5250 68.95 67.22 8.40
18527 23.5260 70.93 67.29 8.56
18528 23.5270 74.42 67.29 8.72
18529 23.5280 69.90 67.30 8.48
18530 23.5290 69.19 67.30 8.37
18531 23.5300 47.41 67.30 6.93
18532 23.5310 64.62 67.31 8.08
18533 23.5320 67.32 67.31 8.32
18534 23.5330 75.03 67.32 8.83
18535 23.5340 63.46 67.33 8.11
18536 23.5350 71.33 67.33 8.56
18537 23.5360 56.68 67.34 7.63
18538 23.5370 67.92 67.35 8.35
18539 23.5380 54.54 67.36 7.50
18540 23.5390 61.87 67.37 7.92
18541 23.5400 60.70 67.38 7.85
18542 23.5410 57.36 67.39 7.62
18543 23.5420 68.53 67.40 8.39
18544 23.5430 71.06 67.41 8.62
18545 23.5440 70.82 67.43 8.55
18546 23.5450 69.25 67.45 8.44
18547 23.5460 76.22 67.46 8.80
18548 23.5470 72.07 67.48 8.59
18549 23.5480 57.47 67.50 7.69
18550 23.5490 62.05 67.53 7.95
18551 23.5500 65.82 67.55 8.18
18552 23.5510 57.78 67.58 7.70
18553 23.5520 54.04 67.60 7.49
18554 23.5530 55.02 67.64 7.59
18555 23.5540 51.35 67.67 7.29
18556 23.5550 63.66 67.71 8.06
18557 23.5560 57.97 67.75 7.68
18558 23.5570 64.77 67.79 8.16
18559 23.5580 69.35 67.84 8.45
18560 23.5590 72.44 67.89 8.62
18561 23.5600 78.29 67.95 8.91
18562 23.5610 56.56 68.01 7.60
18563 23.5620 66.61 68.08 8.30
18564 23.5630 74.31 68.16 8.79
18565 23.5640 72.35 68.25 8.63
18566 23.5650 74.34 68.34 8.73
18567 23.5660 77.21 68.45 8.89
18568 23.5670 66.00 68.57 8.23
18569 23.5680 69.64 68.70 8.46
18570 23.5690 83.98 68.85 9.23
18571 23.5700 69.87 69.01 8.39
18572 23.5710 66.89 69.20 8.22
18573 23.5720 68.85 69.42 8.42
18574 23.5730 75.70 69.66 8.86
18575 23.5740 64.42 69.94 8.16
18576 23.5750 67.82 70.27 8.38
18577 23.5760 64.55 70.65 8.17
18578 23.5770 73.46 71.10 8.71
18579 23.5780 64.56 71.63 8.17
18580 23.5790 61.83 72.27 7.91
18581 23.5800 77.65 73.05 8.87
18582 23.5810 71.32 74.01 8.52
18583 23.5820 69.34 75.21 8.50
18584 23.5830 60.97 76.70 8.00
18585 23.5840 67.06 78.57 8.36
18586 23.5850 91.68 80.91 9.74
18587 23.5860 72.89 83.84 8.66
18588 23.5870 90.72 87.40 9.65
18589 23.5880 80.92 91.61 9.11
18590 23.5890 96.21 96.35 9.87
18591 23.5900 104.12 101.26 10.24
18592 23.5910 105.64 105.90 10.38
18593 23.5920 94.41 109.89 9.86
18594 23.5930 109.70 113.01 10.69
18595 23.5940 119.12 114.94 11.06
18596 23.5950 112.60 115.13 10.70
18597 23.5960 114.46 113.07 10.76
18598 23.5970 90.59 108.92 9.63
18599 23.5980 93.73 103.50 9.81
18600 23.5990 104.70 97.79 10.34
18601 23.6000 80.43 92.50 9.07
18602 23.6010 79.75 87.93 9.03
18603 23.6020 70.83 84.16 8.56
18604 23.6030 89.20 81.10 9.65
18605 23.6040 78.30 78.67 9.00
18606 23.6050 73.56 76.74 8.68
18607 23.6060 61.00 75.21 7.93
18608 23.6070 75.50 73.99 8.84
18609 23.6080 70.54 73.01 8.57
18610 23.6090 64.28 72.22 8.15
18611 23.6100 75.90 71.56 8.78
18612 23.6110 85.77 71.01 9.36
18613 23.6120 72.98 70.55 8.69
18614 23.6130 63.71 70.15 8.11
18615 23.6140 72.40 69.81 8.66
18616 23.6150 76.14 69.51 8.84
18617 23.6160 71.68 69.26 8.57
18618 23.6170 70.53 69.03 8.51
18619 23.6180 56.15 68.83 7.61
18620 23.6190 93.09 68.65 9.74
18621 23.6200 79.58 68.49 8.95
18622 23.6210 56.04 68.35 7.57
18623 23.6220 73.40 68.22 8.66
18624 23.6230 64.99 68.10 8.26
18625 23.6240 66.00 68.00 8.29
18626 23.6250 59.05 67.90 7.81
18627 23.6260 54.34 67.82 7.47
18628 23.6270 55.70 67.74 7.60
18629 23.6280 57.19 67.66 7.69
18630 23.6290 67.42 67.60 8.27
18631 23.6300 73.27 67.53 8.61
18632 23.6310 65.26 67.48 8.14
18633 23.6320 62.46 67.42 8.05
18634 23.6330 71.50 67.38 8.64
18635 23.6340 75.91 67.33 8.87
18636 23.6350 62.67 67.29 8.05
18637 23.6360 65.89 67.25 8.19
18638 23.6370 59.30 67.21 7.81
18639 23.6380 74.39 67.18 8.71
18640 23.6390 66.10 67.14 8.19
18641 23.6400 55.72 67.11 7.51
18642 23.6410 67.17 67.08 8.27
18643 23.6420 60.87 67.06 7.95
18644 23.6430 62.85 67.03 8.08
18645 23.6440 65.83 67.01 8.27
18646 23.6450 67.55 66.99 8.33
18647 23.6460 78.19 66.97 8.96
18648 23.6470 69.23 66.95 8.45
18649 23.6480 56.58 66.93 7.66
18650 23.6490 71.20 66.91 8.54
18651 23.6500 64.91 66.89 8.13
18652 23.6510 75.07 66.91 8.78
18653 23.6520 59.55 66.89 7.85
18654 23.6530 74.63 66.95 8.82
18655 23.6540 70.79 66.93 8.55
18656 23.6550 64.74 66.92 8.15
18657 23.6560 74.56 66.91 8.72
18658 23.6570 74.50 66.90 8.74
18659 23.6580 63.84 66.89 8.12
18660 23.6590 53.60 66.88 7.41
18661 23.6600 64.97 66.87 8.16
18662 23.6610 62.28 66.86 7.96
18663 23.6620 66.85 66.85 8.36
18664 23.6630 77.95 66.85 9.01
18665 23.6640 69.31 66.84 8.46
18666 23.6650 73.10 66.83 8.65
18667 23.6660 72.18 66.83 8.57
18668 23.6670 59.73 66.82 7.83
18669 23.6680 76.00 66.82 8.85
18670 23.6690 63.27 66.81 8.02
18671 23.6700 70.21 66.81 8.43
18672 23.6710 50.92 66.80 7.19
18673 23.6720 79.58 66.80 9.10
18674 23.6730 69.89 66.80 8.55
18675 23.6740 68.86 66.79 8.45
18676 23.6750 65.89 66.79 8.26
18677 23.6760 68.57 66.79 8.38
18678 23.6770 62.81 66.79 8.04
18679 23.6780 74.85 66.79 8.73
18680 23.6790 73.80 66.79 8.65
18681 23.6800 71.24 66.79 8.46
18682 23.6810 57.58 66.78 7.63
18683 23.6820 72.64 66.78 8.64
18684 23.6830 67.28 66.79 8.38
18685 23.6840 74.19 66.79 8.76
18686 23.6850 72.59 66.79 8.66
18687 23.6860 66.04 66.79 8.21
18688 23.6870 88.76 66.79 9.53
18689 23.6880 62.00 66.79 7.97
18690 23.6890 72.74 66.79 8.60
18691 23.6900 79.40 66.80 8.96
18692 23.6910 80.92 66.80 9.04
18693 23.6920 78.04 66.80 9.01
18694 23.6930 62.11 66.81 8.03
18695 23.6940 56.81 66.81 7.68
18696 23.6950 60.41 66.82 7.87
18697 23.6960 69.61 66.82 8.43
18698 23.6970 63.98 66.83 8.13
18699 23.6980 70.38 66.83 8.52
18700 23.6990 60.68 66.84 7.87
18701 23.7000 50.18 66.85 7.15
18702 23.7010 68.64 66.85 8.36
18703 23.7020 70.94 66.86 8.54
18704 23.7030 71.46 66.87 8.58
18705 23.7040 67.40 66.87 8.33
18706 23.7050 60.92 66.88 7.89
18707 23.7060 84.01 66.89 9.24
18708 23.7070 62.91 66.90 8.05
18709 23.7080 66.38 66.91 8.31
18710 23.7090 63.44 66.92 8.05
18711 23.7100 66.85 66.93 8.24
18712 23.7110 75.89 66.94 8.82
18713 23.7120 63.58 66.96 8.10
18714 23.7130 81.07 66.97 9.18
18715 23.7140 75.15 66.98 8.80
18716 23.7150 78.33 66.99 8.96
18717 23.7160 77.15 67.01 8.87
18718 23.7170 81.12 67.02 9.11
18719 23.7180 72.32 67.04 8.64
18720 23.7190 68.07 67.05 8.30
18721 23.7200 74.85 67.07 8.72
18722 23.7210 71.81 67.09 8.53
18723 23.7220 76.15 67.10 8.85
18724 23.7230 65.22 67.12 8.21
18725 23.7240 84.82 67.14 9.37
18726 23.7250 77.40 67.16 8.87
18727 23.7260 77.87 67.18 8.93
18728 23.7270 57.21 67.20 7.65
18729 23.7280 76.28 67.22 8.84
18730 23.7290 68.83 67.25 8.37
18731 23.7300 70.58 67.27 8.45
18732 23.7310 68.73 67.30 8.35
18733 23.7320 57.37 67.32 7.73
18734 23.7330 66.34 67.35 8.32
18735 23.7340 69.81 67.37 8.50
18736 23.7350 79.10 67.40 9.02
18737 23.7360 78.60 67.43 8.96
18738 23.7370 70.59 67.46 8.51
18739 23.7380 92.00 67.49 9.71
18740 23.7390 70.61 67.53 8.44
18741 23.7400 72.24 67.56 8.57
18742 23.7410 63.27 67.60 8.00
18743 23.7420 63.55 67.69 8.09
18744 23.7430 67.98 67.73 8.40
18745 23.7440 63.80 67.82 8.11
18746 23.7450 66.82 67.86 8.26
18747 23.7460 74.06 67.96 8.64
18748 23.7470 78.46 68.00 8.94
18749 23.7480 68.47 68.05 8.40
18750 23.7490 67.96 68.10 8.36
18751 23.7500 65.51 68.15 8.17
18752 23.7510 78.63 68.20 8.93
18753 23.7520 71.61 68.25 8.61
18754 23.7530 71.35 68.31 8.62
18755 23.7540 70.93 68.37 8.52
18756 23.7550 74.30 68.43 8.67
18757 23.7560 71.60 68.49 8.56
18758 23.7570 66.15 68.56 8.26
18759 23.7580 65.40 68.62 8.22
18760 23.7590 53.98 68.69 7.42
18761 23.7600 60.08 68.77 7.83
18762 23.7610 75.01 68.84 8.74
18763 23.7620 73.99 68.92 8.76
18764 23.7630 68.87 69.00 8.47
18765 23.7640 72.61 69.09 8.65
18766 23.7650 79.85 69.18 9.04
18767 23.7660 56.82 69.27 7.62
18768 23.7670 68.58 69.37 8.39
18769 23.7680 65.38 69.47 8.19
18770 23.7690 66.96 69.57 8.26
18771 23.7700 71.20 69.68 8.46
18772 23.7710 83.29 69.80 9.15
18773 23.7720 65.82 69.92 8.23
18774 23.7730 79.98 70.05 9.14
18775 23.7740 60.18 70.18 7.92
18776 23.7750 62.20 70.31 8.01
18777 23.7760 64.59 70.46 8.19
18778 23.7770 58.29 70.61 7.74
18779 23.7780 68.86 70.77 8.44
18780 23.7790 68.91 70.93 8.36
18781 23.7800 65.67 71.11 8.15
18782 23.7810 82.45 71.29 9.17
18783 23.7820 83.54 71.48 9.32
18784 23.7830 64.70 71.69 8.22
18785 23.7840 61.17 71.90 7.97
18786 23.7850 68.06 72.13 8.38
18787 23.7860 77.10 72.36 8.88
18788 23.7870 80.29 72.61 9.08
18789 23.7880 78.73 72.88 9.00
18790 23.7890 66.23 73.16 8.20
18791 23.7900 75.45 73.46 8.72
18792 23.7910 70.58 73.77 8.49
18793 23.7920 70.61 74.10 8.55
18794 23.7930 78.55 74.46 9.06
18795 23.7940 75.96 74.84 8.85
18796 23.7950 73.62 75.24 8.68
18797 23.7960 59.13 75.66 7.78
18798 23.7970 63.59 76.12 8.07
18799 23.7980 78.85 76.61 9.02
18800 23.7990 73.69 77.13 8.67
18801 23.8000 90.89 77.69 9.59
18802 23.8010 70.72 78.29 8.52
18803 23.8020 75.82 78.94 8.86
18804 23.8030 76.22 79.63 8.91
18805 23.8040 71.00 80.38 8.56
18806 23.8050 77.60 81.20 8.93
18807 23.8060 82.88 82.08 9.22
18808 23.8070 82.07 83.03 9.20
18809 23.8080 71.63 84.07 8.64
18810 23.8090 78.65 85.20 8.97
18811 23.8100 92.35 86.44 9.69
18812 23.8110 85.68 87.80 9.33
18813 23.8120 92.84 89.30 9.79
18814 23.8130 88.47 90.94 9.59
18815 23.8140 91.32 92.76 9.69
18816 23.8150 82.66 94.78 9.19
18817 23.8160 91.76 97.04 9.67
18818 23.8170 101.79 99.55 10.19
18819 23.8180 97.88 102.37 10.04
18820 23.8190 98.74 105.56 10.00
18821 23.8200 114.67 109.16 10.77
18822 23.8210 103.50 113.26 10.25
18823 23.8220 109.26 117.97 10.61
18824 23.8230 112.25 123.38 10.83
18825 23.8240 117.99 129.66 11.07
18826 23.8250 134.89 137.04 11.75
18827 23.8260 165.75 145.74 13.01
18828 23.8270 173.40 156.15 13.33
18829 23.8280 170.79 168.78 13.23
18830 23.8290 211.25 184.27 14.70
18831 23.8300 206.17 203.46 14.44
18832 23.8310 212.32 227.52 14.70
18833 23.8320 296.96 257.82 17.54
18834 23.8330 300.33 296.02 17.73
18835 23.8340 335.77 343.86 18.61
18836 23.8350 387.44 403.18 19.91
18837 23.8360 445.86 475.45 21.28
18838 23.8370 541.60 559.67 23.50
18839 23.8380 685.19 652.23 26.46
18840 23.8390 818.96 744.67 28.77
18841 23.8400 872.57 822.99 29.65
18842 23.8410 925.84 873.19 30.72
18843 23.8420 925.25 884.58 30.94
18844 23.8430 850.56 853.80 29.68
18845 23.8440 802.03 787.18 28.75
18846 23.8450 674.62 698.37 26.22
18847 23.8460 551.56 603.19 23.74
18848 23.8470 465.83 513.53 21.84
18849 23.8480 445.31 435.10 21.41
18850 23.8490 379.40 369.69 19.70
18851 23.8500 330.30 316.70 18.32
18852 23.8510 280.39 274.25 16.90
18853 23.8520 263.24 240.61 16.43
18854 23.8530 204.44 213.89 14.59
18855 23.8540 191.84 192.63 14.10
18856 23.8550 155.90 175.60 12.61
18857 23.8560 169.99 161.76 13.19
18858 23.8570 137.63 150.43 11.94
18859 23.8580 157.20 141.02 12.76
18860 23.8590 133.65 133.10 11.68
18861 23.8600 111.90 126.35 10.63
18862 23.8610 110.67 120.57 10.63
18863 23.8620 123.99 115.57 11.34
18864 23.8630 106.08 111.22 10.48
18865 23.8640 90.02 107.42 9.61
18866 23.8650 87.21 104.06 9.43
18867 23.8660 92.45 101.10 9.70
18868 23.8670 92.51 98.46 9.73
18869 23.8680 98.25 96.11 9.98
18870 23.8690 88.02 94.00 9.46
18871 23.8700 81.15 92.11 9.07
18872 23.8710 114.69 90.40 10.79
18873 23.8720 95.28 88.86 9.94
18874 23.8730 94.79 87.46 10.00
18875 23.8740 83.52 86.18 9.32
18876 23.8750 86.34 85.02 9.42
18877 23.8760 65.26 83.96 8.16
18878 23.8770 86.67 82.99 9.45
18879 23.8780 96.98 82.10 9.96
18880 23.8790 75.07 81.28 8.75
18881 23.8800 66.19 80.52 8.18
18882 23.8810 77.13 79.82 8.85
18883 23.8820 67.88 79.18 8.38
18884 23.8830 81.02 78.58 9.22
18885 23.8840 81.48 78.03 9.22
18886 23.8850 83.50 77.52 9.25
18887 23.8860 85.88 77.05 9.40
18888 23.8870 75.07 76.61 8.79
18889 23.8880 75.17 76.20 8.78
18890 23.8890 74.13 75.82 8.68
18891 23.8900 61.81 75.47 7.89
18892 23.8910 87.62 75.14 9.42
18893 23.8920 72.27 74.83 8.61
18894 23.8930 67.31 74.55 8.36
18895 23.8940 63.04 74.28 8.09
18896 23.8950 77.22 74.04 8.93
18897 23.8960 72.09 73.81 8.58
18898 23.8970 78.74 73.60 9.00
18899 23.8980 67.64 73.40 8.36
18900 23.8990 93.03 73.22 9.74
18901 23.9000 81.36 73.06 9.06
18902 23.9010 54.39 72.90 7.43
18903 23.9020 61.12 72.76 7.94
18904 23.9030 88.64 72.64 9.57
18905 23.9040 73.32 72.52 8.68
18906 23.9050 70.78 72.42 8.49
18907 23.9060 71.74 72.32 8.55
18908 23.9070 84.44 72.24 9.33
18909 23.9080 74.11 72.17 8.76
18910 23.9090 66.59 72.11 8.25
18911 23.9100 78.86 72.05 8.94
18912 23.9110 79.48 72.01 9.01
18913 23.9120 74.19 71.98 8.77
18914 23.9130 74.36 71.96 8.78
18915 23.9140 81.36 71.96 9.16
18916 23.9150 72.15 71.96 8.57
18917 23.9160 70.07 71.97 8.44
18918 23.9170 77.60 72.00 8.94
18919 23.9180 72.36 72.03 8.64
18920 23.9190 71.60 72.08 8.52
18921 23.9200 63.07 72.14 8.01
18922 23.9210 71.99 72.21 8.58
18923 23.9220 86.39 72.30 9.45
18924 23.9230 73.65 72.39 8.76
18925 23.9240 85.47 72.51 9.36
18926 23.9250 74.81 72.63 8.74
18927 23.9260 71.88 72.78 8.57
18928 23.9270 65.75 72.94 8.19
18929 23.9280 71.03 73.12 8.54
18930 23.9290 74.79 73.32 8.73
18931 23.9300 71.23 73.54 8.49
18932 23.9310 76.45 73.78 8.84
18933 23.9320 94.04 74.05 9.87
18934 23.9330 63.55 74.35 8.17
18935 23.9340 73.57 74.67 8.72
18936 23.9350 89.92 75.03 9.59
18937 23.9360 73.17 75.42 8.65
18938 23.9370 68.42 75.86 8.37
18939 23.9380 68.35 76.34 8.38
18940 23.9390 80.69 76.87 9.05
18941 23.9400 78.96 77.45 8.94
18942 23.9410 76.19 78.10 8.77
18943 23.9420 94.96 78.82 9.92
18944 23.9430 91.27 79.61 9.76
18945 23.9440 77.06 80.50 8.89
18946 23.9450 93.18 81.49 9.72
18947 23.9460 88.93 82.61 9.54
18948 23.9470 72.76 83.86 8.61
18949 23.9480 74.24 85.27 8.68
18950 23.9490 78.88 86.87 8.95
18951 23.9500 107.59 88.69 10.42
18952 23.9510 94.77 90.77 9.81
18953 23.9520 104.17 93.17 10.36
18954 23.9530 96.00 95.94 10.01
18955 23.9540 111.39 99.19 10.73
18956 23.9550 105.14 103.00 10.38
18957 23.9560 115.98 107.54 10.80
18958 23.9570 114.74 113.03 10.88
18959 23.9580 118.32 119.70 11.04
18960 23.9590 136.93 127.93 11.80
18961 23.9600 148.01 138.21 12.24
18962 23.9610 157.06 151.15 12.63
18963 23.9620 159.59 167.43 12.81
18964 23.9630 185.60 187.98 13.87
18965 23.9640 234.64 213.67 15.45
18966 23.9650 280.20 245.24 16.87
18967 23.9660 304.44 283.15 17.62
18968 23.9670 363.61 326.50 19.30
18969 23.9680 408.09 372.59 20.37
18970 23.9690 455.92 415.67 21.44
18971 23.9700 508.02 447.69 22.62
18972 23.9710 526.74 460.91 23.06
18973 23.9720 438.75 451.18 21.16
18974 23.9730 410.03 420.96 20.66
18975 23.9740 427.53 377.88 21.01
18976 23.9750 329.03 331.14 18.38
18977 23.9760 284.90 286.93 17.01
18978 23.9770 247.38 248.33 15.90
18979 23.9780 217.19 216.05 14.91
18980 23.9790 186.02 189.95 13.74
18981 23.9800 170.12 169.05 13.06
18982 23.9810 146.78 152.48 12.19
18983 23.9820 136.65 139.39 11.90
18984 23.9830 147.65 128.97 12.45
18985 23.9840 135.51 120.65 11.85
18986 23.9850 107.54 113.92 10.49
18987 23.9860 115.68 108.41 10.86
18988 23.9870 111.73 103.86 10.72
18989 23.9880 95.29 100.03 9.86
18990 23.9890 90.04 96.80 9.53
18991 23.9900 83.11 94.04 9.18
18992 23.9910 91.96 91.67 9.64
18993 23.9920 95.58 89.61 9.96
18994 23.9930 111.14 87.83 10.74
18995 23.9940 84.58 86.27 9.35
18996 23.9950 82.92 84.90 9.24
18997 23.9960 80.31 83.71 9.06
18998 23.9970 89.02 82.65 9.55
18999 23.9980 72.86 81.72 8.66
19000 23.9990 78.50 80.90 8.95
19001 24.0000 71.66 80.17 8.54
19002 24.0010 76.23 79.53 8.81
19003 24.0020 87.69 78.96 9.55
19004 24.0030 76.49 78.46 8.96
19005 24.0040 65.30 78.03 8.23
19006 24.0050 72.75 77.65 8.65
19007 24.0060 72.30 77.32 8.63
19008 24.0070 75.23 77.04 8.81
19009 24.0080 66.63 76.80 8.32
19010 24.0090 76.70 76.61 8.87
19011 24.0100 80.11 76.45 9.06
19012 24.0110 77.36 76.33 8.89
19013 24.0120 74.74 76.25 8.82
19014 24.0130 70.80 76.20 8.55
19015 24.0140 62.03 76.19 8.01
19016 24.0150 75.99 76.21 8.81
19017 24.0160 79.94 76.26 9.06
19018 24.0170 78.25 76.34 8.96
19019 24.0180 74.78 76.46 8.78
19020 24.0190 76.26 76.61 8.83
19021 24.0200 78.08 76.80 8.88
19022 24.0210 64.86 77.03 8.14
19023 24.0220 71.22 77.29 8.62
19024 24.0230 66.12 77.60 8.33
19025 24.0240 77.20 77.95 8.97
19026 24.0250 73.87 78.34 8.75
19027 24.0260 87.63 78.78 9.50
19028 24.0270 101.56 79.28 10.23
19029 24.0280 81.34 79.84 9.16
19030 24.0290 80.04 80.46 9.07
19031 24.0300 83.79 81.15 9.21
19032 24.0310 82.63 81.92 9.21
19033 24.0320 88.42 82.77 9.59
19034 24.0330 98.52 83.72 10.18
19035 24.0340 91.13 84.78 9.76
19036 24.0350 80.39 85.96 9.09
19037 24.0360 87.60 87.28 9.46
19038 24.0370 91.69 88.76 9.68
19039 24.0380 82.44 90.41 9.17
19040 24.0390 86.96 92.27 9.42
19041 24.0400 83.04 94.37 9.17
19042 24.0410 81.82 96.74 9.11
19043 24.0420 101.51 99.43 10.26
19044 24.0430 99.77 102.50 10.20
19045 24.0440 97.33 106.03 10.03
19046 24.0450 108.16 110.10 10.50
19047 24.0460 126.45 114.84 11.35
19048 24.0470 123.86 120.40 11.25
19049 24.0480 141.60 126.98 12.08
19050 24.0490 129.90 134.85 11.50
19051 24.0500 148.79 144.37 12.26
19052 24.0510 145.73 156.06 12.18
19053 24.0520 173.22 170.53 13.41
19054 24.0530 216.98 188.59 15.04
19055 24.0540 223.27 211.33 15.19
19056 24.0550 266.13 239.94 16.55
19057 24.0560 299.41 275.71 17.45
19058 24.0570 337.26 320.04 18.57
19059 24.0580 383.27 374.05 19.77
19060 24.0590 451.62 437.13 21.45
19061 24.0600 519.64 506.88 22.87
19062 24.0610 565.48 577.39 23.91
19063 24.0620 649.38 638.64 25.76
19064 24.0630 764.73 680.24 28.16
19065 24.0640 756.58 693.79 27.90
19066 24.0650 684.12 675.64 26.41
19067 24.0660 626.90 629.13 25.22
19068 24.0670 561.09 563.69 23.98
19069 24.0680 471.60 491.32 22.00
19070 24.0690 415.60 421.74 20.49
19071 24.0700 371.92 360.05 19.33
19072 24.0710 293.01 308.20 17.22
19073 24.0720 264.84 265.70 16.46
19074 24.0730 228.55 231.67 15.41
19075 24.0740 217.50 204.56 14.95
19076 24.0750 161.12 182.94 12.86
19077 24.0760 163.64 165.77 12.92
19078 24.0770 183.46 151.99 13.70
19079 24.0780 163.40 140.81 12.96
19080 24.0790 157.47 131.65 12.65
19081 24.0800 137.90 124.05 11.76
19082 24.0810 119.52 117.65 10.97
19083 24.0820 103.57 112.22 10.30
19084 24.0830 104.56 107.57 10.43
19085 24.0840 99.44 103.54 10.16
19086 24.0850 98.40 100.04 10.03
19087 24.0860 83.43 96.96 9.18
19088 24.0870 105.92 94.26 10.42
19089 24.0880 91.94 91.86 9.68
19090 24.0890 90.79 89.73 9.59
19091 24.0900 89.15 87.82 9.46
19092 24.0910 94.48 86.11 9.80
19093 24.0920 81.72 84.57 9.19
19094 24.0930 95.14 83.18 9.94
19095 24.0940 90.03 81.92 9.62
19096 24.0950 79.86 80.77 9.06
19097 24.0960 75.50 79.72 8.79
19098 24.0970 86.52 78.77 9.43
19099 24.0980 84.38 77.89 9.32
19100 24.0990 84.99 77.08 9.34
19101 24.1000 63.87 76.34 8.06
19102 24.1010 68.35 75.65 8.33
19103 24.1020 69.29 75.02 8.42
19104 24.1030 73.93 74.42 8.75
19105 24.1040 60.61 73.88 7.91
19106 24.1050 64.76 73.37 8.13
19107 24.1060 72.04 72.89 8.56
19108 24.1070 69.33 72.44 8.45
19109 24.1080 75.58 72.03 8.83
19110 24.1090 67.23 71.64 8.29
19111 24.1100 79.56 71.27 8.99
19112 24.1110 75.25 70.92 8.75
19113 24.1120 78.82 70.60 8.98
19114 24.1130 89.59 70.29 9.61
19115 24.1140 67.37 70.01 8.32
19116 24.1150 83.78 69.73 9.24
19117 24.1160 83.65 69.48 9.23
19118 24.1170 73.35 69.23 8.66
19119 24.1180 72.42 69.00 8.63
19120 24.1190 66.88 68.78 8.27
19121 24.1200 73.74 68.57 8.65
19122 24.1210 68.40 68.38 8.34
19123 24.1220 67.02 68.19 8.33
19124 24.1230 66.44 68.02 8.30
19125 24.1240 69.49 67.85 8.47
19126 24.1250 72.14 67.69 8.59
19127 24.1260 65.84 67.54 8.20
19128 24.1270 74.73 67.39 8.75
19129 24.1280 66.47 67.24 8.24
19130 24.1290 74.59 67.10 8.68
19131 24.1300 63.97 66.96 8.05
19132 24.1310 68.55 66.83 8.35
19133 24.1320 75.64 66.70 8.85
19134 24.1330 68.69 66.58 8.46
19135 24.1340 72.53 66.46 8.66
19136 24.1350 64.88 66.35 8.15
19137 24.1360 72.82 66.24 8.58
19138 24.1370 72.83 66.14 8.59
19139 24.1380 62.81 66.04 8.01
19140 24.1390 60.46 65.94 7.85
19141 24.1400 76.68 65.85 8.78
19142 24.1410 65.10 65.76 8.12
19143 24.1420 82.79 65.68 9.27
19144 24.1430 81.71 65.59 9.24
19145 24.1440 64.42 65.51 8.17
19146 24.1450 61.04 65.44 7.87
19147 24.1460 71.74 65.36 8.54
19148 24.1470 64.31 65.29 8.10
19149 24.1480 61.83 65.22 7.93
19150 24.1490 66.57 65.15 8.20
19151 24.1500 54.89 65.08 7.45
19152 24.1510 63.57 65.02 8.06
19153 24.1520 63.63 64.96 8.10
19154 24.1530 78.14 64.90 9.01
19155 24.1540 65.73 64.84 8.23
19156 24.1550 67.57 64.78 8.33
19157 24.1560 52.91 64.73 7.35
19158 24.1570 66.08 64.67 8.23
19159 24.1580 61.60 64.55 7.96
19160 24.1590 79.83 64.50 9.02
19161 24.1600 67.98 64.37 8.28
19162 24.1610 66.78 64.26 8.21
19163 24.1620 77.82 64.21 8.92
19164 24.1630 57.32 64.16 7.72
19165 24.1640 68.82 64.12 8.44
19166 24.1650 70.07 64.08 8.46
19167 24.1660 79.62 64.03 9.01
19168 24.1670 84.71 63.99 9.28
19169 24.1680 71.19 63.95 8.52
19170 24.1690 68.31 63.91 8.30
19171 24.1700 79.32 63.88 8.92
19172 24.1710 67.62 63.84 8.27
19173 24.1720 64.35 63.80 8.14
19174 24.1730 80.40 63.76 9.13
19175 24.1740 64.42 63.73 8.14
19176 24.1750 59.49 63.70 7.80
19177 24.1760 67.06 63.66 8.27
19178 24.1770 70.03 63.63 8.46
19179 24.1780 68.03 63.60 8.34
19180 24.1790 69.99 63.56 8.43
19181 24.1800 56.22 63.53 7.54
19182 24.1810 68.84 63.50 8.38
19183 24.1820 69.55 63.47 8.48
19184 24.1830 73.47 63.44 8.76
19185 24.1840 82.30 63.41 9.22
19186 24.1850 70.81 63.39 8.50
19187 24.1860 75.94 63.36 8.77
19188 24.1870 61.49 63.33 7.90
19189 24.1880 82.52 63.30 9.19
19190 24.1890 62.76 63.28 7.98
19191 24.1900 52.67 63.25 7.26
19192 24.1910 70.40 63.22 8.45
19193 24.1920 58.38 63.20 7.75
19194 24.1930 73.90 63.17 8.77
19195 24.1940 64.93 63.15 8.17
19196 24.1950 67.19 63.13 8.30
19197 24.1960 82.59 63.10 9.16
19198 24.1970 67.31 63.08 8.33
19199 24.1980 57.67 63.06 7.73
19200 24.1990 64.29 63.03 8.09
19201 24.2000 64.04 63.01 8.04
19202 24.2010 68.64 62.99 8.36
19203 24.2020 70.83 62.97 8.55
19204 24.2030 66.26 62.95 8.29
19205 24.2040 65.80 62.93 8.26
19206 24.2050 65.56 62.90 8.22
19207 24.2060 75.63 62.88 8.79
19208 24.2070 58.07 62.86 7.73
19209 24.2080 63.02 62.84 8.06
19210 24.2090 60.04 62.82 7.81
19211 24.2100 64.50 62.80 8.07
19212 24.2110 71.23 62.79 8.51
19213 24.2120 57.79 62.77 7.71
19214 24.2130 69.11 62.75 8.45
19215 24.2140 57.35 62.73 7.68
19216 24.2150 57.52 62.71 7.66
19217 24.2160 75.97 62.69 8.79
19218 24.2170 68.74 62.67 8.37
19219 24.2180 70.44 62.66 8.49
19220 24.2190 59.02 62.64 7.78
19221 24.2200 65.05 62.62 8.09
19222 24.2210 69.15 62.61 8.40
19223 24.2220 67.23 62.59 8.37
19224 24.2230 71.88 62.57 8.68
19225 24.2240 69.16 62.56 8.45
19226 24.2250 61.73 62.54 7.95
19227 24.2260 70.92 62.52 8.51
19228 24.2270 67.54 62.51 8.33
19229 24.2280 63.01 62.49 8.03
19230 24.2290 60.43 62.48 7.83
19231 24.2300 59.08 62.46 7.76
19232 24.2310 79.55 62.44 9.03
19233 24.2320 73.03 62.43 8.71
19234 24.2330 64.37 62.41 8.19
19235 24.2340 66.05 62.40 8.26
19236 24.2350 73.42 62.38 8.69
19237 24.2360 56.56 62.37 7.58
19238 24.2370 57.26 62.35 7.66
19239 24.2380 76.17 62.34 8.80
19240 24.2390 68.96 62.33 8.38
19241 24.2400 66.02 62.31 8.13
19242 24.2410 75.58 62.30 8.75
19243 24.2420 63.41 62.28 8.09
19244 24.2430 69.98 62.27 8.55
19245 24.2440 80.38 62.26 9.12
19246 24.2450 68.35 62.24 8.40
19247 24.2460 62.21 62.23 7.98
19248 24.2470 72.67 62.22 8.65
19249 24.2480 65.14 62.20 8.17
19250 24.2490 68.84 62.19 8.39
19251 24.2500 79.68 62.18 8.96
19252 24.2510 79.44 62.16 9.02
19253 24.2520 51.38 62.15 7.29
19254 24.2530 74.35 62.14 8.77
19255 24.2540 68.23 62.13 8.38
19256 24.2550 64.06 62.11 8.15
19257 24.2560 81.18 62.10 9.12
19258 24.2570 79.97 62.09 9.07
19259 24.2580 68.62 62.08 8.42
19260 24.2590 61.34 62.07 7.91
19261 24.2600 79.79 62.05 8.95
19262 24.2610 53.07 62.05 7.33
19263 24.2620 79.92 62.04 9.05
19264 24.2630 59.99 62.03 7.89
19265 24.2640 61.20 62.02 7.93
19266 24.2650 65.73 62.01 8.21
19267 24.2660 55.20 62.00 7.52
19268 24.2670 60.76 61.99 7.88
19269 24.2680 64.20 61.98 8.11
19270 24.2690 56.30 61.97 7.57
19271 24.2700 71.11 61.95 8.46
19272 24.2710 69.94 61.94 8.42
19273 24.2720 79.90 61.93 9.06
19274 24.2730 79.05 61.92 9.06
19275 24.2740 73.69 61.91 8.72
19276 24.2750 64.52 61.90 8.15
19277 24.2760 60.78 61.89 7.89
19278 24.2770 65.09 61.88 8.16
19279 24.2780 56.17 61.87 7.60
19280 24.2790 72.21 61.86 8.56
19281 24.2800 66.44 61.85 8.20
19282 24.2810 66.11 61.84 8.21
19283 24.2820 63.28 61.83 8.10
19284 24.2830 53.47 61.82 7.46
19285 24.2840 59.91 61.81 7.83
19286 24.2850 79.95 61.80 9.02
19287 24.2860 66.35 61.79 8.20
19288 24.2870 60.17 61.78 7.85
19289 24.2880 83.06 61.77 9.21
19290 24.2890 64.08 61.73 8.07
19291 24.2900 72.73 61.72 8.56
19292 24.2910 60.19 61.64 7.80
19293 24.2920 81.38 61.63 9.14
19294 24.2930 67.84 61.62 8.41
19295 24.2940 62.01 61.61 7.99
19296 24.2950 72.58 61.60 8.61
19297 24.2960 63.98 61.60 8.04
19298 24.2970 66.01 61.59 8.23
19299 24.2980 80.67 61.58 9.10
19300 24.2990 69.92 61.57 8.42
19301 24.3000 57.98 61.56 7.68
19302 24.3010 74.06 61.56 8.69
19303 24.3020 59.24 61.55 7.85
19304 24.3030 79.78 61.54 9.12
19305 24.3040 65.48 61.53 8.20
19306 24.3050 60.59 61.52 7.85
19307 24.3060 58.99 61.52 7.78
19308 24.3070 71.04 61.51 8.51
19309 24.3080 66.89 61.50 8.28
19310 24.3090 62.35 61.49 7.94
19311 24.3100 57.74 61.49 7.65
19312 24.3110 58.42 61.48 7.69
19313 24.3120 77.23 61.47 8.90
19314 24.3130 61.61 61.47 7.99
19315 24.3140 58.46 61.46 7.74
19316 24.3150 79.23 61.46 8.98
19317 24.3160 67.14 61.45 8.25
19318 24.3170 71.23 61.44 8.52
19319 24.3180 67.02 61.44 8.30
19320 24.3190 76.20 61.43 8.81
19321 24.3200 59.88 61.43 7.80
19322 24.3210 62.40 61.42 7.97
19323 24.3220 73.72 61.42 8.72
19324 24.3230 65.56 61.41 8.28
19325 24.3240 77.69 61.41 8.94
19326 24.3250 68.72 61.41 8.37
19327 24.3260 75.88 61.40 8.81
19328 24.3270 82.23 61.40 9.18
19329 24.3280 65.14 61.40 8.17
19330 24.3290 66.40 61.39 8.18
19331 24.3300 74.24 61.39 8.69
19332 24.3310 59.42 61.39 7.79
19333 24.3320 72.65 61.39 8.68
19334 24.3330 52.73 61.39 7.40
19335 24.3340 66.53 61.39 8.27
19336 24.3350 60.06 61.40 7.83
19337 24.3360 63.80 61.40 8.03
19338 24.3370 63.53 61.40 8.04
19339 24.3380 74.73 61.41 8.72
19340 24.3390 72.03 61.41 8.52
19341 24.3400 69.69 61.42 8.37
19342 24.3410 66.05 61.43 8.18
19343 24.3420 74.21 61.44 8.74
19344 24.3430 63.39 61.46 8.14
19345 24.3440 67.45 61.47 8.35
19346 24.3450 73.23 61.49 8.66
19347 24.3460 81.85 61.52 9.12
19348 24.3470 75.17 61.55 8.75
19349 24.3480 55.80 61.58 7.55
19350 24.3490 64.99 61.62 8.10
19351 24.3500 70.31 61.66 8.40
19352 24.3510 76.26 61.71 8.78
19353 24.3520 64.27 61.78 8.16
19354 24.3530 67.52 61.85 8.39
19355 24.3540 57.44 61.94 7.70
19356 24.3550 66.72 62.06 8.26
19357 24.3560 67.33 62.20 8.32
19358 24.3570 79.50 62.37 9.01
19359 24.3580 65.80 62.59 8.21
19360 24.3590 72.36 62.86 8.56
19361 24.3600 69.95 63.21 8.38
19362 24.3610 64.96 63.64 8.09
19363 24.3620 65.63 64.18 8.21
19364 24.3630 70.15 64.83 8.51
19365 24.3640 64.47 65.59 8.14
19366 24.3650 70.06 66.44 8.43
19367 24.3660 79.10 67.29 8.96
19368 24.3670 72.31 68.03 8.58
19369 24.3680 66.64 68.52 8.24
19370 24.3690 73.79 68.70 8.62
19371 24.3700 67.36 68.60 8.23
19372 24.3710 73.55 68.28 8.59
19373 24.3720 84.20 67.77 9.27
19374 24.3730 70.12 67.10 8.50
19375 24.3740 60.35 66.32 7.90
19376 24.3750 58.69 65.52 7.75
19377 24.3760 66.32 64.77 8.21
19378 24.3770 78.66 64.12 8.94
19379 24.3780 75.61 63.56 8.80
19380 24.3790 69.42 63.11 8.40
19381 24.3800 69.52 62.74 8.40
19382 24.3810 73.94 62.44 8.64
19383 24.3820 70.75 62.20 8.53
19384 24.3830 63.11 61.95 8.09
19385 24.3840 63.68 61.79 8.08
19386 24.3850 68.77 61.61 8.36
19387 24.3860 60.69 61.44 7.86
19388 24.3870 72.04 61.35 8.53
19389 24.3880 63.73 61.27 8.06
19390 24.3890 72.51 61.20 8.52
19391 24.3900 59.54 61.14 7.73
19392 24.3910 58.40 61.09 7.67
19393 24.3920 89.51 61.04 9.56
19394 24.3930 69.87 61.00 8.51
19395 24.3940 69.44 60.96 8.43
19396 24.3950 77.14 60.93 8.87
19397 24.3960 61.18 60.89 7.87
19398 24.3970 59.53 60.87 7.78
19399 24.3980 67.68 60.84 8.34
19400 24.3990 54.99 60.81 7.48
19401 24.4000 59.53 60.79 7.76
19402 24.4010 68.14 60.77 8.30
19403 24.4020 72.15 60.75 8.64
19404 24.4030 65.92 60.73 8.29
19405 24.4040 55.09 60.71 7.54
19406 24.4050 71.96 60.70 8.58
19407 24.4060 84.46 60.68 9.29
19408 24.4070 66.73 60.66 8.26
19409 24.4080 75.75 60.65 8.77
19410 24.4090 84.15 60.64 9.20
19411 24.4100 62.69 60.62 7.92
19412 24.4110 68.91 60.61 8.36
19413 24.4120 63.81 60.60 8.10
19414 24.4130 60.19 60.59 7.86
19415 24.4140 58.39 60.57 7.74
19416 24.4150 63.06 60.56 8.02
19417 24.4160 57.17 60.55 7.64
19418 24.4170 60.38 60.54 7.83
19419 24.4180 65.10 60.53 8.16
19420 24.4190 65.02 60.52 8.13
19421 24.4200 59.78 60.51 7.76
19422 24.4210 65.90 60.50 8.17
19423 24.4220 65.99 60.49 8.23
19424 24.4230 58.83 60.48 7.83
19425 24.4240 63.42 60.47 8.08
19426 24.4250 60.13 60.47 7.85
19427 24.4260 63.46 60.46 8.09
19428 24.4270 51.80 60.45 7.30
19429 24.4280 71.50 60.44 8.54
19430 24.4290 69.82 60.43 8.42
19431 24.4300 73.54 60.42 8.60
19432 24.4310 63.96 60.42 8.08
19433 24.4320 74.07 60.41 8.73
19434 24.4330 58.23 60.40 7.78
19435 24.4340 75.46 60.39 8.82
19436 24.4350 65.79 60.39 8.19
19437 24.4360 62.25 60.38 7.93
19438 24.4370 68.35 60.37 8.30
19439 24.4380 81.36 60.36 9.07
19440 24.4390 73.45 60.36 8.60
19441 24.4400 80.89 60.35 8.97
19442 24.4410 60.54 60.34 7.82
19443 24.4420 44.07 60.34 6.77
19444 24.4430 66.30 60.33 8.32
19445 24.4440 76.28 60.32 8.89
19446 24.4450 79.02 60.32 8.94
19447 24.4460 68.27 60.31 8.34
19448 24.4470 61.30 60.30 7.90
19449 24.4480 80.83 60.30 9.10
19450 24.4490 69.36 60.29 8.37
19451 24.4500 56.80 60.28 7.59
19452 24.4510 51.92 60.28 7.28
19453 24.4520 53.20 60.27 7.39
19454 24.4530 60.01 60.26 7.92
19455 24.4540 57.24 60.26 7.70
19456 24.4550 63.64 60.25 8.05
19457 24.4560 75.54 60.25 8.76
19458 24.4570 66.74 60.24 8.26
19459 24.4580 76.54 60.23 8.83
19460 24.4590 73.23 60.23 8.61
19461 24.4600 71.28 60.22 8.47
19462 24.4610 61.38 60.22 7.83
19463 24.4620 54.68 60.21 7.49
19464 24.4630 72.25 60.21 8.63
19465 24.4640 94.57 60.20 9.81
19466 24.4650 75.55 60.20 8.77
19467 24.4660 60.43 60.19 7.84
19468 24.4670 76.58 60.19 8.89
19469 24.4680 71.72 60.18 8.56
19470 24.4690 64.50 60.18 8.10
19471 24.4700 68.96 60.17 8.33
19472 24.4710 65.91 60.17 8.16
19473 24.4720 62.60 60.16 8.04
19474 24.4730 58.01 60.16 7.76
19475 24.4740 61.41 60.15 7.95
19476 24.4750 70.09 60.15 8.49
19477 24.4760 57.05 60.14 7.64
19478 24.4770 80.60 60.14 9.10
19479 24.4780 65.18 60.13 8.21
19480 24.4790 50.91 60.13 7.22
19481 24.4800 63.81 60.12 8.01
19482 24.4810 71.86 60.12 8.54
19483 24.4820 64.06 60.12 8.12
19484 24.4830 57.12 60.11 7.69
19485 24.4840 67.08 60.11 8.29
19486 24.4850 56.62 60.11 7.61
19487 24.4860 59.41 60.10 7.79
19488 24.4870 67.37 60.10 8.28
19489 24.4880 61.89 60.09 7.95
19490 24.4890 72.74 60.09 8.60
19491 24.4900 67.64 60.09 8.26
19492 24.4910 58.41 60.09 7.71
19493 24.4920 56.31 60.08 7.65
19494 24.4930 59.76 60.08 7.90
19495 24.4940 61.12 60.08 7.93
19496 24.4950 73.48 60.08 8.67
19497 24.4960 67.34 60.07 8.27
19498 24.4970 74.93 60.07 8.76
19499 24.4980 77.20 60.07 8.89
19500 24.4990 70.59 60.07 8.48
19501 24.5000 57.42 60.07 7.62
19502 24.5010 59.83 60.06 7.80
19503 24.5020 64.89 60.06 8.21
19504 24.5030 59.21 60.06 7.88
19505 24.5040 57.82 60.06 7.70
19506 24.5050 57.33 60.06 7.65
19507 24.5060 64.13 60.06 8.06
19508 24.5070 67.23 60.06 8.26
19509 24.5080 61.51 60.06 7.92
19510 24.5090 52.13 60.06 7.27
19511 24.5100 71.10 60.06 8.48
19512 24.5110 74.26 60.06 8.67
19513 24.5120 66.79 60.07 8.27
19514 24.5130 80.28 60.07 9.13
19515 24.5140 64.29 60.07 8.13
19516 24.5150 64.74 60.07 8.13
19517 24.5160 81.18 60.08 9.08
19518 24.5170 71.58 60.08 8.55
19519 24.5180 73.29 60.08 8.67
19520 24.5190 69.73 60.09 8.42
19521 24.5200 65.92 60.09 8.14
19522 24.5210 67.47 60.10 8.29
19523 24.5220 66.53 60.10 8.29
19524 24.5230 54.52 60.11 7.56
19525 24.5240 57.18 60.12 7.67
19526 24.5250 67.21 60.12 8.28
19527 24.5260 59.65 60.13 7.82
19528 24.5270 70.53 60.14 8.52
19529 24.5280 70.24 60.15 8.48
19530 24.5290 58.83 60.16 7.74
19531 24.5300 74.12 60.18 8.66
19532 24.5310 69.04 60.19 8.42
19533 24.5320 56.65 60.20 7.65
19534 24.5330 74.05 60.22 8.79
19535 24.5340 67.33 60.23 8.31
19536 24.5350 67.71 60.25 8.33
19537 24.5360 73.37 60.27 8.62
19538 24.5370 77.85 60.29 8.86
19539 24.5380 66.68 60.31 8.27
19540 24.5390 62.35 60.34 7.96
19541 24.5400 67.52 60.36 8.26
19542 24.5410 70.18 60.39 8.48
19543 24.5420 60.60 60.42 7.92
19544 24.5430 71.86 60.45 8.67
19545 24.5440 68.21 60.49 8.39
19546 24.5450 83.81 60.53 9.26
19547 24.5460 61.76 60.57 7.93
19548 24.5470 60.57 60.61 7.90
19549 24.5480 61.49 60.66 7.94
19550 24.5490 76.72 60.71 8.82
19551 24.5500 72.89 60.77 8.59
19552 24.5510 56.96 60.83 7.63
19553 24.5520 77.82 60.90 8.98
19554 24.5530 63.66 60.97 8.19
19555 24.5540 72.33 61.05 8.66
19556 24.5550 76.55 61.14 8.89
19557 24.5560 62.20 61.24 8.00
19558 24.5570 61.21 61.35 7.93
19559 24.5580 60.41 61.47 7.88
19560 24.5590 62.67 61.60 7.99
19561 24.5600 60.41 61.74 7.80
19562 24.5610 62.90 61.90 8.00
19563 24.5620 65.30 62.08 8.25
19564 24.5630 64.91 62.28 8.22
19565 24.5640 74.48 62.51 8.78
19566 24.5650 59.38 62.76 7.80
19567 24.5660 65.62 63.05 8.19
19568 24.5670 62.25 63.37 8.00
19569 24.5680 60.52 63.75 7.90
19570 24.5690 54.60 64.18 7.43
19571 24.5700 83.55 64.67 9.20
19572 24.5710 73.51 65.25 8.65
19573 24.5720 72.47 65.94 8.65
19574 24.5730 71.13 66.75 8.65
19575 24.5740 74.22 67.74 8.78
19576 24.5750 80.00 68.93 9.09
19577 24.5760 70.12 70.38 8.47
19578 24.5770 68.82 72.19 8.40
19579 24.5780 80.48 74.43 9.05
19580 24.5790 75.08 77.25 8.76
19581 24.5800 90.56 80.77 9.56
19582 24.5810 89.17 85.08 9.50
19583 24.5820 97.51 90.33 10.05
19584 24.5830 96.73 96.49 10.05
19585 24.5840 107.66 103.43 10.53
19586 24.5850 110.01 110.78 10.56
19587 24.5860 109.81 117.86 10.54
19588 24.5870 137.26 123.78 11.82
19589 24.5880 133.49 127.54 11.64
19590 24.5890 134.52 128.21 11.62
19591 24.5900 129.79 125.48 11.44
19592 24.5910 115.97 119.84 10.82
19593 24.5920 105.17 112.48 10.46
19594 24.5930 95.53 104.64 9.96
19595 24.5940 98.73 97.24 10.06
19596 24.5950 89.89 90.78 9.59
19597 24.5960 81.82 85.33 9.14
19598 24.5970 74.81 80.89 8.76
19599 24.5980 70.43 77.32 8.53
19600 24.5990 87.02 74.44 9.45
19601 24.6000 84.81 72.15 9.30
19602 24.6010 62.54 70.32 8.00
19603 24.6020 88.37 68.84 9.56
19604 24.6030 71.10 67.63 8.62
19605 24.6040 62.21 66.64 8.04
19606 24.6050 86.03 65.81 9.39
19607 24.6060 62.82 65.11 8.04
19608 24.6070 65.85 64.51 8.22
19609 24.6080 56.12 64.00 7.60
19610 24.6090 72.28 63.55 8.55
19611 24.6100 74.82 63.16 8.69
19612 24.6110 66.97 62.82 8.23
19613 24.6120 83.54 62.52 9.27
19614 24.6130 71.58 62.25 8.60
19615 24.6140 69.51 62.01 8.45
19616 24.6150 63.08 61.79 8.05
19617 24.6160 65.01 61.60 8.18
19618 24.6170 56.80 61.42 7.65
19619 24.6180 61.47 61.27 7.95
19620 24.6190 48.10 61.12 7.01
19621 24.6200 80.65 60.99 9.05
19622 24.6210 75.23 60.87 8.72
19623 24.6220 62.04 60.76 8.04
19624 24.6230 68.72 60.65 8.50
19625 24.6240 58.88 60.56 7.82
19626 24.6250 63.15 60.47 8.05
19627 24.6260 64.55 60.39 8.14
19628 24.6270 67.63 60.31 8.34
19629 24.6280 69.22 60.24 8.45
19630 24.6290 64.73 60.18 8.12
19631 24.6300 78.22 60.12 8.89
19632 24.6310 75.84 60.06 8.78
19633 24.6320 56.94 60.00 7.67
19634 24.6330 71.47 59.95 8.60
19635 24.6340 60.75 59.90 7.91
19636 24.6350 62.42 59.86 7.99
19637 24.6360 65.38 59.81 8.14
19638 24.6370 69.44 59.77 8.38
19639 24.6380 64.57 59.73 8.10
19640 24.6390 57.40 59.70 7.65
19641 24.6400 60.22 59.66 7.83
19642 24.6410 63.27 59.63 8.04
19643 24.6420 65.73 59.60 8.29
19644 24.6430 61.87 59.57 8.02
19645 24.6440 64.98 59.54 8.23
19646 24.6450 72.10 59.51 8.57
19647 24.6460 67.28 59.48 8.28
19648 24.6470 61.21 59.45 7.91
19649 24.6480 68.96 59.43 8.44
19650 24.6490 69.85 59.41 8.44
19651 24.6500 64.23 59.38 8.07
19652 24.6510 61.18 59.36 7.92
19653 24.6520 55.76 59.34 7.61
19654 24.6530 65.23 59.32 8.26
19655 24.6540 77.20 59.30 8.94
19656 24.6550 52.50 59.28 7.33
19657 24.6560 74.57 59.26 8.71
19658 24.6570 68.65 59.24 8.36
19659 24.6580 69.23 59.22 8.43
19660 24.6590 65.50 59.20 8.18
19661 24.6600 62.08 59.19 7.91
19662 24.6610 70.07 59.17 8.42
19663 24.6620 69.11 59.16 8.43
19664 24.6630 64.11 59.14 8.16
19665 24.6640 49.73 59.12 7.16
19666 24.6650 73.76 59.11 8.68
19667 24.6660 64.37 59.10 8.11
19668 24.6670 58.82 59.08 7.78
19669 24.6680 63.53 59.07 8.09
19670 24.6690 71.00 59.05 8.47
19671 24.6700 60.89 59.04 7.84
19672 24.6710 90.69 59.03 9.60
19673 24.6720 76.03 59.01 8.86
19674 24.6730 59.67 59.00 7.91
19675 24.6740 62.61 58.99 8.05
19676 24.6750 52.73 58.98 7.38
19677 24.6760 62.73 58.97 8.03
19678 24.6770 64.63 58.95 8.15
19679 24.6780 56.20 58.94 7.61
19680 24.6790 62.48 58.93 7.97
19681 24.6800 62.67 58.92 7.97
19682 24.6810 60.34 58.91 7.83
19683 24.6820 65.46 58.90 8.22
19684 24.6830 64.81 58.89 8.21
19685 24.6840 52.85 58.88 7.39
19686 24.6850 55.18 58.87 7.51
19687 24.6860 73.62 58.86 8.63
19688 24.6870 60.07 58.85 7.87
19689 24.6880 66.87 58.84 8.29
19690 24.6890 61.43 58.83 7.90
19691 24.6900 72.49 58.82 8.55
19692 24.6910 67.28 58.81 8.28
19693 24.6920 72.73 58.80 8.66
19694 24.6930 70.43 58.79 8.55
19695 24.6940 64.56 58.78 8.14
19696 24.6950 73.50 58.77 8.66
19697 24.6960 75.95 58.76 8.82
19698 24.6970 84.21 58.75 9.29
19699 24.6980 59.89 58.75 7.86
19700 24.6990 84.85 58.74 9.32
19701 24.7000 77.27 58.73 8.88
19702 24.7010 66.93 58.72 8.24
19703 24.7020 67.38 58.71 8.37
19704 24.7030 68.15 58.70 8.45
19705 24.7040 55.16 58.70 7.56
19706 24.7050 53.98 58.69 7.44
19707 24.7060 70.79 58.68 8.50
19708 24.7070 66.42 58.67 8.23
19709 24.7080 64.31 58.66 8.11
19710 24.7090 73.80 58.66 8.66
19711 24.7100 67.94 58.65 8.24
19712 24.7110 72.21 58.64 8.54
19713 24.7120 64.09 58.63 8.12
19714 24.7130 58.45 58.63 7.80
19715 24.7140 58.97 58.62 7.80
19716 24.7150 63.30 58.61 8.08
19717 24.7160 61.73 58.60 7.95
19718 24.7170 62.85 58.60 8.00
19719 24.7180 65.79 58.59 8.20
19720 24.7190 69.82 58.58 8.45
19721 24.7200 58.03 58.58 7.68
19722 24.7210 80.76 58.57 9.05
19723 24.7220 66.43 58.56 8.30
19724 24.7230 67.64 58.56 8.42
19725 24.7240 69.76 58.55 8.51
19726 24.7250 68.10 58.54 8.34
19727 24.7260 66.23 58.54 8.20
19728 24.7270 76.42 58.53 8.86
19729 24.7280 62.30 58.52 7.99
19730 24.7290 55.74 58.52 7.55
19731 24.7300 62.91 58.51 7.98
19732 24.7310 71.14 58.51 8.48
19733 24.7320 66.42 58.50 8.30
19734 24.7330 64.70 58.49 8.21
19735 24.7340 64.61 58.49 8.14
19736 24.7350 71.31 58.48 8.50
19737 24.7360 47.81 58.47 6.99
19738 24.7370 55.06 58.47 7.50
19739 24.7380 57.14 58.46 7.65
19740 24.7390 56.78 58.46 7.60
19741 24.7400 75.84 58.45 8.79
19742 24.7410 72.33 58.45 8.54
19743 24.7420 62.58 58.44 8.04
19744 24.7430 72.68 58.43 8.69
19745 24.7440 67.39 58.43 8.34
19746 24.7450 62.22 58.42 7.96
19747 24.7460 76.83 58.42 8.84
19748 24.7470 72.44 58.41 8.64
19749 24.7480 59.72 58.41 7.83
19750 24.7490 69.30 58.40 8.39
19751 24.7500 66.38 58.40 8.19
19752 24.7510 53.92 58.39 7.43
19753 24.7520 58.28 58.39 7.77
19754 24.7530 56.82 58.38 7.71
19755 24.7540 73.30 58.38 8.71
19756 24.7550 72.34 58.37 8.61
19757 24.7560 68.46 58.37 8.37
19758 24.7570 77.64 58.36 8.92
19759 24.7580 66.06 58.36 8.20
19760 24.7590 64.07 58.35 8.07
19761 24.7600 71.69 58.35 8.49
19762 24.7610 76.06 58.35 8.76
19763 24.7620 65.13 58.34 8.19
19764 24.7630 56.51 58.34 7.68
19765 24.7640 63.18 58.33 8.08
19766 24.7650 74.40 58.33 8.76
19767 24.7660 59.71 58.33 7.81
19768 24.7670 74.74 58.32 8.73
19769 24.7680 60.15 58.32 7.84
19770 24.7690 61.72 58.31 7.91
19771 24.7700 63.42 58.31 7.95
19772 24.7710 63.45 58.31 8.02
19773 24.7720 71.32 58.30 8.62
19774 24.7730 70.41 58.30 8.56
19775 24.7740 69.43 58.30 8.45
19776 24.7750 53.99 58.29 7.45
19777 24.7760 76.63 58.29 8.86
19778 24.7770 74.48 58.29 8.75
19779 24.7780 62.27 58.28 8.00
19780 24.7790 65.70 58.28 8.17
19781 24.7800 59.70 58.28 7.77
19782 24.7810 66.73 58.28 8.23
19783 24.7820 67.84 58.27 8.34
19784 24.7830 64.76 58.27 8.18
19785 24.7840 57.82 58.27 7.73
19786 24.7850 66.96 58.27 8.26
19787 24.7860 61.02 58.27 7.83
19788 24.7870 59.71 58.26 7.81
19789 24.7880 80.05 58.26 9.04
19790 24.7890 76.43 58.26 8.82
19791 24.7900 75.41 58.26 8.71
19792 24.7910 61.32 58.26 7.85
19793 24.7920 63.84 58.26 8.11
19794 24.7930 57.98 58.26 7.74
19795 24.7940 80.21 58.26 9.05
19796 24.7950 69.98 58.25 8.45
19797 24.7960 69.56 58.25 8.46
19798 24.7970 67.49 58.25 8.35
19799 24.7980 72.31 58.25 8.65
19800 24.7990 70.09 58.25 8.48
19801 24.8000 64.22 58.25 8.07
19802 24.8010 61.26 58.26 7.88
19803 24.8020 57.20 58.26 7.67
19804 24.8030 45.90 58.26 6.91
19805 24.8040 54.14 58.26 7.46
19806 24.8050 55.57 58.26 7.55
19807 24.8060 63.17 58.26 8.01
19808 24.8070 54.62 58.26 7.48
19809 24.8080 69.89 58.27 8.43
19810 24.8090 67.88 58.27 8.28
19811 24.8100 76.00 58.27 8.70
19812 24.8110 64.16 58.27 8.01
19813 24.8120 62.22 58.28 8.02
19814 24.8130 62.11 58.28 8.03
19815 24.8140 62.40 58.29 8.04
19816 24.8150 61.85 58.29 7.96
19817 24.8160 60.23 58.30 7.83
19818 24.8170 69.47 58.30 8.40
19819 24.8180 58.06 58.31 7.69
19820 24.8190 64.15 58.31 8.06
19821 24.8200 71.82 58.32 8.54
19822 24.8210 63.10 58.33 8.02
19823 24.8220 66.92 58.33 8.35
19824 24.8230 73.38 58.34 8.77
19825 24.8240 67.97 58.35 8.39
19826 24.8250 56.80 58.36 7.63
19827 24.8260 58.39 58.37 7.67
19828 24.8270 62.15 58.38 7.98
19829 24.8280 61.66 58.39 7.93
19830 24.8290 57.60 58.40 7.64
19831 24.8300 63.87 58.41 8.02
19832 24.8310 79.92 58.43 8.99
19833 24.8320 68.25 58.44 8.38
19834 24.8330 68.35 58.45 8.40
19835 24.8340 86.32 58.47 9.34
19836 24.8350 63.18 58.49 7.99
19837 24.8360 54.48 58.50 7.42
19838 24.8370 68.96 58.52 8.36
19839 24.8380 68.32 58.54 8.35
19840 24.8390 62.28 58.56 7.97
19841 24.8400 68.95 58.58 8.35
19842 24.8410 68.39 58.60 8.32
19843 24.8420 63.95 58.63 8.09
19844 24.8430 57.42 58.65 7.70
19845 24.8440 81.48 58.68 9.14
19846 24.8450 55.48 58.71 7.55
19847 24.8460 64.64 58.74 8.12
19848 24.8470 64.61 58.77 8.14
19849 24.8480 65.50 58.80 8.21
19850 24.8490 61.06 58.84 7.88
19851 24.8500 70.32 58.88 8.41
19852 24.8510 61.52 58.92 7.89
19853 24.8520 65.86 58.96 8.22
19854 24.8530 72.30 59.01 8.66
19855 24.8540 70.42 59.06 8.49
19856 24.8550 67.67 59.11 8.31
19857 24.8560 64.38 59.16 8.10
19858 24.8570 63.13 59.22 8.01
19859 24.8580 64.56 59.28 8.07
19860 24.8590 63.65 59.35 8.00
19861 24.8600 89.55 59.42 9.47
19862 24.8610 69.21 59.49 8.37
19863 24.8620 58.23 59.57 7.75
19864 24.8630 66.13 59.66 8.31
19865 24.8640 63.91 59.75 8.12
19866 24.8650 60.01 59.85 7.82
19867 24.8660 73.44 59.96 8.61
19868 24.8670 57.98 60.07 7.68
19869 24.8680 71.00 60.19 8.51
19870 24.8690 80.11 60.33 8.99
19871 24.8700 63.27 60.47 7.99
19872 24.8710 63.82 60.62 8.05
19873 24.8720 60.65 60.79 7.94
19874 24.8730 55.36 60.97 7.58
19875 24.8740 64.98 61.17 8.17
19876 24.8750 74.79 61.39 8.73
19877 24.8760 59.30 61.63 7.77
19878 24.8770 72.07 61.89 8.57
19879 24.8780 60.60 62.17 7.90
19880 24.8790 66.09 62.48 8.19
19881 24.8800 71.06 62.83 8.46
19882 24.8810 78.86 63.21 8.94
19883 24.8820 76.32 63.64 8.83
19884 24.8830 77.59 64.12 8.93
19885 24.8840 66.70 64.65 8.28
19886 24.8850 55.00 65.25 7.47
19887 24.8860 60.17 65.92 7.82
19888 24.8870 77.33 66.69 8.89
19889 24.8880 77.28 67.57 8.90
19890 24.8890 77.74 68.58 8.87
19891 24.8900 69.98 69.75 8.40
19892 24.8910 79.72 71.11 8.97
19893 24.8920 84.08 72.72 9.29
19894 24.8930 75.55 74.64 8.87
19895 24.8940 71.95 76.95 8.58
19896 24.8950 89.54 79.77 9.57
19897 24.8960 78.07 83.22 8.94
19898 24.8970 107.46 87.47 10.49
19899 24.8980 96.38 92.72 9.93
19900 24.8990 111.64 99.19 10.60
19901 24.9000 99.15 107.08 9.99
19902 24.9010 115.23 116.58 10.78
19903 24.9020 125.04 127.74 11.35
19904 24.9030 126.16 140.15 11.45
19905 24.9040 125.59 153.00 11.35
19906 24.9050 121.36 165.05 11.10
19907 24.9060 149.72 175.09 12.27
19908 24.9070 159.23 182.93 12.69
19909 24.9080 185.10 189.33 13.71
19910 24.9090 203.82 194.93 14.28
19911 24.9100 179.43 199.31 13.36
19912 24.9110 197.03 200.62 14.12
19913 24.9120 186.54 196.77 13.81
19914 24.9130 177.45 187.12 13.59
19915 24.9140 161.68 173.16 12.86
19916 24.9150 158.73 157.35 12.69
19917 24.9160 150.10 141.89 12.33
19918 24.9170 124.97 128.04 11.28
19919 24.9180 129.65 116.23 11.54
19920 24.9190 119.46 106.43 11.00
19921 24.9200 103.75 98.47 10.26
19922 24.9210 89.53 92.05 9.53
19923 24.9220 85.51 86.86 9.39
19924 24.9230 91.57 82.71 9.78
19925 24.9240 81.01 79.34 9.14
19926 24.9250 89.25 76.59 9.53
19927 24.9260 97.40 74.32 9.94
19928 24.9270 81.83 72.43 9.14
19929 24.9280 79.47 70.83 9.04
19930 24.9290 77.93 69.48 8.86
19931 24.9300 79.89 68.36 8.98
19932 24.9310 70.47 67.35 8.44
19933 24.9320 53.99 66.46 7.49
19934 24.9330 63.84 65.68 8.13
19935 24.9340 62.21 65.00 7.98
19936 24.9350 70.34 64.50 8.47
19937 24.9360 74.68 63.95 8.72
19938 24.9370 55.51 63.46 7.53
19939 24.9380 56.70 63.02 7.61
19940 24.9390 60.98 62.63 7.87
19941 24.9400 56.52 62.27 7.55
19942 24.9410 73.33 61.94 8.60
19943 24.9420 66.01 61.64 8.26
19944 24.9430 80.73 61.37 9.15
19945 24.9440 53.44 61.12 7.44
19946 24.9450 85.02 60.89 9.31
19947 24.9460 72.84 60.68 8.59
19948 24.9470 65.63 60.49 8.21
19949 24.9480 47.94 60.31 7.05
19950 24.9490 66.39 60.14 8.23
19951 24.9500 70.48 59.98 8.44
19952 24.9510 65.09 59.84 8.12
19953 24.9520 51.44 59.70 7.29
19954 24.9530 63.16 59.58 8.11
19955 24.9540 74.31 59.46 8.73
19956 24.9550 65.13 59.35 8.12
19957 24.9560 57.48 59.24 7.68
19958 24.9570 65.32 59.15 8.15
19959 24.9580 53.86 59.05 7.44
19960 24.9590 55.11 58.97 7.46
19961 24.9600 64.02 58.88 8.00
19962 24.9610 54.44 58.81 7.44
19963 24.9620 60.06 58.73 7.87
19964 24.9630 55.81 58.66 7.62
19965 24.9640 66.10 58.60 8.26
19966 24.9650 62.60 58.53 8.00
19967 24.9660 60.22 58.47 7.85
19968 24.9670 68.51 58.42 8.36
19969 24.9680 73.84 58.36 8.71
19970 24.9690 77.55 58.31 8.85
19971 24.9700 61.42 58.26 7.91
19972 24.9710 55.45 58.21 7.50
19973 24.9720 60.06 58.17 7.87
19974 24.9730 60.06 58.12 7.92
19975 24.9740 53.98 58.08 7.48
19976 24.9750 68.05 58.04 8.37
19977 24.9760 61.53 58.00 7.94
19978 24.9770 70.99 57.97 8.54
19979 24.9780 71.92 57.93 8.61
19980 24.9790 66.97 57.90 8.25
19981 24.9800 76.26 57.86 8.73
19982 24.9810 66.25 57.83 8.20
19983 24.9820 61.45 57.80 7.94
19984 24.9830 69.78 57.77 8.52
19985 24.9840 62.45 57.74 8.03
19986 24.9850 53.49 57.72 7.39
19987 24.9860 66.37 57.69 8.22
19988 24.9870 66.83 57.66 8.29
19989 24.9880 47.65 57.64 7.00
19990 24.9890 60.02 57.61 7.81
19991 24.9900 62.64 57.59 7.95
19992 24.9910 68.17 57.57 8.31
19993 24.9920 73.84 57.55 8.74
19994 24.9930 65.38 57.53 8.28
19995 24.9940 67.19 57.50 8.32
19996 24.9950 62.02 57.48 7.98
19997 24.9960 71.24 57.46 8.54
19998 24.9970 68.66 57.45 8.36
19999 24.9980 68.27 57.43 8.37
20000 24.9990 71.11 57.41 8.51
20001 25.0000 70.57 57.39 8.47
20002 25.0010 64.35 57.37 8.07
20003 25.0020 63.98 57.36 8.14
20004 25.0030 69.67 57.34 8.51
20005 25.0040 68.06 57.33 8.37
20006 25.0050 68.14 57.31 8.34
20007 25.0060 62.78 57.30 7.98
20008 25.0070 65.51 57.28 8.16
20009 25.0080 65.37 57.27 8.15
20010 25.0090 65.34 57.25 8.13
20011 25.0100 60.32 57.24 7.78
20012 25.0110 51.54 57.22 7.24
20013 25.0120 52.68 57.21 7.39
20014 25.0130 67.71 57.20 8.37
20015 25.0140 71.84 57.19 8.60
20016 25.0150 58.18 57.17 7.70
20017 25.0160 58.19 57.16 7.69
20018 25.0170 58.96 57.15 7.76
20019 25.0180 59.22 57.14 7.81
20020 25.0190 61.60 57.13 7.92
20021 25.0200 56.90 57.12 7.60
20022 25.0210 70.39 57.11 8.46
20023 25.0220 73.18 57.10 8.67
20024 25.0230 64.34 57.08 8.21
20025 25.0240 58.34 57.07 7.76
20026 25.0250 59.70 57.06 7.80
20027 25.0260 61.76 57.05 7.93
20028 25.0270 69.31 57.05 8.43
20029 25.0280 66.76 57.04 8.26
20030 25.0290 62.84 57.03 7.96
20031 25.0300 74.68 57.02 8.65
20032 25.0310 69.20 57.01 8.39
20033 25.0320 66.50 57.00 8.24
20034 25.0330 73.36 56.99 8.70
20035 25.0340 74.05 56.98 8.72
20036 25.0350 68.95 56.97 8.39
20037 25.0360 58.76 56.97 7.74
20038 25.0370 44.38 56.96 6.75
20039 25.0380 72.10 56.95 8.57
20040 25.0390 71.80 56.94 8.56
20041 25.0400 67.46 56.94 8.28
20042 25.0410 72.02 56.93 8.51
20043 25.0420 58.61 56.92 7.78
20044 25.0430 62.34 56.91 8.07
20045 25.0440 58.88 56.91 7.81
20046 25.0450 75.85 56.90 8.82
20047 25.0460 74.30 56.89 8.73
20048 25.0470 77.25 56.89 8.90
20049 25.0480 71.29 56.88 8.56
20050 25.0490 55.40 56.88 7.50
20051 25.0500 69.05 56.87 8.32
20052 25.0510 56.68 56.86 7.58
20053 25.0520 60.96 56.86 7.94
20054 25.0530 73.22 56.85 8.72
20055 25.0540 76.89 56.85 8.89
20056 25.0550 69.13 56.84 8.38
20057 25.0560 65.17 56.83 8.14
20058 25.0570 71.94 56.83 8.52
20059 25.0580 69.34 56.82 8.38
20060 25.0590 58.64 56.82 7.72
20061 25.0600 66.21 56.81 8.17
20062 25.0610 71.32 56.81 8.51
20063 25.0620 65.63 56.80 8.22
20064 25.0630 57.04 56.80 7.71
20065 25.0640 67.33 56.80 8.31
20066 25.0650 53.79 56.79 7.41
20067 25.0660 53.83 56.79 7.37
20068 25.0670 69.00 56.78 8.40
20069 25.0680 69.49 56.78 8.42
20070 25.0690 66.89 56.77 8.23
20071 25.0700 64.13 56.77 8.04
20072 25.0710 66.03 56.77 8.16
20073 25.0720 74.66 56.76 8.78
20074 25.0730 57.95 56.76 7.78
20075 25.0740 53.25 56.76 7.41
20076 25.0750 62.33 56.75 7.96
20077 25.0760 40.13 56.75 6.41
20078 25.0770 59.25 56.75 7.78
20079 25.0780 79.72 56.74 9.02
20080 25.0790 70.20 56.74 8.41
20081 25.0800 64.56 56.74 8.06
20082 25.0810 75.01 56.74 8.70
20083 25.0820 65.46 56.73 8.17
20084 25.0830 60.77 56.73 7.95
20085 25.0840 62.45 56.73 8.01
20086 25.0850 61.53 56.73 7.92
20087 25.0860 59.63 56.73 7.80
20088 25.0870 50.16 56.72 7.17
20089 25.0880 65.80 56.72 8.23
20090 25.0890 61.50 56.72 7.91
20091 25.0900 56.07 56.72 7.52
20092 25.0910 56.74 56.72 7.59
20093 25.0920 66.22 56.72 8.24
20094 25.0930 87.81 56.72 9.55
20095 25.0940 82.07 56.72 9.19
20096 25.0950 73.88 56.72 8.65
20097 25.0960 64.30 56.71 8.10
20098 25.0970 65.76 56.71 8.20
20099 25.0980 71.54 56.71 8.59
20100 25.0990 65.79 56.71 8.16
20101 25.1000 60.43 56.71 7.81
20102 25.1010 65.53 56.71 8.16
20103 25.1020 63.56 56.72 8.07
20104 25.1030 59.66 56.72 7.87
20105 25.1040 57.39 56.72 7.65
20106 25.1050 64.93 56.72 8.14
20107 25.1060 66.15 56.72 8.18
20108 25.1070 70.61 56.72 8.49
20109 25.1080 80.68 56.72 9.05
20110 25.1090 62.59 56.72 7.94
20111 25.1100 51.30 56.72 7.19
20112 25.1110 66.81 56.73 8.24
20113 25.1120 57.37 56.73 7.67
20114 25.1130 63.87 56.73 8.15
20115 25.1140 50.48 56.73 7.20
20116 25.1150 74.68 56.74 8.73
20117 25.1160 55.01 56.74 7.47
20118 25.1170 68.97 56.74 8.41
20119 25.1180 65.49 56.75 8.18
20120 25.1190 65.91 56.75 8.19
20121 25.1200 62.17 56.75 7.91
20122 25.1210 59.64 56.76 7.77
20123 25.1220 59.66 56.76 7.84
20124 25.1230 63.31 56.77 8.13
20125 25.1240 71.81 56.77 8.57
20126 25.1250 77.52 56.78 8.90
20127 25.1260 63.80 56.78 8.04
20128 25.1270 60.00 56.79 7.85
20129 25.1280 69.82 56.79 8.45
20130 25.1290 53.91 56.80 7.38
20131 25.1300 59.96 56.81 7.75
20132 25.1310 84.80 56.81 9.23
20133 25.1320 71.07 56.82 8.51
20134 25.1330 72.10 56.83 8.63
20135 25.1340 71.36 56.84 8.56
20136 25.1350 60.21 56.84 7.83
20137 25.1360 77.08 56.85 8.84
20138 25.1370 61.91 56.86 7.94
20139 25.1380 73.69 56.87 8.67
20140 25.1390 67.68 56.88 8.26
20141 25.1400 64.61 56.89 8.08
20142 25.1410 61.96 56.90 7.91
20143 25.1420 63.00 56.91 8.08
20144 25.1430 65.17 56.92 8.24
20145 25.1440 54.74 56.93 7.51
20146 25.1450 74.53 56.95 8.70
20147 25.1460 68.75 56.96 8.35
20148 25.1470 60.18 56.97 7.88
20149 25.1480 62.25 56.99 7.98
20150 25.1490 73.82 57.00 8.64
20151 25.1500 62.44 57.01 7.92
20152 25.1510 74.51 57.03 8.69
20153 25.1520 64.53 57.05 8.11
20154 25.1530 63.84 57.06 8.14
20155 25.1540 73.02 57.08 8.64
20156 25.1550 77.38 57.10 8.86
20157 25.1560 66.70 57.11 8.23
20158 25.1570 62.90 57.13 8.01
20159 25.1580 69.23 57.15 8.38
20160 25.1590 55.91 57.17 7.53
20161 25.1600 50.44 57.19 7.13
20162 25.1610 67.13 57.22 8.24
20163 25.1620 66.72 57.24 8.30
20164 25.1630 64.40 57.26 8.16
20165 25.1640 69.23 57.29 8.42
20166 25.1650 81.25 57.31 9.10
20167 25.1660 70.48 57.34 8.48
20168 25.1670 81.45 57.36 9.13
20169 25.1680 68.20 57.39 8.36
20170 25.1690 52.59 57.42 7.31
20171 25.1700 64.57 57.45 8.09
20172 25.1710 68.30 57.48 8.34
20173 25.1720 59.04 57.51 7.80
20174 25.1730 71.17 57.55 8.62
20175 25.1740 60.26 57.58 7.89
20176 25.1750 62.91 57.62 8.02
20177 25.1760 71.50 57.66 8.51
20178 25.1770 69.73 57.70 8.45
20179 25.1780 48.06 57.74 6.99
20180 25.1790 70.64 57.78 8.46
20181 25.1800 67.44 57.82 8.23
20182 25.1810 59.83 57.87 7.76
20183 25.1820 67.52 57.92 8.32
20184 25.1830 64.48 57.97 8.18
20185 25.1840 63.75 58.02 8.09
20186 25.1850 62.08 58.07 7.95
20187 25.1860 58.44 58.13 7.72
20188 25.1870 79.82 58.18 9.04
20189 25.1880 63.05 58.24 8.03
20190 25.1890 71.25 58.31 8.51
20191 25.1900 66.41 58.37 8.17
20192 25.1910 77.58 58.44 8.88
20193 25.1920 74.60 58.51 8.76
20194 25.1930 68.28 58.58 8.44
20195 25.1940 61.98 58.66 8.01
20196 25.1950 57.38 58.74 7.66
20197 25.1960 57.29 58.82 7.64
20198 25.1970 54.55 58.91 7.51
20199 25.1980 60.06 59.00 7.86
20200 25.1990 67.10 59.10 8.26
20201 25.2000 64.30 59.20 8.04
20202 25.2010 65.80 59.30 8.16
20203 25.2020 85.03 59.41 9.32
20204 25.2030 67.28 59.52 8.36
20205 25.2040 63.15 59.64 8.02
20206 25.2050 68.86 59.77 8.36
20207 25.2060 67.01 59.90 8.26
20208 25.2070 82.50 60.04 9.17
20209 25.2080 59.05 60.18 7.76
20210 25.2090 64.30 60.34 8.05
20211 25.2100 71.21 60.50 8.49
20212 25.2110 59.78 60.67 7.77
20213 25.2120 76.29 60.85 8.89
20214 25.2130 67.64 61.03 8.37
20215 25.2140 62.86 61.23 8.08
20216 25.2150 72.10 61.44 8.62
20217 25.2160 63.51 61.67 8.05
20218 25.2170 65.02 61.90 8.19
20219 25.2180 70.69 62.15 8.53
20220 25.2190 59.05 62.41 7.76
20221 25.2200 67.75 62.69 8.29
20222 25.2210 73.25 62.99 8.61
20223 25.2220 63.20 63.31 8.08
20224 25.2230 68.22 63.65 8.45
20225 25.2240 78.71 64.01 9.02
20226 25.2250 73.94 64.40 8.69
20227 25.2260 57.31 64.81 7.64
20228 25.2270 78.02 65.25 8.93
20229 25.2280 80.94 65.72 9.09
20230 25.2290 76.18 66.23 8.76
20231 25.2300 67.26 66.78 8.21
20232 25.2310 72.90 67.37 8.60
20233 25.2320 67.37 68.01 8.31
20234 25.2330 76.44 68.70 8.91
20235 25.2340 99.21 69.45 10.10
20236 25.2350 67.21 70.26 8.28
20237 25.2360 76.08 71.15 8.80
20238 25.2370 79.81 72.12 9.01
20239 25.2380 78.99 73.16 9.00
20240 25.2390 83.50 74.32 9.21
20241 25.2400 84.07 75.60 9.22
20242 25.2410 95.50 77.01 9.87
20243 25.2420 88.12 78.58 9.52
20244 25.2430 84.37 80.32 9.41
20245 25.2440 86.20 82.24 9.45
20246 25.2450 100.97 84.42 10.12
20247 25.2460 93.54 86.86 9.77
20248 25.2470 91.54 89.63 9.68
20249 25.2480 105.30 92.78 10.36
20250 25.2490 105.67 96.38 10.30
20251 25.2500 109.95 100.54 10.54
20252 25.2510 120.80 105.36 11.03
20253 25.2520 114.94 111.02 10.84
20254 25.2530 127.68 117.72 11.48
20255 25.2540 139.09 125.72 11.89
20256 25.2550 168.81 135.38 13.10
20257 25.2560 171.97 147.18 13.19
20258 25.2570 162.59 161.59 12.86
20259 25.2580 202.95 179.30 14.41
20260 25.2590 184.97 201.16 13.70
20261 25.2600 202.87 227.84 14.26
20262 25.2610 249.79 260.13 15.86
20263 25.2620 270.73 298.50 16.67
20264 25.2630 303.61 342.44 17.78
20265 25.2640 346.39 389.92 18.88
20266 25.2650 421.32 437.49 20.76
20267 25.2660 451.78 480.91 21.46
20268 25.2670 498.11 517.85 22.58
20269 25.2680 560.25 549.01 24.05
20270 25.2690 591.04 576.00 24.45
20271 25.2700 569.15 597.37 24.00
20272 25.2710 593.29 606.81 24.52
20273 25.2720 546.73 596.78 23.69
20274 25.2730 472.73 564.02 22.13
20275 25.2740 429.75 513.35 21.03
20276 25.2750 404.66 453.92 20.25
20277 25.2760 329.90 394.25 18.24
20278 25.2770 306.80 339.84 17.67
20279 25.2780 260.12 292.98 16.27
20280 25.2790 237.00 253.80 15.41
20281 25.2800 226.29 221.72 15.09
20282 25.2810 191.85 195.76 13.87
20283 25.2820 202.22 174.78 14.43
20284 25.2830 159.46 157.87 12.87
20285 25.2840 152.50 144.21 12.49
20286 25.2850 140.92 133.05 11.99
20287 25.2860 134.82 123.89 11.70
20288 25.2870 126.29 116.25 11.38
20289 25.2880 137.09 109.85 11.82
20290 25.2890 117.79 104.40 10.90
20291 25.2900 103.30 99.72 10.24
20292 25.2910 106.72 95.68 10.42
20293 25.2920 92.88 92.16 9.80
20294 25.2930 82.59 89.07 9.30
20295 25.2940 93.56 86.34 9.83
20296 25.2950 92.91 83.92 9.72
20297 25.2960 84.22 81.77 9.25
20298 25.2970 76.87 79.84 8.89
20299 25.2980 76.76 78.11 8.88
20300 25.2990 72.32 76.55 8.56
20301 25.3000 84.40 75.14 9.20
20302 25.3010 78.45 73.86 8.91
20303 25.3020 85.14 72.70 9.38
20304 25.3030 74.89 71.64 8.82
20305 25.3040 83.99 70.66 9.28
20306 25.3050 74.21 69.77 8.70
20307 25.3060 63.47 68.95 8.03
20308 25.3070 73.63 68.20 8.70
20309 25.3080 79.85 67.50 9.05
20310 25.3090 81.14 66.85 9.07
20311 25.3100 65.14 66.25 8.13
20312 25.3110 79.58 65.70 8.99
20313 25.3120 67.63 65.18 8.32
20314 25.3130 88.93 64.70 9.60
20315 25.3140 68.00 64.25 8.40
20316 25.3150 63.22 63.82 8.04
20317 25.3160 77.78 63.43 8.93
20318 25.3170 76.22 63.06 8.84
20319 25.3180 71.64 62.71 8.62
20320 25.3190 74.22 62.38 8.68
20321 25.3200 61.36 62.07 7.90
20322 25.3210 74.33 61.78 8.68
20323 25.3220 79.05 61.51 9.04
20324 25.3230 73.47 61.30 8.77
20325 25.3240 69.77 61.05 8.47
20326 25.3250 67.95 60.82 8.34
20327 25.3260 63.08 60.63 8.06
20328 25.3270 71.53 60.42 8.53
20329 25.3280 72.00 60.22 8.57
20330 25.3290 85.18 60.03 9.27
20331 25.3300 65.34 59.85 8.12
20332 25.3310 70.15 59.68 8.43
20333 25.3320 71.19 59.51 8.57
20334 25.3330 72.05 59.36 8.66
20335 25.3340 55.71 59.21 7.60
20336 25.3350 80.92 59.07 9.10
20337 25.3360 73.81 58.93 8.66
20338 25.3370 59.71 58.80 7.82
20339 25.3380 69.27 58.67 8.44
20340 25.3390 68.10 58.55 8.32
20341 25.3400 60.13 58.44 7.82
20342 25.3410 66.04 58.33 8.20
20343 25.3420 84.32 58.22 9.36
20344 25.3430 66.14 58.12 8.30
20345 25.3440 59.20 58.02 7.82
20346 25.3450 71.02 57.93 8.54
20347 25.3460 69.32 57.84 8.42
20348 25.3470 75.92 57.75 8.80
20349 25.3480 82.11 57.67 9.18
20350 25.3490 79.05 57.59 8.99
20351 25.3500 61.46 57.51 7.89
20352 25.3510 67.20 57.43 8.26
20353 25.3520 69.28 57.36 8.45
20354 25.3530 69.02 57.29 8.50
20355 25.3540 68.32 57.22 8.38
20356 25.3550 70.85 57.15 8.52
20357 25.3560 74.03 57.09 8.67
20358 25.3570 56.04 57.03 7.56
20359 25.3580 59.60 56.97 7.83
20360 25.3590 59.28 56.91 7.77
20361 25.3600 55.44 56.85 7.50
20362 25.3610 50.87 56.80 7.20
20363 25.3620 75.27 56.75 8.83
20364 25.3630 54.90 56.70 7.57
20365 25.3640 65.18 56.65 8.23
20366 25.3650 81.38 56.60 9.17
20367 25.3660 68.30 56.55 8.36
20368 25.3670 75.41 56.50 8.81
20369 25.3680 51.47 56.46 7.31
20370 25.3690 55.55 56.42 7.54
20371 25.3700 61.87 56.37 7.94
20372 25.3710 70.80 56.33 8.51
20373 25.3720 78.51 56.29 9.00
20374 25.3730 58.86 56.26 7.84
20375 25.3740 64.05 56.22 8.14
20376 25.3750 66.66 56.18 8.26
20377 25.3760 76.44 56.14 8.82
20378 25.3770 69.30 56.11 8.42
20379 25.3780 66.49 56.08 8.28
20380 25.3790 82.09 56.04 9.11
20381 25.3800 64.34 56.01 8.05
20382 25.3810 66.53 55.98 8.22
20383 25.3820 69.09 55.95 8.44
20384 25.3830 66.41 55.92 8.32
20385 25.3840 60.70 55.89 7.92
20386 25.3850 57.78 55.86 7.71
20387 25.3860 58.14 55.83 7.71
20388 25.3870 59.43 55.80 7.83
20389 25.3880 66.02 55.78 8.23
20390 25.3890 58.28 55.75 7.71
20391 25.3900 65.70 55.72 8.16
20392 25.3910 62.64 55.70 8.03
20393 25.3920 63.34 55.67 8.10
20394 25.3930 73.63 55.65 8.76
20395 25.3940 68.54 55.63 8.43
20396 25.3950 61.70 55.60 7.97
20397 25.3960 56.09 55.58 7.56
20398 25.3970 66.33 55.56 8.26
20399 25.3980 70.78 55.54 8.52
20400 25.3990 67.05 55.52 8.27
20401 25.4000 61.76 55.49 7.89
20402 25.4010 77.29 55.47 8.84
20403 25.4020 65.95 55.45 8.27
20404 25.4030 69.54 55.43 8.52
20405 25.4040 65.17 55.41 8.24
20406 25.4050 59.85 55.40 7.85
20407 25.4060 63.53 55.38 8.05
20408 25.4070 60.42 55.36 7.88
20409 25.4080 85.97 55.34 9.38
20410 25.4090 70.52 55.32 8.46
20411 25.4100 69.81 55.31 8.40
20412 25.4110 58.39 55.29 7.73
20413 25.4120 62.41 55.27 8.07
20414 25.4130 73.37 55.26 8.79
20415 25.4140 80.07 55.24 9.12
20416 25.4150 78.98 55.23 8.98
20417 25.4160 73.12 55.21 8.64
20418 25.4170 71.73 55.19 8.57
20419 25.4180 69.04 55.18 8.44
20420 25.4190 72.06 55.17 8.57
20421 25.4200 57.72 55.15 7.66
20422 25.4210 72.14 55.14 8.58
20423 25.4220 48.95 55.12 7.13
20424 25.4230 55.09 55.11 7.58
20425 25.4240 46.90 55.10 6.99
20426 25.4250 61.10 55.08 7.89
20427 25.4260 62.81 55.07 8.02
20428 25.4270 68.51 55.06 8.40
20429 25.4280 60.32 55.05 7.87
20430 25.4290 69.16 55.03 8.38
20431 25.4300 64.90 55.02 8.09
20432 25.4310 69.07 55.01 8.39
20433 25.4320 60.54 55.00 7.90
20434 25.4330 57.12 54.99 7.68
20435 25.4340 55.25 54.98 7.58
20436 25.4350 68.44 54.97 8.36
20437 25.4360 68.12 54.96 8.36
20438 25.4370 64.28 54.95 8.14
20439 25.4380 64.36 54.94 8.17
20440 25.4390 63.31 54.93 8.04
20441 25.4400 60.15 54.92 7.82
20442 25.4410 58.12 54.91 7.67
20443 25.4420 54.96 54.90 7.56
20444 25.4430 61.38 54.89 8.00
20445 25.4440 63.08 54.88 8.11
20446 25.4450 66.74 54.87 8.27
20447 25.4460 58.18 54.87 7.72
20448 25.4470 52.60 54.86 7.37
20449 25.4480 61.97 54.85 7.99
20450 25.4490 54.80 54.84 7.47
20451 25.4500 72.18 54.84 8.54
20452 25.4510 62.86 54.83 7.99
20453 25.4520 57.19 54.82 7.67
20454 25.4530 59.38 54.82 7.87
20455 25.4540 79.32 54.81 9.06
20456 25.4550 71.49 54.80 8.52
20457 25.4560 66.51 54.80 8.26
20458 25.4570 67.28 54.79 8.27
20459 25.4580 57.54 54.79 7.67
20460 25.4590 63.02 54.78 7.97
20461 25.4600 65.60 54.78 8.12
20462 25.4610 71.15 54.78 8.50
20463 25.4620 61.01 54.77 7.95
20464 25.4630 61.35 54.77 8.01
20465 25.4640 74.73 54.77 8.80
20466 25.4650 70.77 54.76 8.49
20467 25.4660 64.80 54.76 8.12
20468 25.4670 76.08 54.76 8.81
20469 25.4680 58.66 54.76 7.78
20470 25.4690 68.10 54.76 8.31
20471 25.4700 55.18 54.76 7.48
20472 25.4710 55.07 54.76 7.47
20473 25.4720 54.49 54.76 7.51
20474 25.4730 56.72 54.76 7.69
20475 25.4740 58.63 54.76 7.81
20476 25.4750 48.68 54.77 7.05
20477 25.4760 64.77 54.77 8.13
20478 25.4770 61.03 54.77 7.92
20479 25.4780 65.37 54.78 8.17
20480 25.4790 68.04 54.78 8.33
20481 25.4800 57.08 54.79 7.59
20482 25.4810 66.97 54.80 8.23
20483 25.4820 61.51 54.81 7.97
20484 25.4830 59.74 54.82 7.90
20485 25.4840 47.81 54.83 7.03
20486 25.4850 59.20 54.85 7.77
20487 25.4860 68.44 54.86 8.38
20488 25.4870 64.47 54.88 8.11
20489 25.4880 61.08 54.90 7.93
20490 25.4890 67.79 54.92 8.33
20491 25.4900 55.64 54.95 7.52
20492 25.4910 60.13 54.98 7.83
20493 25.4920 63.21 55.01 8.09
20494 25.4930 69.89 55.04 8.54
20495 25.4940 67.82 55.08 8.37
20496 25.4950 57.28 55.13 7.66
20497 25.4960 65.23 55.18 8.17
20498 25.4970 55.44 55.24 7.53
20499 25.4980 63.84 55.31 8.11
20500 25.4990 67.76 55.38 8.30
20501 25.5000 74.62 55.47 8.67
20502 25.5010 58.54 55.57 7.69
20503 25.5020 62.46 55.69 8.03
20504 25.5030 65.98 55.82 8.28
20505 25.5040 55.47 55.98 7.55
20506 25.5050 69.84 56.18 8.46
20507 25.5060 77.93 56.41 8.91
20508 25.5070 70.62 56.69 8.47
20509 25.5080 64.75 57.03 8.15
20510 25.5090 66.03 57.45 8.16
20511 25.5100 55.96 57.97 7.53
20512 25.5110 58.60 58.61 7.72
20513 25.5120 58.36 59.39 7.79
20514 25.5130 70.07 60.35 8.55
20515 25.5140 81.88 61.49 9.24
20516 25.5150 79.99 62.80 9.07
20517 25.5160 74.99 64.26 8.74
20518 25.5170 71.96 65.76 8.57
20519 25.5180 69.80 67.21 8.49
20520 25.5190 67.67 68.45 8.30
20521 25.5200 59.64 69.36 7.77
20522 25.5210 84.09 69.80 9.23
20523 25.5220 71.61 69.70 8.60
20524 25.5230 60.63 69.03 7.94
20525 25.5240 87.38 67.85 9.48
20526 25.5250 70.20 66.33 8.47
20527 25.5260 64.13 64.69 8.08
20528 25.5270 78.59 63.11 8.97
20529 25.5280 69.05 61.69 8.41
20530 25.5290 69.87 60.49 8.40
20531 25.5300 74.95 59.49 8.70
20532 25.5310 58.77 58.67 7.72
20533 25.5320 59.00 58.01 7.80
20534 25.5330 57.62 57.47 7.74
20535 25.5340 49.57 57.04 7.15
20536 25.5350 71.44 56.69 8.54
20537 25.5360 57.12 56.40 7.64
20538 25.5370 66.89 56.17 8.25
20539 25.5380 63.58 55.97 8.09
20540 25.5390 78.27 55.81 8.93
20541 25.5400 77.68 55.67 8.87
20542 25.5410 54.69 55.55 7.47
20543 25.5420 57.71 55.44 7.70
20544 25.5430 56.63 55.35 7.71
20545 25.5440 73.14 55.27 8.68
20546 25.5450 56.91 55.21 7.63
20547 25.5460 63.21 55.15 8.04
20548 25.5470 62.82 55.09 8.02
20549 25.5480 65.66 55.05 8.19
20550 25.5490 67.37 55.01 8.27
20551 25.5500 69.06 54.97 8.34
20552 25.5510 59.41 54.94 7.76
20553 25.5520 62.33 54.91 8.02
20554 25.5530 60.15 54.89 7.92
20555 25.5540 69.32 54.87 8.42
20556 25.5550 58.88 54.85 7.78
20557 25.5560 83.75 54.83 9.21
20558 25.5570 72.23 54.82 8.56
20559 25.5580 66.83 54.80 8.28
20560 25.5590 61.12 54.79 7.90
20561 25.5600 69.52 54.79 8.36
20562 25.5610 56.59 54.78 7.59
20563 25.5620 60.96 54.78 7.94
20564 25.5630 65.83 54.77 8.30
20565 25.5640 51.12 54.77 7.27
20566 25.5650 63.24 54.77 8.06
20567 25.5660 60.59 54.77 7.85
20568 25.5670 71.70 54.77 8.59
20569 25.5680 63.07 54.78 8.06
20570 25.5690 77.74 54.78 8.88
20571 25.5700 73.10 54.79 8.62
20572 25.5710 70.95 54.80 8.49
20573 25.5720 59.19 54.81 7.83
20574 25.5730 66.13 54.81 8.29
20575 25.5740 54.54 54.83 7.49
20576 25.5750 49.27 54.84 7.10
20577 25.5760 70.34 54.85 8.50
20578 25.5770 69.72 54.87 8.44
20579 25.5780 48.61 54.88 7.10
20580 25.5790 66.91 54.90 8.26
20581 25.5800 77.96 54.92 8.88
20582 25.5810 58.56 54.94 7.71
20583 25.5820 68.18 54.96 8.38
20584 25.5830 60.17 54.98 7.95
20585 25.5840 54.69 55.00 7.55
20586 25.5850 53.79 55.03 7.42
20587 25.5860 63.67 55.05 8.08
20588 25.5870 64.25 55.08 8.17
20589 25.5880 54.95 55.11 7.53
20590 25.5890 61.70 55.14 7.94
20591 25.5900 59.39 55.17 7.77
20592 25.5910 72.31 55.21 8.59
20593 25.5920 57.09 55.25 7.72
20594 25.5930 56.72 55.29 7.70
20595 25.5940 57.07 55.33 7.71
20596 25.5950 78.74 55.37 9.00
20597 25.5960 68.61 55.42 8.37
20598 25.5970 70.45 55.46 8.48
20599 25.5980 75.75 55.51 8.83
20600 25.5990 70.68 55.57 8.48
20601 25.6000 69.76 55.62 8.42
20602 25.6010 69.98 55.68 8.43
20603 25.6020 70.65 55.74 8.55
20604 25.6030 65.48 55.81 8.30
20605 25.6040 70.89 55.83 8.57
20606 25.6050 60.15 55.90 7.89
20607 25.6060 68.95 55.98 8.36
20608 25.6070 67.50 56.06 8.31
20609 25.6080 66.74 56.15 8.27
20610 25.6090 68.05 56.19 8.32
20611 25.6100 69.91 56.23 8.44
20612 25.6110 65.57 56.33 8.22
20613 25.6120 63.83 56.44 8.17
20614 25.6130 56.84 56.56 7.75
20615 25.6140 59.29 56.68 7.82
20616 25.6150 59.03 56.81 7.81
20617 25.6160 58.50 56.95 7.74
20618 25.6170 56.64 57.10 7.62
20619 25.6180 68.78 57.26 8.43
20620 25.6190 61.13 57.43 7.89
20621 25.6200 65.56 57.61 8.16
20622 25.6210 62.81 57.80 8.02
20623 25.6220 57.53 58.00 7.75
20624 25.6230 61.25 58.22 7.97
20625 25.6240 62.15 58.46 8.03
20626 25.6250 68.55 58.71 8.39
20627 25.6260 69.35 58.99 8.43
20628 25.6270 67.44 59.28 8.34
20629 25.6280 71.64 59.60 8.63
20630 25.6290 68.74 59.94 8.39
20631 25.6300 54.30 60.32 7.42
20632 25.6310 67.24 60.72 8.27
20633 25.6320 63.56 61.16 8.09
20634 25.6330 49.39 61.64 7.19
20635 25.6340 62.02 62.17 8.03
20636 25.6350 76.47 62.75 8.87
20637 25.6360 78.58 63.38 9.02
20638 25.6370 60.93 64.08 7.93
20639 25.6380 89.29 64.85 9.60
20640 25.6390 89.57 65.71 9.54
20641 25.6400 63.60 66.66 8.03
20642 25.6410 78.81 67.72 8.95
20643 25.6420 74.95 68.92 8.77
20644 25.6430 80.18 70.26 9.15
20645 25.6440 82.70 71.78 9.26
20646 25.6450 82.16 73.51 9.18
20647 25.6460 78.04 75.48 8.95
20648 25.6470 87.65 77.75 9.49
20649 25.6480 98.42 80.39 10.05
20650 25.6490 79.16 83.47 9.00
20651 25.6500 92.44 87.12 9.63
20652 25.6510 98.95 91.47 10.05
20653 25.6520 104.94 96.72 10.44
20654 25.6530 97.77 103.13 10.12
20655 25.6540 93.34 111.00 9.81
20656 25.6550 132.72 120.75 11.65
20657 25.6560 147.93 132.84 12.25
20658 25.6570 145.56 147.80 12.16
20659 25.6580 176.42 166.24 13.39
20660 25.6590 199.11 188.68 14.20
20661 25.6600 226.11 215.36 15.18
20662 25.6610 246.39 246.02 15.79
20663 25.6620 246.62 279.37 16.00
20664 25.6630 313.25 312.04 18.02
20665 25.6640 320.70 339.34 18.17
20666 25.6650 342.86 356.20 18.66
20667 25.6660 340.54 359.37 18.57
20668 25.6670 330.06 349.00 18.30
20669 25.6680 326.46 327.53 18.31
20670 25.6690 262.82 298.71 16.34
20671 25.6700 247.71 266.66 15.81
20672 25.6710 214.91 235.05 14.78
20673 25.6720 196.22 206.14 14.21
20674 25.6730 177.75 181.09 13.60
20675 25.6740 162.32 160.13 12.91
20676 25.6750 141.77 142.90 12.03
20677 25.6760 130.34 128.86 11.49
20678 25.6770 116.50 117.55 10.89
20679 25.6780 91.69 108.41 9.72
20680 25.6790 120.21 100.98 11.03
20681 25.6800 102.01 94.94 10.13
20682 25.6810 104.00 89.97 10.21
20683 25.6820 89.98 85.83 9.60
20684 25.6830 104.54 82.36 10.39
20685 25.6840 98.45 79.41 10.05
20686 25.6850 81.99 76.88 9.18
20687 25.6860 79.29 74.70 8.98
20688 25.6870 81.59 72.80 9.16
20689 25.6880 87.24 71.13 9.46
20690 25.6890 79.46 69.67 8.97
20691 25.6900 80.96 68.37 9.01
20692 25.6910 83.01 67.21 9.17
20693 25.6920 86.23 66.18 9.43
20694 25.6930 78.84 65.25 9.06
20695 25.6940 61.78 64.42 7.98
20696 25.6950 82.18 63.67 9.19
20697 25.6960 74.31 62.99 8.70
20698 25.6970 59.05 62.37 7.80
20699 25.6980 53.16 61.81 7.42
20700 25.6990 58.20 61.30 7.69
20701 25.7000 58.88 60.83 7.72
20702 25.7010 67.22 60.41 8.28
20703 25.7020 61.45 60.02 7.97
20704 25.7030 60.38 59.66 7.93
20705 25.7040 71.41 59.33 8.58
20706 25.7050 57.56 59.02 7.66
20707 25.7060 67.75 58.75 8.29
20708 25.7070 58.96 58.49 7.74
20709 25.7080 54.60 58.26 7.47
20710 25.7090 65.56 58.04 8.16
20711 25.7100 67.84 57.85 8.29
20712 25.7110 60.72 57.67 7.88
20713 25.7120 67.02 57.51 8.35
20714 25.7130 55.24 57.38 7.62
20715 25.7140 77.81 57.26 8.98
20716 25.7150 60.11 57.15 7.84
20717 25.7160 75.68 57.08 8.77
20718 25.7170 67.80 57.02 8.33
20719 25.7180 73.04 56.99 8.66
20720 25.7190 74.89 56.99 8.73
20721 25.7200 73.20 57.04 8.63
20722 25.7210 72.47 57.12 8.60
20723 25.7220 67.24 57.26 8.33
20724 25.7230 61.72 57.47 8.05
20725 25.7240 63.91 57.74 8.13
20726 25.7250 61.44 58.10 7.94
20727 25.7260 78.49 58.53 8.91
20728 25.7270 60.95 59.02 7.90
20729 25.7280 60.73 59.54 7.90
20730 25.7290 71.27 60.03 8.50
20731 25.7300 60.21 60.45 7.80
20732 25.7310 69.47 60.71 8.38
20733 25.7320 50.84 60.75 7.25
20734 25.7330 69.37 60.50 8.51
20735 25.7340 69.92 59.99 8.49
20736 25.7350 73.92 59.32 8.70
20737 25.7360 61.77 58.60 7.96
20738 25.7370 69.81 57.91 8.49
20739 25.7380 72.29 57.29 8.64
20740 25.7390 65.82 56.75 8.21
20741 25.7400 63.98 56.30 8.05
20742 25.7410 56.92 55.93 7.62
20743 25.7420 55.71 55.61 7.59
20744 25.7430 75.12 55.36 8.85
20745 25.7440 73.83 55.14 8.72
20746 25.7450 71.59 54.96 8.57
20747 25.7460 64.18 54.80 8.11
20748 25.7470 63.92 54.67 8.10
20749 25.7480 54.20 54.55 7.48
20750 25.7490 57.00 54.45 7.58
20751 25.7500 55.92 54.39 7.51
20752 25.7510 70.21 54.30 8.42
20753 25.7520 59.30 54.23 7.83
20754 25.7530 64.37 54.19 8.20
20755 25.7540 55.16 54.15 7.58
20756 25.7550 60.35 54.12 7.86
20757 25.7560 58.12 54.12 7.71
20758 25.7570 64.82 54.07 8.13
20759 25.7580 59.62 54.03 7.80
20760 25.7590 73.37 53.98 8.63
20761 25.7600 71.76 53.94 8.52
20762 25.7610 63.17 53.90 8.05
20763 25.7620 56.44 53.87 7.67
20764 25.7630 58.72 53.83 7.85
20765 25.7640 51.01 53.80 7.27
20766 25.7650 75.31 53.77 8.79
20767 25.7660 59.98 53.74 7.79
20768 25.7670 63.41 53.71 8.07
20769 25.7680 69.59 53.68 8.45
20770 25.7690 60.41 53.66 7.83
20771 25.7700 53.74 53.64 7.36
20772 25.7710 63.18 53.61 8.03
20773 25.7720 65.23 53.59 8.21
20774 25.7730 72.52 53.57 8.69
20775 25.7740 66.71 53.55 8.27
20776 25.7750 54.62 53.53 7.49
20777 25.7760 55.82 53.52 7.57
20778 25.7770 53.59 53.50 7.44
20779 25.7780 55.72 53.49 7.59
20780 25.7790 70.39 53.47 8.45
20781 25.7800 62.04 53.46 7.91
20782 25.7810 51.89 53.45 7.28
20783 25.7820 49.85 53.44 7.17
20784 25.7830 77.50 53.43 8.99
20785 25.7840 68.55 53.42 8.45
20786 25.7850 63.09 53.41 8.10
20787 25.7860 64.02 53.41 8.10
20788 25.7870 62.31 53.41 8.02
20789 25.7880 53.73 53.41 7.46
20790 25.7890 70.64 53.41 8.50
20791 25.7900 65.80 53.42 8.14
20792 25.7910 74.14 53.42 8.68
20793 25.7920 67.98 53.44 8.39
20794 25.7930 60.25 53.45 7.96
20795 25.7940 59.18 53.47 7.86
20796 25.7950 68.23 53.50 8.39
20797 25.7960 71.01 53.54 8.52
20798 25.7970 64.82 53.58 8.16
20799 25.7980 54.76 53.64 7.50
20800 25.7990 59.33 53.72 7.76
20801 25.8000 53.43 53.81 7.36
20802 25.8010 47.22 53.93 6.94
20803 25.8020 54.53 54.08 7.54
20804 25.8030 56.07 54.27 7.66
20805 25.8040 63.12 54.50 8.10
20806 25.8050 67.37 54.78 8.29
20807 25.8060 53.97 55.10 7.43
20808 25.8070 57.50 55.46 7.68
20809 25.8080 54.58 55.82 7.49
20810 25.8090 69.10 56.15 8.40
20811 25.8100 63.56 56.40 8.04
20812 25.8110 54.00 56.55 7.48
20813 25.8120 71.27 56.58 8.60
20814 25.8130 81.66 56.49 9.25
20815 25.8140 79.49 56.26 9.07
20816 25.8150 55.74 55.94 7.56
20817 25.8160 56.92 55.56 7.63
20818 25.8170 56.52 55.17 7.63
20819 25.8180 71.08 54.80 8.55
20820 25.8190 68.18 54.48 8.33
20821 25.8200 59.44 54.21 7.78
20822 25.8210 67.68 53.98 8.30
20823 25.8220 67.44 53.79 8.36
20824 25.8230 69.57 53.64 8.51
20825 25.8240 64.23 53.51 8.15
20826 25.8250 67.47 53.41 8.34
20827 25.8260 70.91 53.33 8.53
20828 25.8270 69.63 53.25 8.49
20829 25.8280 64.63 53.19 8.14
20830 25.8290 67.43 53.14 8.29
20831 25.8300 67.60 53.10 8.28
20832 25.8310 70.06 53.06 8.44
20833 25.8320 46.76 53.02 6.96
20834 25.8330 51.79 52.99 7.36
20835 25.8340 86.20 52.97 9.46
20836 25.8350 81.02 52.94 9.15
20837 25.8360 72.69 52.92 8.66
20838 25.8370 55.40 52.90 7.54
20839 25.8380 62.87 52.88 8.05
20840 25.8390 65.47 52.86 8.16
20841 25.8400 82.22 52.84 9.12
20842 25.8410 58.76 52.83 7.75
20843 25.8420 68.33 52.81 8.41
20844 25.8430 74.49 52.80 8.83
20845 25.8440 60.35 52.79 7.92
20846 25.8450 58.27 52.77 7.77
20847 25.8460 56.00 52.76 7.56
20848 25.8470 58.85 52.75 7.77
20849 25.8480 66.86 52.74 8.31
20850 25.8490 63.47 52.73 8.03
20851 25.8500 59.70 52.72 7.78
20852 25.8510 62.64 52.71 8.00
20853 25.8520 56.36 52.70 7.68
20854 25.8530 56.89 52.69 7.72
20855 25.8540 50.60 52.69 7.25
20856 25.8550 54.64 52.68 7.49
20857 25.8560 57.40 52.67 7.66
20858 25.8570 53.55 52.66 7.43
20859 25.8580 63.36 52.66 8.09
20860 25.8590 57.16 52.65 7.67
20861 25.8600 62.63 52.64 8.01
20862 25.8610 65.94 52.64 8.23
20863 25.8620 62.55 52.63 8.07
20864 25.8630 54.37 52.62 7.55
20865 25.8640 47.11 52.62 6.98
20866 25.8650 53.69 52.61 7.42
20867 25.8660 59.54 52.61 7.78
20868 25.8670 59.81 52.60 7.84
20869 25.8680 63.26 52.60 8.06
20870 25.8690 57.55 52.59 7.69
20871 25.8700 55.33 52.59 7.50
20872 25.8710 61.10 52.58 7.89
20873 25.8720 67.15 52.58 8.32
20874 25.8730 77.18 52.57 8.99
20875 25.8740 67.16 52.57 8.38
20876 25.8750 48.34 52.56 7.06
20877 25.8760 60.76 52.56 7.93
20878 25.8770 62.78 52.56 8.05
20879 25.8780 57.52 52.55 7.72
20880 25.8790 59.50 52.55 7.78
20881 25.8800 68.84 52.55 8.34
20882 25.8810 56.60 52.54 7.55
20883 25.8820 55.43 52.54 7.57
20884 25.8830 68.30 52.54 8.44
20885 25.8840 70.39 52.53 8.57
20886 25.8850 63.94 52.53 8.13
20887 25.8860 61.12 52.53 7.93
20888 25.8870 71.52 52.52 8.62
20889 25.8880 69.77 52.52 8.47
20890 25.8890 67.31 52.52 8.27
20891 25.8900 86.25 52.52 9.31
20892 25.8910 74.15 52.51 8.66
20893 25.8920 54.45 52.51 7.51
20894 25.8930 66.39 52.51 8.32
20895 25.8940 70.74 52.51 8.56
20896 25.8950 73.12 52.51 8.71
20897 25.8960 67.28 52.51 8.31
20898 25.8970 80.00 52.50 9.05
20899 25.8980 59.90 52.50 7.85
20900 25.8990 52.40 52.50 7.32
20901 25.9000 58.81 52.50 7.73
20902 25.9010 65.81 52.50 8.18
20903 25.9020 69.59 52.50 8.51
20904 25.9030 60.46 52.50 7.94
20905 25.9040 70.86 52.49 8.53
20906 25.9050 56.29 52.49 7.59
20907 25.9060 74.16 52.49 8.67
20908 25.9070 73.13 52.49 8.63
20909 25.9080 68.34 52.49 8.38
20910 25.9090 64.58 52.49 8.11
20911 25.9100 54.98 52.49 7.47
20912 25.9110 57.99 52.49 7.72
20913 25.9120 56.27 52.49 7.65
20914 25.9130 63.20 52.49 8.12
20915 25.9140 59.94 52.49 7.86
20916 25.9150 65.47 52.49 8.17
20917 25.9160 67.37 52.49 8.26
20918 25.9170 69.06 52.49 8.38
20919 25.9180 63.44 52.49 8.06
20920 25.9190 62.27 52.49 7.96
20921 25.9200 63.35 52.50 8.02
20922 25.9210 63.84 52.50 8.07
20923 25.9220 55.67 52.50 7.61
20924 25.9230 73.06 52.50 8.77
20925 25.9240 58.39 52.50 7.77
20926 25.9250 61.14 52.50 7.91
20927 25.9260 57.93 52.50 7.68
20928 25.9270 66.88 52.51 8.28
20929 25.9280 60.76 52.51 7.88
20930 25.9290 61.60 52.51 7.88
20931 25.9300 69.43 52.51 8.34
20932 25.9310 55.62 52.52 7.48
20933 25.9320 84.25 52.52 9.32
20934 25.9330 59.58 52.52 7.93
20935 25.9340 72.03 52.52 8.64
20936 25.9350 64.09 52.53 8.11
20937 25.9360 58.46 52.53 7.75
20938 25.9370 64.39 52.53 8.12
20939 25.9380 60.53 52.54 7.89
20940 25.9390 51.51 52.54 7.24
20941 25.9400 60.27 52.55 7.80
20942 25.9410 55.86 52.55 7.52
20943 25.9420 51.64 52.55 7.33
20944 25.9430 68.61 52.56 8.47
20945 25.9440 78.71 52.56 9.04
20946 25.9450 59.41 52.57 7.83
20947 25.9460 65.75 52.57 8.23
20948 25.9470 63.68 52.58 8.07
20949 25.9480 59.74 52.58 7.83
20950 25.9490 53.61 52.59 7.37
20951 25.9500 55.52 52.60 7.50
20952 25.9510 60.69 52.60 7.85
20953 25.9520 54.71 52.61 7.55
20954 25.9530 67.26 52.62 8.39
20955 25.9540 65.51 52.62 8.22
20956 25.9550 67.51 52.63 8.32
20957 25.9560 61.34 52.64 7.92
20958 25.9570 68.79 52.65 8.38
20959 25.9580 61.79 52.65 7.96
20960 25.9590 63.51 52.66 8.05
20961 25.9600 73.65 52.67 8.68
20962 25.9610 66.31 52.68 8.25
20963 25.9620 52.92 52.69 7.42
20964 25.9630 52.41 52.70 7.41
20965 25.9640 81.63 52.71 9.17
20966 25.9650 55.77 52.72 7.55
20967 25.9660 62.70 52.73 7.96
20968 25.9670 74.17 52.74 8.72
20969 25.9680 71.71 52.75 8.61
20970 25.9690 77.68 52.77 8.90
20971 25.9700 58.06 52.78 7.67
20972 25.9710 57.88 52.79 7.69
20973 25.9720 73.91 52.80 8.73
20974 25.9730 68.84 52.82 8.46
20975 25.9740 66.22 52.83 8.27
20976 25.9750 57.38 52.84 7.71
20977 25.9760 57.88 52.86 7.68
20978 25.9770 66.60 52.87 8.29
20979 25.9780 68.33 52.89 8.39
20980 25.9790 46.46 52.91 6.90
20981 25.9800 76.12 52.92 8.76
20982 25.9810 63.39 52.94 7.98
20983 25.9820 48.65 52.96 7.12
20984 25.9830 62.34 52.98 8.08
20985 25.9840 57.62 52.99 7.78
20986 25.9850 68.27 53.01 8.40
20987 25.9860 68.19 53.03 8.40
20988 25.9870 75.42 53.06 8.80
20989 25.9880 84.26 53.08 9.30
20990 25.9890 71.08 53.10 8.48
20991 25.9900 72.46 53.12 8.56
20992 25.9910 47.63 53.15 6.98
20993 25.9920 61.84 53.17 8.01
20994 25.9930 72.06 53.20 8.70
20995 25.9940 66.94 53.22 8.31
20996 25.9950 72.90 53.25 8.68
20997 25.9960 69.71 53.28 8.45
20998 25.9970 52.71 53.31 7.36
20999 25.9980 56.03 53.34 7.59
21000 25.9990 67.04 53.37 8.27
21001 26.0000 60.75 53.40 7.85
21002 26.0010 66.98 53.43 8.27
21003 26.0020 58.22 53.47 7.79
21004 26.0030 77.17 53.50 8.95
21005 26.0040 69.70 53.54 8.50
21006 26.0050 82.13 53.58 9.16
21007 26.0060 67.07 53.61 8.27
21008 26.0070 63.37 53.65 8.07
21009 26.0080 84.57 53.64 9.33
21010 26.0090 71.00 53.69 8.53
21011 26.0100 67.31 53.73 8.27
21012 26.0110 71.33 53.75 8.57
21013 26.0120 53.91 53.80 7.51
21014 26.0130 51.53 53.85 7.35
21015 26.0140 58.51 53.90 7.79
21016 26.0150 78.78 53.96 8.98
21017 26.0160 71.56 54.01 8.55
21018 26.0170 77.78 54.07 8.97
21019 26.0180 78.72 54.13 8.99
21020 26.0190 55.92 54.20 7.56
21021 26.0200 71.66 54.26 8.54
21022 26.0210 69.51 54.33 8.42
21023 26.0220 72.31 54.40 8.67
21024 26.0230 73.70 54.47 8.77
21025 26.0240 76.70 54.55 8.90
21026 26.0250 75.02 54.63 8.76
21027 26.0260 58.06 54.71 7.71
21028 26.0270 81.23 54.80 9.16
21029 26.0280 73.61 54.89 8.70
21030 26.0290 74.59 54.98 8.72
21031 26.0300 58.91 55.08 7.72
21032 26.0310 68.72 55.18 8.37
21033 26.0320 60.98 55.29 7.94
21034 26.0330 58.51 55.40 7.86
21035 26.0340 67.11 55.52 8.39
21036 26.0350 51.47 55.64 7.31
21037 26.0360 59.60 55.77 7.85
21038 26.0370 52.05 55.90 7.36
21039 26.0380 64.65 56.04 8.16
21040 26.0390 57.99 56.19 7.66
21041 26.0400 73.56 56.34 8.58
21042 26.0410 62.83 56.51 8.00
21043 26.0420 58.22 56.68 7.77
21044 26.0430 67.03 56.85 8.41
21045 26.0440 72.68 57.04 8.72
21046 26.0450 57.75 57.24 7.72
21047 26.0460 70.70 57.45 8.51
21048 26.0470 65.53 57.67 8.22
21049 26.0480 76.96 57.90 8.88
21050 26.0490 78.32 58.15 8.92
21051 26.0500 64.57 58.41 8.10
21052 26.0510 66.29 58.69 8.22
21053 26.0520 76.30 58.98 8.91
21054 26.0530 72.70 59.29 8.70
21055 26.0540 81.94 59.62 9.20
21056 26.0550 88.25 59.97 9.50
21057 26.0560 74.89 60.35 8.72
21058 26.0570 56.09 60.75 7.61
21059 26.0580 64.61 61.17 8.19
21060 26.0590 64.64 61.63 8.16
21061 26.0600 73.69 62.12 8.66
21062 26.0610 59.70 62.64 7.82
21063 26.0620 66.09 63.21 8.27
21064 26.0630 70.95 63.81 8.57
21065 26.0640 71.24 64.47 8.56
21066 26.0650 65.69 65.17 8.19
21067 26.0660 83.60 65.94 9.21
21068 26.0670 72.04 66.77 8.59
21069 26.0680 83.52 67.67 9.27
21070 26.0690 74.34 68.65 8.73
21071 26.0700 69.61 69.72 8.37
21072 26.0710 69.18 70.89 8.42
21073 26.0720 70.69 72.18 8.53
21074 26.0730 80.59 73.60 9.17
21075 26.0740 65.68 75.16 8.23
21076 26.0750 87.29 76.90 9.44
21077 26.0760 87.28 78.83 9.42
21078 26.0770 86.90 80.97 9.45
21079 26.0780 112.74 83.38 10.77
21080 26.0790 86.25 86.10 9.33
21081 26.0800 115.21 89.16 10.78
21082 26.0810 105.89 92.63 10.35
21083 26.0820 100.65 96.62 10.17
21084 26.0830 128.34 101.20 11.52
21085 26.0840 115.39 106.52 10.95
21086 26.0850 127.68 112.75 11.47
21087 26.0860 134.22 120.11 11.69
21088 26.0870 151.28 128.88 12.42
21089 26.0880 165.56 139.45 13.04
21090 26.0890 175.09 152.28 13.28
21091 26.0900 190.20 167.93 13.76
21092 26.0910 196.44 187.15 14.09
21093 26.0920 225.46 210.67 15.22
21094 26.0930 251.62 239.46 16.15
21095 26.0940 271.00 274.30 16.68
21096 26.0950 333.57 315.61 18.43
21097 26.0960 367.63 363.49 19.33
21098 26.0970 416.32 416.40 20.60
21099 26.0980 507.26 472.05 22.78
21100 26.0990 551.44 527.25 23.66
21101 26.1000 622.35 577.55 25.12
21102 26.1010 663.02 618.22 25.97
21103 26.1020 732.57 643.37 27.42
21104 26.1030 678.88 647.20 26.48
21105 26.1040 633.35 626.94 25.47
21106 26.1050 534.72 584.81 23.32
21107 26.1060 519.81 527.91 22.90
21108 26.1070 436.70 465.21 21.08
21109 26.1080 384.27 403.84 19.87
21110 26.1090 308.07 348.40 17.70
21111 26.1100 295.20 300.49 17.26
21112 26.1110 285.03 260.36 16.96
21113 26.1120 250.53 227.39 16.04
21114 26.1130 211.49 200.47 14.79
21115 26.1140 177.65 178.64 13.49
21116 26.1150 177.88 160.97 13.44
21117 26.1160 170.84 146.59 13.12
21118 26.1170 133.57 134.77 11.68
21119 26.1180 133.49 125.06 11.70
21120 26.1190 135.62 116.95 11.73
21121 26.1200 116.00 110.09 10.82
21122 26.1210 111.81 104.28 10.69
21123 26.1220 112.46 99.29 10.78
21124 26.1230 101.96 94.95 10.29
21125 26.1240 96.06 91.17 9.96
21126 26.1250 92.66 87.86 9.74
21127 26.1260 80.84 84.93 9.07
21128 26.1270 87.22 82.33 9.43
21129 26.1280 93.29 80.02 9.72
21130 26.1290 80.77 77.95 9.03
21131 26.1300 90.99 76.09 9.54
21132 26.1310 81.55 74.41 9.07
21133 26.1320 90.68 72.89 9.67
21134 26.1330 59.31 71.51 7.91
21135 26.1340 79.00 70.26 9.06
21136 26.1350 83.18 69.12 9.23
21137 26.1360 81.20 68.07 9.09
21138 26.1370 88.08 67.11 9.48
21139 26.1380 68.58 66.23 8.36
21140 26.1390 82.49 65.42 9.11
21141 26.1400 64.50 64.66 8.04
21142 26.1410 68.26 63.97 8.34
21143 26.1420 74.84 63.33 8.82
21144 26.1430 62.41 62.73 8.08
21145 26.1440 64.88 62.17 8.22
21146 26.1450 64.74 61.65 8.14
21147 26.1460 74.29 61.16 8.70
21148 26.1470 76.47 60.71 8.87
21149 26.1480 67.22 60.29 8.29
21150 26.1490 66.21 59.89 8.20
21151 26.1500 64.30 59.52 8.06
21152 26.1510 66.48 59.16 8.20
21153 26.1520 56.53 58.83 7.63
21154 26.1530 44.75 58.52 6.82
21155 26.1540 61.20 58.23 7.92
21156 26.1550 69.76 57.95 8.46
21157 26.1560 65.96 57.69 8.18
21158 26.1570 65.78 57.44 8.24
21159 26.1580 85.40 57.20 9.37
21160 26.1590 61.29 56.98 7.94
21161 26.1600 65.72 56.76 8.19
21162 26.1610 58.73 56.56 7.75
21163 26.1620 61.59 56.37 7.95
21164 26.1630 61.56 56.18 8.00
21165 26.1640 59.97 56.01 7.87
21166 26.1650 60.85 55.84 7.87
21167 26.1660 71.12 55.68 8.50
21168 26.1670 66.77 55.53 8.32
21169 26.1680 53.30 55.39 7.40
21170 26.1690 69.63 55.25 8.42
21171 26.1700 76.75 55.12 8.81
21172 26.1710 82.65 54.99 9.13
21173 26.1720 70.00 54.87 8.49
21174 26.1730 62.46 54.75 8.10
21175 26.1740 63.70 54.64 8.09
21176 26.1750 61.45 54.53 7.94
21177 26.1760 56.35 54.42 7.58
21178 26.1770 56.76 54.32 7.60
21179 26.1780 50.64 54.23 7.20
21180 26.1790 56.16 54.14 7.52
21181 26.1800 45.30 54.05 6.77
21182 26.1810 64.47 53.96 8.08
21183 26.1820 61.35 53.88 7.98
21184 26.1830 56.71 53.80 7.71
21185 26.1840 58.83 53.72 7.85
21186 26.1850 54.67 53.65 7.51
21187 26.1860 54.67 53.58 7.48
21188 26.1870 64.46 53.51 8.12
21189 26.1880 77.36 53.44 8.88
21190 26.1890 57.81 53.38 7.65
21191 26.1900 59.22 53.32 7.72
21192 26.1910 74.07 53.26 8.64
21193 26.1920 60.62 53.20 7.92
21194 26.1930 53.07 53.14 7.46
21195 26.1940 63.96 53.09 8.14
21196 26.1950 53.51 53.05 7.39
21197 26.1960 73.39 53.00 8.65
21198 26.1970 74.67 52.95 8.73
21199 26.1980 61.94 52.90 7.97
21200 26.1990 81.54 52.86 9.08
21201 26.2000 66.14 52.81 8.18
21202 26.2010 55.62 52.76 7.54
21203 26.2020 54.68 52.72 7.50
21204 26.2030 65.79 52.68 8.22
21205 26.2040 68.04 52.64 8.35
21206 26.2050 69.32 52.60 8.41
21207 26.2060 61.88 52.56 7.95
21208 26.2070 60.13 52.52 7.87
21209 26.2080 67.85 52.48 8.37
21210 26.2090 61.60 52.45 7.93
21211 26.2100 61.00 52.41 7.88
21212 26.2110 68.53 52.38 8.36
21213 26.2120 58.43 52.34 7.75
21214 26.2130 62.00 52.31 8.03
21215 26.2140 51.26 52.28 7.28
21216 26.2150 64.71 52.25 8.11
21217 26.2160 63.25 52.22 8.01
21218 26.2170 56.87 52.19 7.63
21219 26.2180 61.36 52.16 7.96
21220 26.2190 75.11 52.13 8.72
21221 26.2200 68.72 52.10 8.32
21222 26.2210 63.96 52.08 8.06
21223 26.2220 65.88 52.05 8.25
21224 26.2230 58.81 52.03 7.81
21225 26.2240 58.80 52.00 7.81
21226 26.2250 65.32 51.98 8.18
21227 26.2260 80.38 51.95 9.06
21228 26.2270 70.97 51.93 8.48
21229 26.2280 67.42 51.91 8.30
21230 26.2290 65.82 51.88 8.16
21231 26.2300 61.51 51.86 7.88
21232 26.2310 56.72 51.84 7.59
21233 26.2320 71.78 51.82 8.62
21234 26.2330 63.82 51.80 8.17
21235 26.2340 52.94 51.78 7.43
21236 26.2350 60.38 51.76 7.89
21237 26.2360 65.36 51.74 8.17
21238 26.2370 68.44 51.72 8.39
21239 26.2380 56.44 51.70 7.63
21240 26.2390 60.68 51.68 7.85
21241 26.2400 69.62 51.66 8.35
21242 26.2410 70.96 51.64 8.47
21243 26.2420 54.68 51.63 7.55
21244 26.2430 62.49 51.61 8.06
21245 26.2440 59.60 51.59 7.85
21246 26.2450 72.33 51.58 8.61
21247 26.2460 67.44 51.56 8.32
21248 26.2470 52.79 51.54 7.39
21249 26.2480 54.50 51.53 7.51
21250 26.2490 65.14 51.51 8.13
21251 26.2500 65.29 51.50 8.08
21252 26.2510 76.84 51.48 8.82
21253 26.2520 74.67 51.47 8.74
21254 26.2530 63.98 51.45 8.13
21255 26.2540 61.90 51.44 7.99
21256 26.2550 55.89 51.42 7.58
21257 26.2560 64.23 51.41 8.11
21258 26.2570 71.89 51.40 8.59
21259 26.2580 63.45 51.38 8.09
21260 26.2590 55.63 51.37 7.53
21261 26.2600 62.60 51.36 7.97
21262 26.2610 54.84 51.35 7.48
21263 26.2620 53.49 51.33 7.42
21264 26.2630 58.91 51.32 7.84
21265 26.2640 64.05 51.31 8.14
21266 26.2650 57.43 51.30 7.67
21267 26.2660 58.63 51.28 7.73
21268 26.2670 72.00 51.27 8.57
21269 26.2680 48.79 51.26 7.12
21270 26.2690 57.75 51.25 7.66
21271 26.2700 60.00 51.24 7.82
21272 26.2710 54.57 51.23 7.48
21273 26.2720 67.16 51.22 8.34
21274 26.2730 58.54 51.21 7.81
21275 26.2740 66.38 51.20 8.28
21276 26.2750 62.47 51.19 8.00
21277 26.2760 60.41 51.18 7.86
21278 26.2770 63.90 51.17 8.07
21279 26.2780 65.33 51.16 8.16
21280 26.2790 64.78 51.15 8.10
21281 26.2800 59.23 51.14 7.77
21282 26.2810 56.61 51.13 7.62
21283 26.2820 57.19 51.12 7.72
21284 26.2830 74.55 51.11 8.83
21285 26.2840 64.66 51.10 8.20
21286 26.2850 69.44 51.09 8.46
21287 26.2860 51.87 51.08 7.28
21288 26.2870 58.74 51.07 7.73
21289 26.2880 56.91 51.06 7.62
21290 26.2890 60.20 51.06 7.81
21291 26.2900 59.96 51.05 7.80
21292 26.2910 63.18 51.04 8.00
21293 26.2920 62.68 51.03 8.08
21294 26.2930 69.19 51.02 8.52
21295 26.2940 51.94 51.01 7.36
21296 26.2950 58.08 51.01 7.70
21297 26.2960 67.77 51.00 8.31
21298 26.2970 69.29 50.99 8.42
21299 26.2980 67.38 50.98 8.33
21300 26.2990 69.98 50.98 8.41
21301 26.3000 61.58 50.97 7.89
21302 26.3010 65.39 50.96 8.15
21303 26.3020 64.92 50.95 8.18
21304 26.3030 62.97 50.95 8.09
21305 26.3040 58.65 50.94 7.76
21306 26.3050 54.69 50.93 7.46
21307 26.3060 75.58 50.93 8.78
21308 26.3070 56.19 50.92 7.59
21309 26.3080 57.30 50.91 7.68
21310 26.3090 55.44 50.91 7.52
21311 26.3100 44.12 50.90 6.70
21312 26.3110 66.27 50.89 8.20
21313 26.3120 65.26 50.89 8.22
21314 26.3130 66.30 50.88 8.28
21315 26.3140 61.13 50.88 7.92
21316 26.3150 75.24 50.87 8.75
21317 26.3160 62.48 50.86 7.99
21318 26.3170 67.34 50.86 8.31
21319 26.3180 60.57 50.85 7.89
21320 26.3190 60.12 50.85 7.81
21321 26.3200 49.06 50.84 7.05
21322 26.3210 78.76 50.84 8.93
21323 26.3220 65.09 50.83 8.21
21324 26.3230 59.57 50.83 7.88
21325 26.3240 73.86 50.82 8.71
21326 26.3250 59.83 50.82 7.84
21327 26.3260 68.87 50.81 8.35
21328 26.3270 68.95 50.81 8.40
21329 26.3280 67.43 50.81 8.28
21330 26.3290 62.71 50.80 7.96
21331 26.3300 50.68 50.80 7.13
21332 26.3310 60.32 50.80 7.81
21333 26.3320 68.33 50.80 8.41
21334 26.3330 59.75 50.79 7.92
21335 26.3340 65.89 50.79 8.28
21336 26.3350 56.95 50.80 7.65
21337 26.3360 70.70 50.80 8.47
21338 26.3370 68.45 50.80 8.37
21339 26.3380 56.35 50.81 7.61
21340 26.3390 52.82 50.81 7.29
21341 26.3400 57.29 50.83 7.58
21342 26.3410 64.09 50.84 8.07
21343 26.3420 65.36 50.86 8.24
21344 26.3430 73.77 50.88 8.79
21345 26.3440 50.22 50.91 7.21
21346 26.3450 66.79 50.94 8.26
21347 26.3460 58.37 50.98 7.70
21348 26.3470 61.92 51.01 7.96
21349 26.3480 59.65 51.03 7.80
21350 26.3490 67.34 51.03 8.25
21351 26.3500 75.03 51.02 8.69
21352 26.3510 60.38 50.99 7.78
21353 26.3520 57.21 50.95 7.69
21354 26.3530 48.80 50.90 7.12
21355 26.3540 70.09 50.86 8.46
21356 26.3550 68.71 50.83 8.39
21357 26.3560 68.07 50.80 8.33
21358 26.3570 63.56 50.77 8.08
21359 26.3580 67.61 50.75 8.34
21360 26.3590 68.38 50.73 8.31
21361 26.3600 66.39 50.72 8.16
21362 26.3610 56.62 50.70 7.58
21363 26.3620 55.73 50.69 7.56
21364 26.3630 60.65 50.68 7.91
21365 26.3640 53.39 50.67 7.41
21366 26.3650 48.10 50.67 7.03
21367 26.3660 56.51 50.66 7.61
21368 26.3670 79.35 50.65 9.01
21369 26.3680 64.13 50.65 8.10
21370 26.3690 58.61 50.64 7.73
21371 26.3700 64.74 50.64 8.05
21372 26.3710 67.24 50.63 8.23
21373 26.3720 58.72 50.63 7.77
21374 26.3730 57.08 50.62 7.67
21375 26.3740 63.42 50.62 8.05
21376 26.3750 72.97 50.62 8.61
21377 26.3760 72.81 50.61 8.57
21378 26.3770 71.56 50.61 8.54
21379 26.3780 68.58 50.61 8.33
21380 26.3790 61.73 50.60 7.92
21381 26.3800 52.99 50.60 7.29
21382 26.3810 55.99 50.60 7.54
21383 26.3820 67.60 50.60 8.34
21384 26.3830 75.38 50.60 8.85
21385 26.3840 69.41 50.59 8.47
21386 26.3850 62.77 50.59 8.02
21387 26.3860 72.95 50.59 8.57
21388 26.3870 66.72 50.59 8.25
21389 26.3880 65.31 50.59 8.12
21390 26.3890 63.51 50.59 8.00
21391 26.3900 68.61 50.59 8.31
21392 26.3910 63.77 50.59 8.03
21393 26.3920 75.57 50.59 8.82
21394 26.3930 77.71 50.59 8.97
21395 26.3940 63.71 50.59 8.10
21396 26.3950 76.25 50.59 8.81
21397 26.3960 57.27 50.59 7.65
21398 26.3970 59.38 50.59 7.77
21399 26.3980 58.94 50.59 7.72
21400 26.3990 67.77 50.59 8.27
21401 26.4000 68.08 50.60 8.22
21402 26.4010 48.71 50.60 7.00
21403 26.4020 55.80 50.60 7.55
21404 26.4030 63.87 50.61 8.14
21405 26.4040 54.36 50.61 7.46
21406 26.4050 70.97 50.62 8.54
21407 26.4060 71.54 50.63 8.56
21408 26.4070 54.94 50.64 7.50
21409 26.4080 59.22 50.65 7.77
21410 26.4090 59.94 50.66 7.79
21411 26.4100 47.52 50.68 6.93
21412 26.4110 69.79 50.70 8.36
21413 26.4120 69.65 50.72 8.44
21414 26.4130 62.24 50.75 8.03
21415 26.4140 61.06 50.79 7.91
21416 26.4150 61.48 50.83 7.94
21417 26.4160 61.33 50.88 7.87
21418 26.4170 52.07 50.95 7.32
21419 26.4180 52.31 51.03 7.32
21420 26.4190 48.33 51.13 6.99
21421 26.4200 63.43 51.24 7.99
21422 26.4210 77.52 51.38 8.83
21423 26.4220 62.86 51.53 8.05
21424 26.4230 56.26 51.69 7.64
21425 26.4240 62.84 51.85 8.05
21426 26.4250 63.04 51.98 8.01
21427 26.4260 60.02 52.07 7.78
21428 26.4270 58.16 52.10 7.70
21429 26.4280 69.09 52.06 8.39
21430 26.4290 59.00 51.96 7.75
21431 26.4300 50.01 51.82 7.12
21432 26.4310 50.93 51.65 7.21
21433 26.4320 77.22 51.49 8.94
21434 26.4330 62.00 51.34 8.04
21435 26.4340 70.05 51.21 8.51
21436 26.4350 66.62 51.10 8.26
21437 26.4360 57.40 51.01 7.63
21438 26.4370 62.14 50.94 7.93
21439 26.4380 65.42 50.88 8.19
21440 26.4390 62.13 50.83 7.94
21441 26.4400 62.93 50.79 7.95
21442 26.4410 56.94 50.76 7.62
21443 26.4420 66.29 50.74 8.27
21444 26.4430 62.26 50.72 8.05
21445 26.4440 54.89 50.70 7.52
21446 26.4450 60.11 50.69 7.84
21447 26.4460 58.44 50.68 7.75
21448 26.4470 73.02 50.67 8.64
21449 26.4480 55.32 50.64 7.55
21450 26.4490 65.81 50.64 8.15
21451 26.4500 61.89 50.64 7.86
21452 26.4510 57.65 50.61 7.65
21453 26.4520 62.63 50.55 8.02
21454 26.4530 58.04 50.53 7.78
21455 26.4540 57.23 50.50 7.67
21456 26.4550 77.10 50.50 8.89
21457 26.4560 49.22 50.51 7.11
21458 26.4570 62.23 50.51 8.00
21459 26.4580 66.20 50.52 8.24
21460 26.4590 64.67 50.52 8.12
21461 26.4600 49.44 50.53 7.04
21462 26.4610 66.45 50.54 8.21
21463 26.4620 63.82 50.55 8.10
21464 26.4630 60.23 50.56 7.89
21465 26.4640 62.24 50.57 8.00
21466 26.4650 71.25 50.58 8.54
21467 26.4660 66.05 50.59 8.22
21468 26.4670 66.55 50.60 8.25
21469 26.4680 68.79 50.61 8.41
21470 26.4690 64.99 50.63 8.15
21471 26.4700 60.52 50.64 7.82
21472 26.4710 59.68 50.66 7.81
21473 26.4720 73.37 50.67 8.70
21474 26.4730 65.25 50.69 8.25
21475 26.4740 50.79 50.71 7.24
21476 26.4750 52.41 50.73 7.31
21477 26.4760 56.95 50.75 7.65
21478 26.4770 71.87 50.77 8.57
21479 26.4780 67.69 50.80 8.33
21480 26.4790 61.20 50.83 7.90
21481 26.4800 62.15 50.85 7.95
21482 26.4810 64.27 50.88 8.10
21483 26.4820 56.54 50.92 7.66
21484 26.4830 66.94 50.95 8.36
21485 26.4840 59.95 50.99 7.82
21486 26.4850 55.03 51.03 7.50
21487 26.4860 61.95 51.07 7.91
21488 26.4870 59.39 51.12 7.77
21489 26.4880 60.85 51.17 7.89
21490 26.4890 71.31 51.23 8.52
21491 26.4900 60.79 51.29 7.83
21492 26.4910 65.67 51.36 8.18
21493 26.4920 63.79 51.44 8.13
21494 26.4930 70.17 51.53 8.59
21495 26.4940 52.87 51.62 7.39
21496 26.4950 59.27 51.74 7.80
21497 26.4960 66.72 51.86 8.24
21498 26.4970 52.54 52.02 7.34
21499 26.4980 53.25 52.19 7.40
21500 26.4990 69.61 52.41 8.37
21501 26.5000 57.80 52.66 7.64
21502 26.5010 59.65 52.96 7.77
21503 26.5020 61.86 53.31 7.97
21504 26.5030 61.72 53.73 8.03
21505 26.5040 66.26 54.22 8.28
21506 26.5050 64.16 54.76 8.12
21507 26.5060 71.08 55.33 8.55
21508 26.5070 58.33 55.89 7.74
21509 26.5080 74.41 56.36 8.73
21510 26.5090 77.89 56.66 8.85
21511 26.5100 73.51 56.76 8.60
21512 26.5110 66.93 56.64 8.23
21513 26.5120 50.64 56.38 7.20
21514 26.5130 61.32 56.03 7.99
21515 26.5140 68.19 55.69 8.40
21516 26.5150 71.85 55.40 8.61
21517 26.5160 77.29 55.18 8.90
21518 26.5170 61.04 55.03 7.91
21519 26.5180 68.23 54.97 8.38
21520 26.5190 65.12 54.98 8.12
21521 26.5200 56.52 55.06 7.54
21522 26.5210 68.86 55.20 8.36
21523 26.5220 59.68 55.40 7.84
21524 26.5230 57.40 55.67 7.74
21525 26.5240 57.43 56.00 7.70
21526 26.5250 73.97 56.40 8.66
21527 26.5260 70.76 56.86 8.47
21528 26.5270 71.37 57.45 8.53
21529 26.5280 74.01 58.10 8.69
21530 26.5290 76.25 58.86 8.78
21531 26.5300 68.92 59.77 8.34
21532 26.5310 65.05 60.83 8.16
21533 26.5320 59.22 62.08 7.83
21534 26.5330 82.36 63.60 9.29
21535 26.5340 77.93 65.43 8.98
21536 26.5350 78.25 67.65 8.94
21537 26.5360 70.83 70.37 8.49
21538 26.5370 85.96 73.69 9.34
21539 26.5380 95.92 77.73 9.90
21540 26.5390 96.55 82.61 9.87
21541 26.5400 84.71 88.46 9.25
21542 26.5410 93.43 95.25 9.75
21543 26.5420 115.24 102.87 10.94
21544 26.5430 131.10 110.97 11.69
21545 26.5440 122.31 118.97 11.25
21546 26.5450 142.14 126.29 12.04
21547 26.5460 164.47 132.63 12.93
21548 26.5470 144.31 137.92 12.17
21549 26.5480 162.93 141.95 12.86
21550 26.5490 147.10 144.08 12.18
21551 26.5500 162.39 143.31 12.73
21552 26.5510 150.19 139.03 12.31
21553 26.5520 128.68 131.64 11.49
21554 26.5530 129.67 122.36 11.60
21555 26.5540 105.27 112.51 10.44
21556 26.5550 121.24 103.20 11.16
21557 26.5560 96.69 94.90 9.96
21558 26.5570 90.12 87.80 9.61
21559 26.5580 76.81 81.87 8.89
21560 26.5590 89.59 76.99 9.51
21561 26.5600 95.13 72.99 9.79
21562 26.5610 87.81 69.74 9.41
21563 26.5620 74.88 67.09 8.77
21564 26.5630 67.79 64.92 8.40
21565 26.5640 76.54 63.13 8.90
21566 26.5650 79.77 61.65 9.07
21567 26.5660 74.72 60.40 8.77
21568 26.5670 64.94 59.35 8.19
21569 26.5680 68.01 58.44 8.37
21570 26.5690 60.02 57.67 7.81
21571 26.5700 56.89 56.99 7.61
21572 26.5710 81.13 56.40 9.07
21573 26.5720 68.13 55.87 8.39
21574 26.5730 60.88 55.41 7.94
21575 26.5740 57.18 55.00 7.66
21576 26.5750 67.25 54.63 8.29
21577 26.5760 63.40 54.30 8.05
21578 26.5770 57.53 54.01 7.70
21579 26.5780 67.84 53.74 8.39
21580 26.5790 57.61 53.49 7.68
21581 26.5800 67.12 53.27 8.28
21582 26.5810 66.28 53.07 8.23
21583 26.5820 57.54 52.89 7.74
21584 26.5830 61.69 52.72 8.00
21585 26.5840 56.25 52.56 7.66
21586 26.5850 67.57 52.42 8.30
21587 26.5860 70.41 52.29 8.47
21588 26.5870 64.10 52.17 8.10
21589 26.5880 52.92 52.05 7.41
21590 26.5890 49.79 51.95 7.13
21591 26.5900 65.28 51.85 8.15
21592 26.5910 57.64 51.76 7.67
21593 26.5920 69.92 51.68 8.50
21594 26.5930 63.11 51.60 8.13
21595 26.5940 51.00 51.52 7.27
21596 26.5950 58.04 51.45 7.72
21597 26.5960 65.84 51.39 8.20
21598 26.5970 57.06 51.33 7.66
21599 26.5980 53.21 51.27 7.39
21600 26.5990 65.96 51.22 8.15
21601 26.6000 80.78 51.17 9.02
21602 26.6010 66.31 51.12 8.19
21603 26.6020 67.24 51.07 8.36
21604 26.6030 64.42 51.03 8.23
21605 26.6040 53.56 50.99 7.48
21606 26.6050 64.20 50.95 8.15
21607 26.6060 59.70 50.92 7.83
21608 26.6070 70.77 50.88 8.52
21609 26.6080 55.56 50.85 7.56
21610 26.6090 63.23 50.82 8.02
21611 26.6100 79.71 50.79 8.94
21612 26.6110 65.36 50.77 8.13
21613 26.6120 73.23 50.74 8.70
21614 26.6130 56.97 50.72 7.73
21615 26.6140 42.88 50.69 6.68
21616 26.6150 63.49 50.67 8.06
21617 26.6160 56.42 50.65 7.59
21618 26.6170 59.06 50.63 7.79
21619 26.6180 62.68 50.61 8.02
21620 26.6190 48.35 50.59 7.03
21621 26.6200 54.75 50.58 7.46
21622 26.6210 74.71 50.56 8.72
21623 26.6220 60.33 50.55 7.89
21624 26.6230 57.24 50.53 7.75
21625 26.6240 56.19 50.52 7.64
21626 26.6250 58.04 50.51 7.72
21627 26.6260 54.97 50.49 7.46
21628 26.6270 56.10 50.48 7.58
21629 26.6280 46.01 50.47 6.90
21630 26.6290 64.01 50.46 8.08
21631 26.6300 54.28 50.45 7.41
21632 26.6310 62.55 50.44 7.99
21633 26.6320 71.69 50.44 8.62
21634 26.6330 54.59 50.43 7.56
21635 26.6340 51.78 50.42 7.33
21636 26.6350 61.37 50.42 7.90
21637 26.6360 62.28 50.41 7.97
21638 26.6370 48.65 50.41 7.05
21639 26.6380 61.74 50.40 7.97
21640 26.6390 61.59 50.40 7.91
21641 26.6400 67.88 50.40 8.27
21642 26.6410 58.57 50.40 7.76
21643 26.6420 56.79 50.39 7.69
21644 26.6430 61.42 50.39 8.01
21645 26.6440 52.18 50.39 7.35
21646 26.6450 63.03 50.39 8.04
21647 26.6460 61.82 50.40 7.92
21648 26.6470 63.88 50.40 8.10
21649 26.6480 69.19 50.40 8.41
21650 26.6490 80.99 50.40 9.04
21651 26.6500 68.98 50.41 8.33
21652 26.6510 54.65 50.41 7.47
21653 26.6520 56.16 50.42 7.62
21654 26.6530 49.28 50.43 7.20
21655 26.6540 50.70 50.43 7.26
21656 26.6550 65.60 50.44 8.22
21657 26.6560 70.99 50.45 8.53
21658 26.6570 65.87 50.46 8.25
21659 26.6580 66.35 50.48 8.23
21660 26.6590 70.54 50.49 8.44
21661 26.6600 63.21 50.51 7.97
21662 26.6610 69.17 50.52 8.37
21663 26.6620 56.55 50.54 7.65
21664 26.6630 68.28 50.56 8.43
21665 26.6640 63.83 50.58 8.14
21666 26.6650 71.69 50.61 8.61
21667 26.6660 64.88 50.63 8.18
21668 26.6670 62.38 50.66 8.01
21669 26.6680 55.66 50.69 7.57
21670 26.6690 76.28 50.73 8.81
21671 26.6700 61.49 50.76 7.86
21672 26.6710 48.76 50.81 7.04
21673 26.6720 53.04 50.85 7.40
21674 26.6730 60.71 50.90 7.95
21675 26.6740 58.09 50.96 7.76
21676 26.6750 73.63 51.02 8.68
21677 26.6760 66.56 51.08 8.24
21678 26.6770 66.12 51.16 8.26
21679 26.6780 58.94 51.24 7.78
21680 26.6790 61.55 51.33 7.92
21681 26.6800 64.01 51.43 8.06
21682 26.6810 54.80 51.55 7.47
21683 26.6820 60.98 51.67 7.96
21684 26.6830 69.40 51.82 8.49
21685 26.6840 73.64 51.98 8.72
21686 26.6850 63.37 52.17 8.03
21687 26.6860 63.18 52.38 8.02
21688 26.6870 62.73 52.63 8.01
21689 26.6880 68.71 52.91 8.39
21690 26.6890 57.53 53.25 7.65
21691 26.6900 58.10 53.64 7.66
21692 26.6910 63.19 54.12 8.01
21693 26.6920 69.45 54.68 8.48
21694 26.6930 66.88 55.38 8.37
21695 26.6940 58.07 56.22 7.77
21696 26.6950 59.62 57.25 7.82
21697 26.6960 66.21 58.53 8.21
21698 26.6970 78.12 60.09 8.94
21699 26.6980 81.61 61.98 9.13
21700 26.6990 73.73 64.24 8.62
21701 26.7000 77.02 66.90 8.80
21702 26.7010 68.15 69.88 8.33
21703 26.7020 68.45 73.05 8.42
21704 26.7030 80.88 76.13 9.21
21705 26.7040 86.87 78.76 9.50
21706 26.7050 84.39 80.52 9.33
21707 26.7060 83.06 81.11 9.21
21708 26.7070 77.19 80.41 8.88
21709 26.7080 71.41 78.52 8.52
21710 26.7090 80.87 75.77 9.04
21711 26.7100 83.97 72.59 9.17
21712 26.7110 70.62 69.39 8.43
21713 26.7120 68.34 66.43 8.43
21714 26.7130 63.88 63.83 8.18
21715 26.7140 62.66 61.62 8.07
21716 26.7150 78.04 59.78 8.97
21717 26.7160 68.16 58.27 8.35
21718 26.7170 60.34 57.04 7.88
21719 26.7180 60.64 56.04 7.88
21720 26.7190 78.66 55.23 8.94
21721 26.7200 64.87 54.56 8.08
21722 26.7210 63.98 54.01 8.05
21723 26.7220 63.78 53.55 8.14
21724 26.7230 49.62 53.17 7.18
21725 26.7240 58.09 52.84 7.73
21726 26.7250 60.80 52.56 7.90
21727 26.7260 72.36 52.32 8.58
21728 26.7270 72.50 52.12 8.64
21729 26.7280 65.66 51.93 8.23
21730 26.7290 52.33 51.77 7.29
21731 26.7300 59.06 51.63 7.75
21732 26.7310 61.14 51.50 7.89
21733 26.7320 65.06 51.39 8.19
21734 26.7330 60.00 51.29 7.90
21735 26.7340 59.10 51.20 7.80
21736 26.7350 48.30 51.12 7.00
21737 26.7360 49.01 51.04 7.07
21738 26.7370 56.25 50.98 7.60
21739 26.7380 78.71 50.92 9.01
21740 26.7390 74.36 50.86 8.69
21741 26.7400 62.90 50.81 7.99
21742 26.7410 46.70 50.77 6.92
21743 26.7420 52.22 50.73 7.35
21744 26.7430 61.49 50.69 8.01
21745 26.7440 71.77 50.65 8.61
21746 26.7450 55.00 50.62 7.51
21747 26.7460 51.59 50.59 7.24
21748 26.7470 57.16 50.57 7.65
21749 26.7480 60.70 50.54 7.88
21750 26.7490 69.93 50.52 8.41
21751 26.7500 61.06 50.50 7.84
21752 26.7510 57.99 50.48 7.67
21753 26.7520 67.26 50.46 8.32
21754 26.7530 66.59 50.45 8.33
21755 26.7540 58.13 50.43 7.77
21756 26.7550 62.03 50.42 7.98
21757 26.7560 60.55 50.41 7.88
21758 26.7570 51.85 50.40 7.30
21759 26.7580 63.48 50.39 8.05
21760 26.7590 54.36 50.38 7.41
21761 26.7600 53.44 50.38 7.32
21762 26.7610 62.62 50.37 7.93
21763 26.7620 66.69 50.36 8.29
21764 26.7630 57.11 50.36 7.70
21765 26.7640 61.10 50.36 7.94
21766 26.7650 58.01 50.36 7.73
21767 26.7660 63.18 50.35 8.03
21768 26.7670 64.19 50.35 8.13
21769 26.7680 49.81 50.35 7.16
21770 26.7690 58.10 50.35 7.67
21771 26.7700 61.52 50.35 7.88
21772 26.7710 55.43 50.35 7.46
21773 26.7720 52.60 50.35 7.36
21774 26.7730 63.53 50.35 8.11
21775 26.7740 53.97 50.36 7.43
21776 26.7750 59.86 50.36 7.83
21777 26.7760 72.78 50.36 8.62
21778 26.7770 69.92 50.37 8.47
21779 26.7780 58.84 50.37 7.78
21780 26.7790 51.72 50.38 7.28
21781 26.7800 57.29 50.40 7.60
21782 26.7810 62.99 50.41 8.00
21783 26.7820 55.12 50.41 7.55
21784 26.7830 52.27 50.42 7.36
21785 26.7840 58.96 50.43 7.78
21786 26.7850 51.98 50.44 7.28
21787 26.7860 58.11 50.48 7.69
21788 26.7870 59.31 50.49 7.77
21789 26.7880 65.03 50.51 8.15
21790 26.7890 53.51 50.52 7.39
21791 26.7900 51.72 50.53 7.24
21792 26.7910 73.71 50.54 8.64
21793 26.7920 62.99 50.56 8.07
21794 26.7930 53.81 50.57 7.49
21795 26.7940 52.40 50.59 7.37
21796 26.7950 73.72 50.60 8.66
21797 26.7960 67.61 50.62 8.26
21798 26.7970 53.63 50.64 7.38
21799 26.7980 57.65 50.65 7.67
21800 26.7990 63.25 50.67 7.98
21801 26.8000 59.39 50.69 7.74
21802 26.8010 50.93 50.71 7.22
21803 26.8020 59.34 50.74 7.86
21804 26.8030 57.57 50.76 7.76
21805 26.8040 65.99 50.78 8.30
21806 26.8050 53.03 50.81 7.36
21807 26.8060 54.48 50.83 7.45
21808 26.8070 65.20 50.86 8.10
21809 26.8080 55.32 50.89 7.52
21810 26.8090 54.65 50.92 7.40
21811 26.8100 53.89 50.95 7.36
21812 26.8110 66.02 50.98 8.18
21813 26.8120 50.92 51.02 7.26
21814 26.8130 54.24 51.05 7.50
21815 26.8140 57.69 51.09 7.71
21816 26.8150 62.42 51.13 8.01
21817 26.8160 59.81 51.17 7.81
21818 26.8170 60.75 51.21 7.89
21819 26.8180 67.42 51.25 8.31
21820 26.8190 78.10 51.30 8.85
21821 26.8200 74.63 51.35 8.63
21822 26.8210 60.86 51.40 7.86
21823 26.8220 57.44 51.45 7.68
21824 26.8230 57.14 51.51 7.68
21825 26.8240 61.10 51.56 7.96
21826 26.8250 48.94 51.63 7.11
21827 26.8260 55.89 51.69 7.56
21828 26.8270 62.36 51.76 7.99
21829 26.8280 66.36 51.83 8.27
21830 26.8290 73.92 51.90 8.66
21831 26.8300 82.43 51.98 9.12
21832 26.8310 59.33 52.07 7.74
21833 26.8320 63.94 52.15 8.13
21834 26.8330 63.27 52.25 8.12
21835 26.8340 68.67 52.34 8.40
21836 26.8350 56.23 52.45 7.57
21837 26.8360 68.89 52.56 8.34
21838 26.8370 66.22 52.67 8.23
21839 26.8380 66.79 52.80 8.30
21840 26.8390 58.10 52.93 7.65
21841 26.8400 66.73 53.07 8.19
21842 26.8410 72.03 53.21 8.56
21843 26.8420 50.41 53.37 7.22
21844 26.8430 52.23 53.54 7.35
21845 26.8440 59.68 53.72 7.84
21846 26.8450 65.58 53.91 8.16
21847 26.8460 62.94 54.11 7.99
21848 26.8470 66.08 54.33 8.17
21849 26.8480 67.88 54.57 8.32
21850 26.8490 46.12 54.82 6.81
21851 26.8500 59.76 55.10 7.75
21852 26.8510 62.68 55.39 7.94
21853 26.8520 72.01 55.71 8.62
21854 26.8530 77.49 56.06 8.98
21855 26.8540 64.63 56.43 8.20
21856 26.8550 66.46 56.84 8.24
21857 26.8560 55.07 57.29 7.49
21858 26.8570 69.96 57.78 8.41
21859 26.8580 68.68 58.32 8.34
21860 26.8590 60.37 58.90 7.78
21861 26.8600 64.12 59.56 8.00
21862 26.8610 63.40 60.27 8.00
21863 26.8620 75.63 61.07 8.83
21864 26.8630 77.21 61.96 8.96
21865 26.8640 75.09 62.95 8.85
21866 26.8650 70.02 64.07 8.49
21867 26.8660 67.63 65.33 8.34
21868 26.8670 51.80 66.75 7.28
21869 26.8680 79.23 68.38 8.99
21870 26.8690 75.13 70.24 8.68
21871 26.8700 88.35 72.40 9.37
21872 26.8710 77.84 74.91 8.84
21873 26.8720 92.34 77.86 9.75
21874 26.8730 94.17 81.36 9.86
21875 26.8740 91.20 85.57 9.71
21876 26.8750 99.90 90.65 10.10
21877 26.8760 101.59 96.85 10.17
21878 26.8770 90.47 104.46 9.61
21879 26.8780 122.95 113.78 11.21
21880 26.8790 141.10 125.20 11.87
21881 26.8800 160.86 139.15 12.67
21882 26.8810 160.16 155.99 12.70
21883 26.8820 174.87 175.90 13.35
21884 26.8830 197.25 198.86 14.27
21885 26.8840 223.46 224.05 15.11
21886 26.8850 239.40 249.63 15.56
21887 26.8860 278.02 272.50 16.75
21888 26.8870 321.94 288.97 18.06
21889 26.8880 312.74 296.02 17.93
21890 26.8890 319.92 292.49 18.02
21891 26.8900 287.02 279.42 16.94
21892 26.8910 238.05 259.20 15.45
21893 26.8920 228.57 235.13 15.31
21894 26.8930 216.27 210.13 14.92
21895 26.8940 173.63 186.42 13.34
21896 26.8950 139.92 165.22 11.92
21897 26.8960 137.78 147.04 11.79
21898 26.8970 134.07 131.78 11.66
21899 26.8980 113.91 119.22 10.80
21900 26.8990 109.37 108.96 10.47
21901 26.9000 89.77 100.55 9.53
21902 26.9010 98.09 93.69 9.96
21903 26.9020 108.31 88.08 10.58
21904 26.9030 99.69 83.45 10.17
21905 26.9040 72.96 79.62 8.69
21906 26.9050 96.71 76.40 9.92
21907 26.9060 78.45 73.66 8.93
21908 26.9070 82.06 71.34 9.11
21909 26.9080 92.26 69.33 9.66
21910 26.9090 71.49 67.60 8.47
21911 26.9100 82.49 66.08 9.09
21912 26.9110 78.76 64.74 8.90
21913 26.9120 73.87 63.56 8.71
21914 26.9130 77.20 62.51 8.98
21915 26.9140 66.34 61.57 8.31
21916 26.9150 62.88 60.73 8.02
21917 26.9160 63.11 59.97 8.01
21918 26.9170 68.12 59.29 8.34
21919 26.9180 70.15 58.67 8.45
21920 26.9190 49.86 58.11 7.06
21921 26.9200 70.21 57.60 8.37
21922 26.9210 67.14 57.13 8.25
21923 26.9220 75.04 56.71 8.79
21924 26.9230 58.96 56.31 7.81
21925 26.9240 73.25 55.95 8.68
21926 26.9250 61.66 55.62 7.95
21927 26.9260 55.43 55.31 7.52
21928 26.9270 69.23 55.03 8.43
21929 26.9280 72.07 54.77 8.57
21930 26.9290 71.53 54.52 8.49
21931 26.9300 78.10 54.30 8.87
21932 26.9310 69.08 54.09 8.35
21933 26.9320 70.01 53.89 8.45
21934 26.9330 64.57 53.70 8.17
21935 26.9340 54.07 53.54 7.44
21936 26.9350 59.12 53.38 7.77
21937 26.9360 60.24 53.22 7.83
21938 26.9370 72.25 53.08 8.59
21939 26.9380 79.25 52.95 9.03
21940 26.9390 53.93 52.82 7.44
21941 26.9400 66.26 52.70 8.19
21942 26.9410 69.49 52.59 8.39
21943 26.9420 73.07 52.49 8.67
21944 26.9430 63.25 52.38 8.07
21945 26.9440 58.77 52.29 7.79
21946 26.9450 59.81 52.20 7.81
21947 26.9460 61.63 52.12 7.89
21948 26.9470 65.51 52.04 8.17
21949 26.9480 70.43 51.96 8.51
21950 26.9490 57.09 51.89 7.61
21951 26.9500 74.94 51.82 8.70
21952 26.9510 80.42 51.75 9.06
21953 26.9520 60.06 51.69 7.91
21954 26.9530 51.44 51.63 7.33
21955 26.9540 61.05 51.58 7.94
21956 26.9550 62.50 51.52 8.00
21957 26.9560 52.11 51.47 7.25
21958 26.9570 59.91 51.42 7.83
21959 26.9580 60.31 51.38 7.86
21960 26.9590 60.56 51.33 7.82
21961 26.9600 75.76 51.29 8.72
21962 26.9610 49.86 51.25 7.11
21963 26.9620 70.67 51.21 8.53
21964 26.9630 64.98 51.17 8.24
21965 26.9640 70.89 51.14 8.58
21966 26.9650 64.84 51.10 8.17
21967 26.9660 61.66 51.07 7.92
21968 26.9670 53.67 51.04 7.43
21969 26.9680 48.40 51.01 7.04
21970 26.9690 61.12 50.98 7.85
21971 26.9700 52.67 50.95 7.26
21972 26.9710 55.97 50.93 7.50
21973 26.9720 64.46 50.90 8.15
21974 26.9730 50.73 50.88 7.28
21975 26.9740 55.58 50.86 7.59
21976 26.9750 71.02 50.84 8.56
21977 26.9760 71.06 50.81 8.54
21978 26.9770 59.41 50.84 7.80
21979 26.9780 56.08 50.83 7.61
21980 26.9790 57.36 50.81 7.61
21981 26.9800 60.32 50.82 7.80
21982 26.9810 63.97 50.80 8.07
21983 26.9820 54.58 50.79 7.49
21984 26.9830 54.55 50.77 7.54
21985 26.9840 54.69 50.76 7.50
21986 26.9850 64.92 50.74 8.14
21987 26.9860 47.37 50.73 6.94
21988 26.9870 63.19 50.72 8.05
21989 26.9880 52.54 50.71 7.35
21990 26.9890 55.80 50.70 7.55
21991 26.9900 69.16 50.69 8.36
21992 26.9910 75.23 50.68 8.76
21993 26.9920 63.74 50.67 8.12
21994 26.9930 62.31 50.66 8.03
21995 26.9940 64.25 50.65 8.13
21996 26.9950 53.83 50.64 7.41
21997 26.9960 60.07 50.64 7.81
21998 26.9970 49.07 50.63 7.10
21999 26.9980 45.64 50.62 6.88
22000 26.9990 60.29 50.62 7.84
22001 27.0000 60.89 50.61 7.84
22002 27.0010 70.72 50.61 8.49
22003 27.0020 62.90 50.60 8.08
22004 27.0030 63.62 50.60 8.16
22005 27.0040 67.25 50.60 8.32
22006 27.0050 48.74 50.59 7.08
22007 27.0060 64.57 50.59 8.09
22008 27.0070 68.68 50.59 8.37
22009 27.0080 57.06 50.59 7.65
22010 27.0090 67.33 50.59 8.26
22011 27.0100 55.83 50.59 7.50
22012 27.0110 57.73 50.59 7.66
22013 27.0120 44.94 50.59 6.84
22014 27.0130 59.39 50.59 7.89
22015 27.0140 51.37 50.59 7.31
22016 27.0150 60.52 50.59 7.88
22017 27.0160 71.18 50.59 8.53
22018 27.0170 46.28 50.59 6.89
22019 27.0180 53.09 50.59 7.36
22020 27.0190 65.05 50.60 8.08
22021 27.0200 71.19 50.60 8.42
22022 27.0210 59.44 50.60 7.75
22023 27.0220 49.25 50.61 7.14
22024 27.0230 71.04 50.61 8.62
22025 27.0240 66.41 50.62 8.32
22026 27.0250 59.85 50.62 7.85
22027 27.0260 52.88 50.63 7.36
22028 27.0270 72.21 50.63 8.61
22029 27.0280 59.35 50.64 7.80
22030 27.0290 73.14 50.65 8.60
22031 27.0300 51.93 50.65 7.19
22032 27.0310 54.03 50.66 7.39
22033 27.0320 47.62 50.67 7.00
22034 27.0330 67.29 50.68 8.37
22035 27.0340 54.25 50.69 7.49
22036 27.0350 72.05 50.70 8.56
22037 27.0360 73.11 50.71 8.65
22038 27.0370 72.65 50.72 8.62
22039 27.0380 60.72 50.73 7.89
22040 27.0390 75.83 50.74 8.77
22041 27.0400 62.94 50.75 7.97
22042 27.0410 51.76 50.77 7.27
22043 27.0420 69.96 50.78 8.48
22044 27.0430 72.63 50.79 8.69
22045 27.0440 66.02 50.81 8.24
22046 27.0450 60.28 50.82 7.86
22047 27.0460 54.89 50.84 7.46
22048 27.0470 52.91 50.85 7.35
22049 27.0480 66.30 50.87 8.25
22050 27.0490 68.68 50.89 8.37
22051 27.0500 54.44 50.91 7.41
22052 27.0510 63.92 50.93 8.06
22053 27.0520 48.59 50.95 7.09
22054 27.0530 60.88 50.97 7.96
22055 27.0540 57.21 50.99 7.68
22056 27.0550 66.93 51.01 8.26
22057 27.0560 60.79 51.03 7.85
22058 27.0570 53.31 51.06 7.38
22059 27.0580 60.78 51.08 7.87
22060 27.0590 63.88 51.11 8.01
22061 27.0600 70.31 51.14 8.39
22062 27.0610 58.82 51.17 7.74
22063 27.0620 70.80 51.19 8.54
22064 27.0630 63.81 51.22 8.19
22065 27.0640 46.22 51.25 6.93
22066 27.0650 57.41 51.29 7.68
22067 27.0660 67.22 51.32 8.24
22068 27.0670 57.21 51.35 7.62
22069 27.0680 58.28 51.39 7.68
22070 27.0690 65.32 51.43 8.09
22071 27.0700 54.51 51.47 7.39
22072 27.0710 69.06 51.52 8.35
22073 27.0720 57.43 51.56 7.71
22074 27.0730 55.87 51.61 7.64
22075 27.0740 69.81 51.66 8.51
22076 27.0750 56.99 51.71 7.63
22077 27.0760 54.08 51.76 7.43
22078 27.0770 68.50 51.82 8.37
22079 27.0780 56.58 51.88 7.58
22080 27.0790 61.73 51.94 7.89
22081 27.0800 60.16 52.01 7.77
22082 27.0810 53.04 52.08 7.31
22083 27.0820 58.17 52.15 7.72
22084 27.0830 60.80 52.22 7.92
22085 27.0840 51.59 52.31 7.29
22086 27.0850 62.93 52.39 8.00
22087 27.0860 60.34 52.48 7.84
22088 27.0870 65.95 52.57 8.21
22089 27.0880 59.54 52.68 7.82
22090 27.0890 64.94 52.78 8.11
22091 27.0900 61.85 52.90 7.88
22092 27.0910 61.87 53.02 7.90
22093 27.0920 61.14 53.14 7.90
22094 27.0930 50.98 53.28 7.28
22095 27.0940 54.52 53.43 7.46
22096 27.0950 65.86 53.58 8.21
22097 27.0960 65.03 53.75 8.12
22098 27.0970 64.78 53.94 8.15
22099 27.0980 59.41 54.13 7.83
22100 27.0990 67.73 54.34 8.24
22101 27.1000 64.69 54.57 8.08
22102 27.1010 66.09 54.82 8.17
22103 27.1020 67.20 55.10 8.32
22104 27.1030 52.97 55.40 7.41
22105 27.1040 51.83 55.73 7.28
22106 27.1050 65.82 56.10 8.19
22107 27.1060 56.21 56.50 7.55
22108 27.1070 72.90 56.96 8.58
22109 27.1080 69.61 57.48 8.43
22110 27.1090 76.18 58.07 8.76
22111 27.1100 74.25 58.75 8.61
22112 27.1110 73.88 59.53 8.66
22113 27.1120 67.43 60.44 8.32
22114 27.1130 64.90 61.52 8.22
22115 27.1140 81.80 62.79 9.16
22116 27.1150 76.16 64.28 8.81
22117 27.1160 75.28 66.04 8.72
22118 27.1170 78.64 68.10 8.93
22119 27.1180 83.75 70.46 9.19
22120 27.1190 77.17 73.12 8.79
22121 27.1200 88.40 75.99 9.41
22122 27.1210 86.81 78.92 9.36
22123 27.1220 102.40 81.76 10.26
22124 27.1230 89.28 84.40 9.61
22125 27.1240 88.49 86.74 9.56
22126 27.1250 78.71 88.68 8.95
22127 27.1260 94.32 90.09 9.77
22128 27.1270 98.90 90.82 10.01
22129 27.1280 74.19 90.89 8.65
22130 27.1290 94.51 90.54 9.75
22131 27.1300 88.40 90.14 9.40
22132 27.1310 99.39 90.08 10.00
22133 27.1320 95.95 90.66 9.89
22134 27.1330 109.35 92.12 10.63
22135 27.1340 105.15 94.64 10.38
22136 27.1350 103.53 98.37 10.28
22137 27.1360 123.29 103.50 11.15
22138 27.1370 128.19 110.20 11.39
22139 27.1380 134.46 118.67 11.70
22140 27.1390 135.07 129.04 11.62
22141 27.1400 133.43 141.27 11.52
22142 27.1410 159.95 155.15 12.61
22143 27.1420 172.64 169.99 13.30
22144 27.1430 180.34 184.69 13.61
22145 27.1440 176.13 198.18 13.41
22146 27.1450 232.49 209.76 15.38
22147 27.1460 247.73 219.12 15.81
22148 27.1470 250.24 226.01 15.95
22149 27.1480 266.67 229.45 16.48
22150 27.1490 266.23 227.84 16.38
22151 27.1500 230.09 220.15 15.17
22152 27.1510 194.34 206.92 14.00
22153 27.1520 163.08 190.08 12.95
22154 27.1530 202.85 172.05 14.50
22155 27.1540 138.45 154.74 11.89
22156 27.1550 161.13 139.13 12.76
22157 27.1560 134.29 125.65 11.64
22158 27.1570 126.18 114.31 11.30
22159 27.1580 108.83 104.89 10.52
22160 27.1590 106.12 97.14 10.35
22161 27.1600 100.83 90.80 10.08
22162 27.1610 90.32 85.62 9.55
22163 27.1620 83.30 81.35 9.28
22164 27.1630 81.68 77.84 9.22
22165 27.1640 92.78 74.92 9.78
22166 27.1650 95.22 72.47 9.84
22167 27.1660 81.02 70.41 9.07
22168 27.1670 91.71 68.65 9.63
22169 27.1680 75.08 67.14 8.74
22170 27.1690 76.35 65.82 8.77
22171 27.1700 71.32 64.68 8.46
22172 27.1710 77.09 63.68 8.85
22173 27.1720 72.26 62.79 8.64
22174 27.1730 66.03 62.01 8.30
22175 27.1740 83.41 61.32 9.26
22176 27.1750 78.57 60.71 8.97
22177 27.1760 67.03 60.16 8.27
22178 27.1770 69.51 59.67 8.44
22179 27.1780 69.29 59.23 8.37
22180 27.1790 67.06 58.84 8.21
22181 27.1800 55.00 58.49 7.41
22182 27.1810 63.99 58.17 8.02
22183 27.1820 59.57 57.89 7.84
22184 27.1830 75.33 57.64 8.82
22185 27.1840 73.86 57.41 8.73
22186 27.1850 62.45 57.21 8.01
22187 27.1860 81.88 57.03 9.14
22188 27.1870 62.86 56.87 8.01
22189 27.1880 67.39 56.73 8.32
22190 27.1890 70.37 56.61 8.42
22191 27.1900 46.24 56.51 6.80
22192 27.1910 57.51 56.42 7.63
22193 27.1920 67.68 56.34 8.33
22194 27.1930 74.32 56.28 8.78
22195 27.1940 63.44 56.23 8.10
22196 27.1950 59.94 56.20 7.82
22197 27.1960 59.98 56.17 7.85
22198 27.1970 56.95 56.16 7.60
22199 27.1980 50.07 56.16 7.17
22200 27.1990 73.67 56.18 8.61
22201 27.2000 69.06 56.20 8.36
22202 27.2010 61.47 56.23 7.92
22203 27.2020 61.07 56.28 7.94
22204 27.2030 56.48 56.34 7.67
22205 27.2040 63.89 56.40 8.11
22206 27.2050 62.02 56.48 7.97
22207 27.2060 63.20 56.57 8.00
22208 27.2070 72.67 56.68 8.59
22209 27.2080 52.93 56.79 7.38
22210 27.2090 68.07 56.92 8.30
22211 27.2100 72.26 57.06 8.54
22212 27.2110 72.69 57.22 8.61
22213 27.2120 70.19 57.39 8.50
22214 27.2130 78.69 57.58 9.08
22215 27.2140 68.73 57.78 8.41
22216 27.2150 68.00 58.00 8.33
22217 27.2160 66.23 58.24 8.19
22218 27.2170 76.42 58.51 8.84
22219 27.2180 65.54 58.79 8.19
22220 27.2190 69.38 59.09 8.38
22221 27.2200 65.91 59.43 8.17
22222 27.2210 67.31 59.79 8.25
22223 27.2220 67.05 60.18 8.33
22224 27.2230 67.25 60.60 8.40
22225 27.2240 74.10 61.06 8.77
22226 27.2250 78.96 61.56 9.03
22227 27.2260 67.80 62.10 8.32
22228 27.2270 89.60 62.69 9.58
22229 27.2280 66.12 63.34 8.25
22230 27.2290 65.87 64.05 8.16
22231 27.2300 63.75 64.82 8.01
22232 27.2310 70.47 65.67 8.43
22233 27.2320 64.35 66.61 8.15
22234 27.2330 79.08 67.64 9.06
22235 27.2340 58.79 68.78 7.82
22236 27.2350 77.49 70.05 8.89
22237 27.2360 73.14 71.46 8.65
22238 27.2370 73.04 73.03 8.64
22239 27.2380 83.68 74.80 9.24
22240 27.2390 93.32 76.79 9.70
22241 27.2400 87.84 79.05 9.36
22242 27.2410 90.93 81.62 9.59
22243 27.2420 109.16 84.57 10.58
22244 27.2430 100.12 87.97 10.19
22245 27.2440 106.69 91.94 10.51
22246 27.2450 109.25 96.60 10.55
22247 27.2460 97.83 102.11 9.97
22248 27.2470 121.82 108.70 11.14
22249 27.2480 107.47 116.60 10.47
22250 27.2490 131.18 126.22 11.50
22251 27.2500 136.29 137.88 11.67
22252 27.2510 150.35 152.06 12.33
22253 27.2520 153.49 169.28 12.56
22254 27.2530 180.01 189.98 13.62
22255 27.2540 217.17 214.59 14.92
22256 27.2550 226.52 243.10 15.14
22257 27.2560 267.73 275.08 16.45
22258 27.2570 292.13 309.01 17.21
22259 27.2580 289.16 342.50 17.15
22260 27.2590 381.16 372.95 19.62
22261 27.2600 379.61 398.14 19.49
22262 27.2610 408.43 416.60 20.32
22263 27.2620 444.71 426.90 21.39
22264 27.2630 405.58 426.85 20.52
22265 27.2640 385.90 414.59 19.94
22266 27.2650 357.75 390.43 19.04
22267 27.2660 316.38 357.37 17.91
22268 27.2670 301.33 320.27 17.47
22269 27.2680 232.54 283.26 15.40
22270 27.2690 239.46 249.06 15.53
22271 27.2700 202.63 219.05 14.24
22272 27.2710 187.39 193.53 13.77
22273 27.2720 173.84 172.28 13.37
22274 27.2730 140.74 154.72 12.07
22275 27.2740 130.15 140.34 11.55
22276 27.2750 131.79 128.61 11.59
22277 27.2760 127.95 119.02 11.39
22278 27.2770 139.68 111.13 11.95
22279 27.2780 103.11 104.65 10.26
22280 27.2790 91.97 99.28 9.60
22281 27.2800 93.86 94.78 9.70
22282 27.2810 102.11 91.02 10.12
22283 27.2820 96.42 87.84 9.96
22284 27.2830 83.19 85.15 9.32
22285 27.2840 80.31 82.89 9.13
22286 27.2850 78.94 80.99 9.01
22287 27.2860 82.63 79.42 9.20
22288 27.2870 80.22 78.15 9.08
22289 27.2880 93.21 77.17 9.76
22290 27.2890 81.76 76.47 9.06
22291 27.2900 73.49 76.07 8.56
22292 27.2910 85.13 75.97 9.27
22293 27.2920 76.91 76.20 8.89
22294 27.2930 72.75 76.76 8.71
22295 27.2940 84.03 77.67 9.33
22296 27.2950 81.86 78.93 9.15
22297 27.2960 87.74 80.46 9.47
22298 27.2970 93.71 82.14 9.78
22299 27.2980 88.46 83.71 9.49
22300 27.2990 89.41 84.84 9.51
22301 27.3000 88.94 85.21 9.49
22302 27.3010 104.81 84.67 10.30
22303 27.3020 82.93 83.29 9.26
22304 27.3030 87.53 81.32 9.53
22305 27.3040 74.17 79.11 8.74
22306 27.3050 84.38 76.92 9.28
22307 27.3060 80.98 74.93 9.06
22308 27.3070 89.55 73.22 9.56
22309 27.3080 73.08 71.81 8.66
22310 27.3090 80.80 70.70 9.03
22311 27.3100 84.09 69.87 9.23
22312 27.3110 82.71 69.27 9.18
22313 27.3120 55.45 68.88 7.60
22314 27.3130 66.24 68.69 8.29
22315 27.3140 83.30 68.66 9.26
22316 27.3150 82.73 68.78 9.17
22317 27.3160 68.20 69.05 8.31
22318 27.3170 75.42 69.47 8.78
22319 27.3180 78.91 70.02 9.01
22320 27.3190 96.95 70.72 9.89
22321 27.3200 72.43 71.58 8.53
22322 27.3210 88.73 72.60 9.49
22323 27.3220 83.58 73.82 9.31
22324 27.3230 84.76 75.26 9.38
22325 27.3240 94.23 76.94 9.86
22326 27.3250 73.94 78.91 8.67
22327 27.3260 78.65 81.24 8.94
22328 27.3270 88.89 83.98 9.51
22329 27.3280 86.43 87.23 9.39
22330 27.3290 101.43 91.14 10.11
22331 27.3300 113.14 95.84 10.63
22332 27.3310 117.25 101.54 10.88
22333 27.3320 119.41 108.52 11.09
22334 27.3330 117.22 117.04 11.09
22335 27.3340 136.06 127.49 11.83
22336 27.3350 155.95 140.30 12.60
22337 27.3360 146.36 155.90 12.19
22338 27.3370 160.07 174.65 12.77
22339 27.3380 211.55 196.91 14.60
22340 27.3390 218.99 222.57 14.83
22341 27.3400 254.66 250.88 15.94
22342 27.3410 295.11 279.98 17.29
22343 27.3420 322.46 306.78 18.22
22344 27.3430 342.80 327.42 18.91
22345 27.3440 369.91 338.37 19.54
22346 27.3450 363.31 338.24 19.24
22347 27.3460 322.67 327.58 18.17
22348 27.3470 311.30 308.44 17.83
22349 27.3480 290.44 283.49 17.18
22350 27.3490 253.43 255.64 15.97
22351 27.3500 230.66 227.84 15.22
22352 27.3510 188.94 201.96 13.85
22353 27.3520 187.04 179.02 13.86
22354 27.3530 168.20 159.38 13.25
22355 27.3540 154.68 142.95 12.66
22356 27.3550 130.24 129.33 11.48
22357 27.3560 105.64 118.14 10.40
22358 27.3570 105.19 108.97 10.37
22359 27.3580 87.74 101.43 9.48
22360 27.3590 104.43 95.24 10.29
22361 27.3600 98.38 90.08 9.96
22362 27.3610 85.34 85.79 9.28
22363 27.3620 102.41 82.16 10.33
22364 27.3630 96.37 79.07 10.03
22365 27.3640 64.71 76.42 8.18
22366 27.3650 72.72 74.13 8.64
22367 27.3660 73.54 72.12 8.66
22368 27.3670 80.96 70.36 9.11
22369 27.3680 68.59 68.81 8.38
22370 27.3690 76.57 67.42 8.83
22371 27.3700 73.34 66.19 8.61
22372 27.3710 61.38 65.09 7.92
22373 27.3720 58.25 64.09 7.77
22374 27.3730 57.81 63.19 7.79
22375 27.3740 54.59 62.38 7.54
22376 27.3750 50.25 61.64 7.17
22377 27.3760 75.75 60.96 8.78
22378 27.3770 60.00 60.35 7.83
22379 27.3780 68.12 59.78 8.35
22380 27.3790 79.06 59.26 8.95
22381 27.3800 71.83 58.78 8.53
22382 27.3810 75.13 58.34 8.73
22383 27.3820 75.05 57.93 8.84
22384 27.3830 75.46 57.55 8.89
22385 27.3840 67.31 57.20 8.36
22386 27.3850 73.02 56.87 8.65
22387 27.3860 49.69 56.57 7.15
22388 27.3870 61.59 56.28 7.94
22389 27.3880 54.77 56.01 7.49
22390 27.3890 72.70 55.76 8.61
22391 27.3900 59.21 55.53 7.72
22392 27.3910 65.34 55.31 8.16
22393 27.3920 77.75 55.10 9.00
22394 27.3930 71.66 54.91 8.64
22395 27.3940 69.55 54.72 8.49
22396 27.3950 46.85 54.55 6.97
22397 27.3960 67.37 54.38 8.28
22398 27.3970 56.81 54.23 7.65
22399 27.3980 61.90 54.08 7.98
22400 27.3990 61.60 53.94 7.92
22401 27.4000 57.20 53.81 7.58
22402 27.4010 49.98 53.68 7.13
22403 27.4020 57.25 53.56 7.72
22404 27.4030 54.34 53.45 7.55
22405 27.4040 65.16 53.34 8.20
22406 27.4050 71.49 53.24 8.56
22407 27.4060 67.18 53.14 8.30
22408 27.4070 63.42 53.04 8.08
22409 27.4080 70.38 52.95 8.49
22410 27.4090 61.47 52.87 7.86
22411 27.4100 66.57 52.78 8.22
22412 27.4110 49.30 52.70 7.09
22413 27.4120 61.24 52.63 7.98
22414 27.4130 65.18 52.56 8.24
22415 27.4140 67.02 52.49 8.34
22416 27.4150 60.86 52.42 7.91
22417 27.4160 57.53 52.35 7.65
22418 27.4170 59.81 52.29 7.83
22419 27.4180 65.17 52.23 8.18
22420 27.4190 66.91 52.18 8.26
22421 27.4200 63.51 52.12 8.05
22422 27.4210 75.10 52.07 8.71
22423 27.4220 71.76 52.02 8.63
22424 27.4230 49.19 51.97 7.19
22425 27.4240 57.34 51.92 7.72
22426 27.4250 65.28 51.87 8.15
22427 27.4260 65.29 51.83 8.17
22428 27.4270 67.00 51.79 8.28
22429 27.4280 68.17 51.75 8.35
22430 27.4290 56.02 51.71 7.55
22431 27.4300 69.14 51.67 8.36
22432 27.4310 48.61 51.63 7.06
22433 27.4320 53.56 51.59 7.47
22434 27.4330 66.05 51.56 8.30
22435 27.4340 61.21 51.52 7.97
22436 27.4350 54.74 51.49 7.51
22437 27.4360 68.00 51.46 8.34
22438 27.4370 55.79 51.43 7.56
22439 27.4380 65.38 51.40 8.20
22440 27.4390 51.59 51.37 7.24
22441 27.4400 64.17 51.34 8.03
22442 27.4410 61.72 51.32 7.91
22443 27.4420 64.57 51.29 8.21
22444 27.4430 75.69 51.26 8.91
22445 27.4440 59.98 51.24 7.90
22446 27.4450 56.52 51.22 7.60
22447 27.4460 56.45 51.19 7.61
22448 27.4470 58.95 51.17 7.78
22449 27.4480 72.31 51.15 8.63
22450 27.4490 55.37 51.13 7.50
22451 27.4500 58.43 51.10 7.67
22452 27.4510 52.92 51.08 7.37
22453 27.4520 62.81 51.06 8.07
22454 27.4530 48.75 51.05 7.14
22455 27.4540 54.54 51.03 7.52
22456 27.4550 59.26 51.01 7.80
22457 27.4560 63.67 50.99 8.05
22458 27.4570 69.32 50.97 8.43
22459 27.4580 65.97 50.96 8.23
22460 27.4590 57.58 50.94 7.64
22461 27.4600 73.41 50.93 8.59
22462 27.4610 63.95 50.91 8.06
22463 27.4620 57.50 50.89 7.72
22464 27.4630 55.81 50.88 7.64
22465 27.4640 61.59 50.87 7.96
22466 27.4650 60.26 50.85 7.85
22467 27.4660 73.54 50.84 8.64
22468 27.4670 73.31 50.83 8.63
22469 27.4680 61.76 50.81 7.95
22470 27.4690 66.37 50.80 8.21
22471 27.4700 63.56 50.79 8.00
22472 27.4710 58.31 50.78 7.69
22473 27.4720 60.09 50.76 7.89
22474 27.4730 63.90 50.75 8.16
22475 27.4740 57.04 50.74 7.67
22476 27.4750 56.27 50.73 7.56
22477 27.4760 52.82 50.72 7.32
22478 27.4770 61.06 50.71 7.87
22479 27.4780 53.02 50.70 7.37
22480 27.4790 64.99 50.69 8.13
22481 27.4800 63.24 50.68 7.97
22482 27.4810 54.37 50.67 7.41
22483 27.4820 49.53 50.66 7.16
22484 27.4830 61.45 50.65 8.03
22485 27.4840 60.26 50.65 7.86
22486 27.4850 63.08 50.64 8.01
22487 27.4860 56.72 50.63 7.59
22488 27.4870 70.16 50.62 8.46
22489 27.4880 76.03 50.61 8.80
22490 27.4890 59.26 50.60 7.75
22491 27.4900 51.17 50.60 7.18
22492 27.4910 72.40 50.59 8.57
22493 27.4920 53.59 50.58 7.46
22494 27.4930 63.67 50.57 8.16
22495 27.4940 64.15 50.56 8.12
22496 27.4950 52.71 50.56 7.36
22497 27.4960 60.58 50.55 7.85
22498 27.4970 66.08 50.54 8.23
22499 27.4980 70.03 50.54 8.47
22500 27.4990 65.53 50.53 8.16
22501 27.5000 73.62 50.53 8.63
22502 27.5010 68.72 50.52 8.35
22503 27.5020 63.41 50.51 8.12
22504 27.5030 53.53 50.51 7.47
22505 27.5040 41.41 50.50 6.55
22506 27.5050 58.00 50.50 7.72
22507 27.5060 55.54 50.49 7.53
22508 27.5070 63.93 50.49 8.10
22509 27.5080 56.79 50.48 7.64
22510 27.5090 65.61 50.46 8.14
22511 27.5100 70.35 50.46 8.44
22512 27.5110 54.25 50.45 7.43
22513 27.5120 62.13 50.45 8.05
22514 27.5130 60.65 50.45 7.96
22515 27.5140 74.41 50.41 8.76
22516 27.5150 63.72 50.40 8.07
22517 27.5160 74.44 50.40 8.70
22518 27.5170 75.36 50.40 8.78
22519 27.5180 65.14 50.39 8.16
22520 27.5190 65.65 50.39 8.15
22521 27.5200 65.66 50.39 8.15
22522 27.5210 57.38 50.38 7.64
22523 27.5220 63.58 50.38 8.12
22524 27.5230 60.87 50.38 7.98
22525 27.5240 77.71 50.38 8.97
22526 27.5250 73.55 50.37 8.68
22527 27.5260 70.02 50.37 8.43
22528 27.5270 72.16 50.37 8.58
22529 27.5280 61.38 50.37 7.93
22530 27.5290 47.95 50.36 6.97
22531 27.5300 62.62 50.36 7.95
22532 27.5310 48.41 50.36 7.03
22533 27.5320 60.81 50.36 7.93
22534 27.5330 60.05 50.36 7.93
22535 27.5340 54.79 50.35 7.54
22536 27.5350 65.23 50.35 8.17
22537 27.5360 55.85 50.35 7.54
22538 27.5370 52.19 50.35 7.31
22539 27.5380 55.98 50.35 7.57
22540 27.5390 51.27 50.34 7.22
22541 27.5400 57.30 50.34 7.59
22542 27.5410 47.64 50.34 6.96
22543 27.5420 42.85 50.34 6.69
22544 27.5430 56.68 50.34 7.71
22545 27.5440 64.23 50.34 8.14
22546 27.5450 64.93 50.34 8.13
22547 27.5460 68.36 50.33 8.36
22548 27.5470 59.72 50.33 7.83
22549 27.5480 64.91 50.33 8.16
22550 27.5490 59.95 50.33 7.81
22551 27.5500 62.52 50.33 7.90
22552 27.5510 65.02 50.33 8.10
22553 27.5520 56.49 50.33 7.66
22554 27.5530 70.69 50.33 8.58
22555 27.5540 64.81 50.33 8.18
22556 27.5550 61.68 50.33 7.95
22557 27.5560 55.12 50.32 7.51
22558 27.5570 61.80 50.32 7.92
22559 27.5580 58.41 50.32 7.76
22560 27.5590 55.63 50.32 7.51
22561 27.5600 53.81 50.32 7.38
22562 27.5610 56.95 50.32 7.59
22563 27.5620 67.67 50.32 8.37
22564 27.5630 60.79 50.32 8.01
22565 27.5640 61.93 50.32 8.03
22566 27.5650 47.81 50.32 7.00
22567 27.5660 58.51 50.32 7.72
22568 27.5670 57.95 50.32 7.73
22569 27.5680 62.08 50.32 7.98
22570 27.5690 62.97 50.32 7.99
22571 27.5700 58.38 50.32 7.68
22572 27.5710 64.70 50.32 8.11
22573 27.5720 45.29 50.32 6.87
22574 27.5730 55.71 50.32 7.63
22575 27.5740 62.05 50.32 8.00
22576 27.5750 66.63 50.32 8.26
22577 27.5760 52.39 50.32 7.31
22578 27.5770 55.69 50.32 7.52
22579 27.5780 57.89 50.32 7.70
22580 27.5790 48.25 50.32 7.03
22581 27.5800 65.89 50.32 8.14
22582 27.5810 68.36 50.32 8.34
22583 27.5820 53.48 50.32 7.44
22584 27.5830 52.61 50.33 7.43
22585 27.5840 67.84 50.33 8.40
22586 27.5850 70.98 50.33 8.52
22587 27.5860 55.15 50.33 7.52
22588 27.5870 65.35 50.33 8.18
22589 27.5880 49.15 50.33 7.13
22590 27.5890 65.47 50.33 8.13
22591 27.5900 52.80 50.33 7.30
22592 27.5910 58.96 50.33 7.76
22593 27.5920 50.70 50.34 7.25
22594 27.5930 45.86 50.34 6.94
22595 27.5940 50.11 50.34 7.22
22596 27.5950 66.91 50.34 8.32
22597 27.5960 52.65 50.34 7.37
22598 27.5970 58.68 50.35 7.73
22599 27.5980 45.91 50.35 6.89
22600 27.5990 59.94 50.35 7.78
22601 27.6000 60.90 50.36 7.83
22602 27.6010 56.28 50.36 7.56
22603 27.6020 58.24 50.36 7.79
22604 27.6030 55.04 50.37 7.62
22605 27.6040 62.35 50.38 8.06
22606 27.6050 58.29 50.38 7.74
22607 27.6060 54.25 50.39 7.47
22608 27.6070 56.93 50.40 7.65
22609 27.6080 70.30 50.42 8.55
22610 27.6090 53.63 50.43 7.39
22611 27.6100 57.13 50.45 7.62
22612 27.6110 55.05 50.47 7.51
22613 27.6120 62.63 50.50 8.09
22614 27.6130 46.92 50.53 7.01
22615 27.6140 61.09 50.56 7.98
22616 27.6150 54.35 50.59 7.47
22617 27.6160 60.43 50.61 7.88
22618 27.6170 65.81 50.62 8.23
22619 27.6180 51.45 50.62 7.29
22620 27.6190 58.91 50.61 7.76
22621 27.6200 62.40 50.58 7.97
22622 27.6210 61.38 50.56 7.93
22623 27.6220 62.70 50.53 8.07
22624 27.6230 53.98 50.50 7.54
22625 27.6240 47.96 50.48 7.04
22626 27.6250 59.62 50.43 7.81
22627 27.6260 60.61 50.41 7.88
22628 27.6270 55.54 50.40 7.56
22629 27.6280 51.78 50.39 7.33
22630 27.6290 59.88 50.38 7.83
22631 27.6300 58.82 50.34 7.74
22632 27.6310 55.28 50.31 7.52
22633 27.6320 70.91 50.30 8.60
22634 27.6330 71.67 50.30 8.67
22635 27.6340 60.53 50.30 7.90
22636 27.6350 51.00 50.30 7.24
22637 27.6360 45.75 50.30 6.85
22638 27.6370 55.92 50.30 7.59
22639 27.6380 56.88 50.30 7.65
22640 27.6390 55.35 50.30 7.52
22641 27.6400 64.23 50.30 8.05
22642 27.6410 69.82 50.30 8.42
22643 27.6420 55.52 50.30 7.60
22644 27.6430 61.52 50.30 8.04
22645 27.6440 60.93 50.30 7.96
22646 27.6450 62.87 50.30 8.04
22647 27.6460 56.58 50.31 7.60
22648 27.6470 64.18 50.31 8.13
22649 27.6480 62.56 50.31 8.00
22650 27.6490 62.88 50.31 8.01
22651 27.6500 71.29 50.31 8.46
22652 27.6510 58.97 50.32 7.73
22653 27.6520 65.38 50.32 8.24
22654 27.6530 65.05 50.32 8.28
22655 27.6540 70.93 50.32 8.61
22656 27.6550 55.80 50.32 7.58
22657 27.6560 54.21 50.33 7.46
22658 27.6570 56.04 50.33 7.57
22659 27.6580 70.38 50.33 8.50
22660 27.6590 47.82 50.33 6.99
22661 27.6600 63.07 50.33 7.96
22662 27.6610 60.24 50.34 7.85
22663 27.6620 62.99 50.34 8.10
22664 27.6630 65.36 50.34 8.30
22665 27.6640 61.69 50.34 7.99
22666 27.6650 59.95 50.35 7.84
22667 27.6660 62.40 50.35 7.98
22668 27.6670 63.35 50.35 8.08
22669 27.6680 59.95 50.35 7.85
22670 27.6690 53.81 50.35 7.42
22671 27.6700 58.70 50.35 7.69
22672 27.6710 64.19 50.36 8.09
22673 27.6720 73.88 50.36 8.74
22674 27.6730 57.79 50.36 7.78
22675 27.6740 65.45 50.36 8.22
22676 27.6750 62.05 50.37 7.98
22677 27.6760 67.66 50.37 8.32
22678 27.6770 61.77 50.37 7.97
22679 27.6780 58.81 50.37 7.79
22680 27.6790 48.10 50.38 7.01
22681 27.6800 58.54 50.38 7.69
22682 27.6810 56.08 50.38 7.56
22683 27.6820 58.21 50.38 7.75
22684 27.6830 57.96 50.39 7.76
22685 27.6840 61.58 50.39 7.99
22686 27.6850 63.12 50.40 8.03
22687 27.6860 51.12 50.40 7.20
22688 27.6870 65.31 50.40 8.19
22689 27.6880 65.57 50.41 8.19
22690 27.6890 63.87 50.41 8.03
22691 27.6900 56.32 50.41 7.53
22692 27.6910 66.03 50.41 8.19
22693 27.6920 49.85 50.42 7.19
22694 27.6930 56.76 50.42 7.71
22695 27.6940 57.57 50.42 7.70
22696 27.6950 69.34 50.43 8.42
22697 27.6960 65.81 50.43 8.20
22698 27.6970 52.50 50.43 7.33
22699 27.6980 57.73 50.44 7.68
22700 27.6990 45.12 50.44 6.76
22701 27.7000 65.37 50.44 8.11
22702 27.7010 50.68 50.44 7.21
22703 27.7020 49.39 50.45 7.16
22704 27.7030 64.47 50.45 8.20
22705 27.7040 58.97 50.45 7.82
22706 27.7050 61.14 50.46 7.91
22707 27.7060 62.84 50.46 7.97
22708 27.7070 59.89 50.46 7.80
22709 27.7080 55.40 50.47 7.51
22710 27.7090 63.20 50.47 8.01
22711 27.7100 64.53 50.47 8.03
22712 27.7110 56.85 50.43 7.61
22713 27.7120 51.68 50.43 7.32
22714 27.7130 50.59 50.43 7.29
22715 27.7140 55.78 50.41 7.60
22716 27.7150 63.63 50.41 8.07
22717 27.7160 54.29 50.42 7.45
22718 27.7170 55.99 50.42 7.59
22719 27.7180 61.41 50.42 7.91
22720 27.7190 57.39 50.43 7.61
22721 27.7200 56.67 50.43 7.57
22722 27.7210 66.97 50.43 8.24
22723 27.7220 64.77 50.44 8.20
22724 27.7230 71.66 50.44 8.67
22725 27.7240 70.44 50.44 8.54
22726 27.7250 59.32 50.45 7.79
22727 27.7260 48.04 50.45 7.00
22728 27.7270 53.89 50.46 7.43
22729 27.7280 44.23 50.46 6.74
22730 27.7290 63.36 50.46 8.01
22731 27.7300 57.41 50.47 7.61
22732 27.7310 55.62 50.47 7.52
22733 27.7320 55.53 50.47 7.59
22734 27.7330 62.59 50.48 8.08
22735 27.7340 60.09 50.48 7.88
22736 27.7350 71.41 50.49 8.55
22737 27.7360 59.63 50.49 7.81
22738 27.7370 69.88 50.49 8.50
22739 27.7380 65.71 50.50 8.23
22740 27.7390 55.88 50.50 7.56
22741 27.7400 61.32 50.50 7.87
22742 27.7410 51.50 50.51 7.22
22743 27.7420 56.39 50.51 7.65
22744 27.7430 52.73 50.51 7.44
22745 27.7440 59.45 50.52 7.84
22746 27.7450 74.24 50.52 8.72
22747 27.7460 59.45 50.53 7.79
22748 27.7470 50.12 50.53 7.18
22749 27.7480 71.28 50.53 8.57
22750 27.7490 60.84 50.54 7.86
22751 27.7500 56.36 50.54 7.54
22752 27.7510 55.25 50.55 7.48
22753 27.7520 55.74 50.55 7.59
22754 27.7530 64.00 50.55 8.18
22755 27.7540 69.45 50.56 8.47
22756 27.7550 62.77 50.56 8.01
22757 27.7560 63.76 50.56 8.07
22758 27.7570 57.62 50.57 7.71
22759 27.7580 52.48 50.57 7.33
22760 27.7590 55.39 50.58 7.52
22761 27.7600 39.51 50.58 6.32
22762 27.7610 60.33 50.58 7.85
22763 27.7620 58.39 50.59 7.82
22764 27.7630 46.79 50.59 7.00
22765 27.7640 68.50 50.60 8.43
22766 27.7650 68.71 50.60 8.38
22767 27.7660 67.26 50.60 8.29
22768 27.7670 69.07 50.61 8.42
22769 27.7680 57.19 50.61 7.67
22770 27.7690 50.16 50.62 7.16
22771 27.7700 59.62 50.62 7.74
22772 27.7710 50.75 50.62 7.19
22773 27.7720 50.94 50.63 7.30
22774 27.7730 59.38 50.63 7.88
22775 27.7740 53.51 50.64 7.41
22776 27.7750 61.65 50.64 7.94
22777 27.7760 57.96 50.65 7.70
22778 27.7770 61.59 50.65 7.92
22779 27.7780 69.57 50.65 8.44
22780 27.7790 62.24 50.66 7.96
22781 27.7800 63.48 50.66 8.03
22782 27.7810 62.41 50.67 7.98
22783 27.7820 42.90 50.67 6.68
22784 27.7830 59.01 50.68 7.84
22785 27.7840 51.15 50.68 7.29
22786 27.7850 59.22 50.68 7.78
22787 27.7860 69.06 50.69 8.38
22788 27.7870 61.66 50.69 7.97
22789 27.7880 57.93 50.70 7.72
22790 27.7890 59.25 50.70 7.79
22791 27.7900 57.58 50.71 7.64
22792 27.7910 55.78 50.71 7.54
22793 27.7920 57.22 50.72 7.73
22794 27.7930 47.74 50.72 7.07
22795 27.7940 56.11 50.73 7.65
22796 27.7950 52.60 50.73 7.34
22797 27.7960 62.43 50.74 8.00
22798 27.7970 63.15 50.74 8.05
22799 27.7980 58.99 50.75 7.79
22800 27.7990 58.69 50.75 7.73
22801 27.8000 56.71 50.76 7.57
22802 27.8010 64.17 50.77 8.10
22803 27.8020 54.96 50.78 7.57
22804 27.8030 61.37 50.78 8.01
22805 27.8040 60.40 50.79 7.90
22806 27.8050 60.84 50.80 7.94
22807 27.8060 51.44 50.81 7.27
22808 27.8070 60.12 50.83 7.84
22809 27.8080 53.86 50.84 7.43
22810 27.8090 59.77 50.85 7.79
22811 27.8100 52.64 50.86 7.33
22812 27.8110 64.59 50.87 8.09
22813 27.8120 68.34 50.87 8.44
22814 27.8130 56.96 50.88 7.76
22815 27.8140 61.10 50.88 7.98
22816 27.8150 51.79 50.88 7.31
22817 27.8160 50.61 50.87 7.19
22818 27.8170 45.89 50.87 6.88
22819 27.8180 51.14 50.87 7.26
22820 27.8190 58.58 50.87 7.72
22821 27.8200 63.76 50.87 8.05
22822 27.8210 60.09 50.87 7.83
22823 27.8220 58.90 50.87 7.85
22824 27.8230 60.32 50.87 7.95
22825 27.8240 56.71 50.87 7.66
22826 27.8250 48.54 50.87 7.06
22827 27.8260 56.29 50.88 7.59
22828 27.8270 55.73 50.88 7.56
22829 27.8280 64.08 50.88 8.12
22830 27.8290 68.49 50.89 8.35
22831 27.8300 52.89 50.89 7.34
22832 27.8310 43.92 50.90 6.72
22833 27.8320 51.19 50.90 7.30
22834 27.8330 62.73 50.91 8.12
22835 27.8340 61.65 50.91 8.00
22836 27.8350 47.48 50.92 7.00
22837 27.8360 52.28 50.92 7.34
22838 27.8370 42.94 50.93 6.65
22839 27.8380 71.29 50.93 8.57
22840 27.8390 68.79 50.94 8.35
22841 27.8400 63.27 50.94 7.99
22842 27.8410 58.00 50.95 7.70
22843 27.8420 77.33 50.95 8.97
22844 27.8430 58.89 50.96 7.86
22845 27.8440 65.25 50.96 8.25
22846 27.8450 66.36 50.97 8.28
22847 27.8460 62.79 50.98 8.03
22848 27.8470 70.19 50.98 8.46
22849 27.8480 61.46 50.99 7.92
22850 27.8490 62.54 50.99 7.96
22851 27.8500 63.45 51.00 8.00
22852 27.8510 64.85 51.01 8.11
22853 27.8520 53.32 51.01 7.47
22854 27.8530 56.32 51.02 7.70
22855 27.8540 67.67 51.03 8.38
22856 27.8550 60.77 51.03 7.93
22857 27.8560 60.29 51.04 7.85
22858 27.8570 49.33 51.05 7.11
22859 27.8580 71.93 51.06 8.58
22860 27.8590 74.43 51.06 8.70
22861 27.8600 57.15 51.07 7.64
22862 27.8610 48.61 51.08 7.05
22863 27.8620 63.35 51.09 8.11
22864 27.8630 64.03 51.10 8.19
22865 27.8640 50.61 51.11 7.24
22866 27.8650 63.78 51.12 8.08
22867 27.8660 62.15 51.12 7.96
22868 27.8670 50.95 51.13 7.22
22869 27.8680 55.48 51.15 7.57
22870 27.8690 53.20 51.16 7.38
22871 27.8700 55.28 51.17 7.50
22872 27.8710 59.39 51.18 7.78
22873 27.8720 71.99 51.19 8.61
22874 27.8730 60.26 51.21 7.94
22875 27.8740 46.49 51.22 6.92
22876 27.8750 46.33 51.24 6.91
22877 27.8760 68.95 51.25 8.41
22878 27.8770 67.80 51.27 8.35
22879 27.8780 65.82 51.29 8.25
22880 27.8790 57.53 51.31 7.67
22881 27.8800 54.13 51.33 7.43
22882 27.8810 57.81 51.35 7.67
22883 27.8820 52.87 51.38 7.41
22884 27.8830 55.87 51.41 7.65
22885 27.8840 69.57 51.44 8.48
22886 27.8850 66.67 51.47 8.28
22887 27.8860 57.88 51.51 7.71
22888 27.8870 66.06 51.55 8.24
22889 27.8880 62.42 51.60 8.04
22890 27.8890 63.11 51.65 8.04
22891 27.8900 61.43 51.72 7.87
22892 27.8910 74.00 51.79 8.69
22893 27.8920 54.58 51.88 7.56
22894 27.8930 66.63 51.98 8.39
22895 27.8940 61.03 52.10 7.96
22896 27.8950 70.75 52.25 8.52
22897 27.8960 53.83 52.42 7.41
22898 27.8970 60.16 52.64 7.86
22899 27.8980 57.30 52.90 7.69
22900 27.8990 65.35 53.21 8.16
22901 27.9000 46.40 53.58 6.85
22902 27.9010 60.59 54.01 7.88
22903 27.9020 64.14 54.50 8.17
22904 27.9030 63.23 55.03 8.16
22905 27.9040 67.94 55.56 8.38
22906 27.9050 53.71 56.05 7.46
22907 27.9060 58.61 56.43 7.71
22908 27.9070 67.38 56.63 8.28
22909 27.9080 70.85 56.63 8.52
22910 27.9090 61.36 56.42 7.88
22911 27.9100 65.53 56.05 8.13
22912 27.9110 73.36 55.57 8.64
22913 27.9120 54.16 55.05 7.51
22914 27.9130 54.25 54.53 7.57
22915 27.9140 50.73 54.06 7.27
22916 27.9150 46.66 53.64 6.93
22917 27.9160 61.90 53.28 7.93
22918 27.9170 65.30 52.98 8.16
22919 27.9180 50.84 52.74 7.22
22920 27.9190 50.07 52.53 7.13
22921 27.9200 69.94 52.37 8.43
22922 27.9210 64.29 52.23 8.10
22923 27.9220 50.85 52.12 7.29
22924 27.9230 61.49 52.03 8.02
22925 27.9240 52.85 51.95 7.39
22926 27.9250 61.74 51.89 7.96
22927 27.9260 64.89 51.84 8.13
22928 27.9270 57.71 51.79 7.70
22929 27.9280 58.16 51.75 7.72
22930 27.9290 49.58 51.72 7.11
22931 27.9300 69.78 51.69 8.38
22932 27.9310 62.95 51.67 7.98
22933 27.9320 62.25 51.65 7.99
22934 27.9330 49.98 51.63 7.22
22935 27.9340 61.11 51.62 7.95
22936 27.9350 64.71 51.60 8.15
22937 27.9360 62.46 51.59 8.01
22938 27.9370 63.58 51.58 8.09
22939 27.9380 63.32 51.57 8.08
22940 27.9390 60.71 51.57 7.86
22941 27.9400 59.32 51.56 7.73
22942 27.9410 60.91 51.56 7.87
22943 27.9420 61.79 51.55 7.98
22944 27.9430 56.54 51.55 7.68
22945 27.9440 42.45 51.55 6.66
22946 27.9450 59.18 51.54 7.78
22947 27.9460 61.83 51.54 7.94
22948 27.9470 57.12 51.54 7.65
22949 27.9480 56.61 51.54 7.64
22950 27.9490 53.44 51.54 7.38
22951 27.9500 42.57 51.54 6.55
22952 27.9510 55.73 51.54 7.53
22953 27.9520 58.71 51.54 7.81
22954 27.9530 60.78 51.55 7.97
22955 27.9540 57.65 51.55 7.72
22956 27.9550 55.41 51.55 7.53
22957 27.9560 46.64 51.55 6.90
22958 27.9570 62.74 51.56 8.01
22959 27.9580 60.65 51.56 7.88
22960 27.9590 62.84 51.56 8.01
22961 27.9600 55.42 51.56 7.51
22962 27.9610 55.58 51.57 7.55
22963 27.9620 55.15 51.57 7.58
22964 27.9630 52.06 51.58 7.38
22965 27.9640 61.04 51.58 7.96
22966 27.9650 58.86 51.58 7.76
22967 27.9660 64.53 51.59 8.08
22968 27.9670 54.54 51.59 7.46
22969 27.9680 54.03 51.60 7.43
22970 27.9690 53.31 51.60 7.40
22971 27.9700 54.56 51.61 7.43
22972 27.9710 58.33 51.61 7.71
22973 27.9720 61.58 51.62 7.99
22974 27.9730 47.46 51.63 7.05
22975 27.9740 58.98 51.63 7.80
22976 27.9750 65.29 51.64 8.14
22977 27.9760 46.94 51.64 6.92
22978 27.9770 60.92 51.65 7.91
22979 27.9780 56.13 51.66 7.60
22980 27.9790 64.03 51.67 8.09
22981 27.9800 55.53 51.67 7.50
22982 27.9810 58.51 51.68 7.72
22983 27.9820 52.94 51.69 7.43
22984 27.9830 50.07 51.70 7.23
22985 27.9840 60.67 51.70 7.91
22986 27.9850 59.86 51.71 7.85
22987 27.9860 64.63 51.72 8.12
22988 27.9870 63.10 51.72 8.06
22989 27.9880 54.43 51.73 7.49
22990 27.9890 59.70 51.74 7.81
22991 27.9900 64.45 51.74 8.08
22992 27.9910 71.53 51.75 8.52
22993 27.9920 67.93 51.76 8.38
22994 27.9930 65.58 51.76 8.29
22995 27.9940 65.83 51.77 8.26
22996 27.9950 61.42 51.78 7.97
22997 27.9960 57.10 51.79 7.65
22998 27.9970 59.78 51.80 7.84
22999 27.9980 53.09 51.81 7.40
23000 27.9990 57.36 51.82 7.65
23001 28.0000 59.84 51.83 7.80
23002 28.0010 42.79 51.84 6.61
23003 28.0020 58.20 51.85 7.80
23004 28.0030 55.39 51.86 7.64
23005 28.0040 58.06 51.87 7.79
23006 28.0050 53.38 51.88 7.40
23007 28.0060 61.99 51.89 7.93
23008 28.0070 61.83 51.91 7.96
23009 28.0080 57.98 51.92 7.70
23010 28.0090 62.46 51.93 7.99
23011 28.0100 55.18 51.95 7.50
23012 28.0110 52.32 51.96 7.34
23013 28.0120 59.11 51.98 7.86
23014 28.0130 55.56 51.99 7.63
23015 28.0140 56.87 52.01 7.72
23016 28.0150 58.20 52.02 7.73
23017 28.0160 49.01 52.04 7.09
23018 28.0170 53.33 52.06 7.39
23019 28.0180 58.79 52.08 7.81
23020 28.0190 55.80 52.10 7.53
23021 28.0200 55.38 52.12 7.50
23022 28.0210 51.28 52.15 7.24
23023 28.0220 61.34 52.17 7.98
23024 28.0230 56.18 52.20 7.69
23025 28.0240 67.58 52.23 8.40
23026 28.0250 57.76 52.26 7.70
23027 28.0260 64.30 52.29 8.11
23028 28.0270 63.45 52.32 8.04
23029 28.0280 61.45 52.36 7.95
23030 28.0290 56.11 52.40 7.58
23031 28.0300 56.57 52.44 7.57
23032 28.0310 62.01 52.49 7.92
23033 28.0320 62.62 52.54 8.05
23034 28.0330 59.10 52.59 7.88
23035 28.0340 58.47 52.65 7.79
23036 28.0350 48.04 52.74 7.04
23037 28.0360 52.25 52.81 7.35
23038 28.0370 69.00 52.89 8.43
23039 28.0380 55.67 52.98 7.59
23040 28.0390 62.76 53.10 8.01
23041 28.0400 57.36 53.23 7.64
23042 28.0410 66.41 53.36 8.23
23043 28.0420 59.91 53.51 7.88
23044 28.0430 62.59 53.68 8.12
23045 28.0440 57.26 53.87 7.70
23046 28.0450 53.40 54.10 7.42
23047 28.0460 69.55 54.37 8.42
23048 28.0470 73.52 54.69 8.66
23049 28.0480 73.66 55.08 8.70
23050 28.0490 56.60 55.54 7.59
23051 28.0500 74.13 56.11 8.67
23052 28.0510 50.77 56.80 7.22
23053 28.0520 65.29 57.63 8.25
23054 28.0530 64.03 58.63 8.21
23055 28.0540 68.81 59.82 8.45
23056 28.0550 58.54 61.21 7.74
23057 28.0560 77.00 62.78 8.85
23058 28.0570 74.49 64.49 8.75
23059 28.0580 71.70 66.21 8.59
23060 28.0590 77.20 67.74 8.84
23061 28.0600 83.99 68.88 9.22
23062 28.0610 86.97 69.44 9.45
23063 28.0620 71.23 69.34 8.60
23064 28.0630 72.62 68.60 8.72
23065 28.0640 75.42 67.36 8.82
23066 28.0650 72.47 65.79 8.62
23067 28.0660 56.46 64.10 7.59
23068 28.0670 60.17 62.45 7.83
23069 28.0680 63.26 60.94 8.06
23070 28.0690 64.06 59.62 8.08
23071 28.0700 67.26 58.49 8.25
23072 28.0710 74.80 57.54 8.74
23073 28.0720 59.78 56.76 7.85
23074 28.0730 73.20 56.11 8.73
23075 28.0740 58.98 55.58 7.82
23076 28.0750 53.19 55.15 7.39
23077 28.0760 79.49 54.79 9.00
23078 28.0770 67.41 54.49 8.34
23079 28.0780 67.29 54.25 8.34
23080 28.0790 62.20 54.04 7.97
23081 28.0800 61.71 53.86 7.91
23082 28.0810 53.49 53.71 7.38
23083 28.0820 55.80 53.58 7.61
23084 28.0830 66.58 53.46 8.34
23085 28.0840 64.25 53.36 8.15
23086 28.0850 61.83 53.28 8.01
23087 28.0860 75.71 53.20 8.80
23088 28.0870 67.10 53.13 8.29
23089 28.0880 66.39 53.07 8.27
23090 28.0890 55.67 53.02 7.51
23091 28.0900 56.40 52.97 7.56
23092 28.0910 49.10 52.93 7.07
23093 28.0920 54.84 52.89 7.55
23094 28.0930 69.22 52.86 8.51
23095 28.0940 56.58 52.83 7.67
23096 28.0950 56.39 52.80 7.62
23097 28.0960 57.32 52.78 7.66
23098 28.0970 63.94 52.75 8.07
23099 28.0980 61.02 52.73 7.89
23100 28.0990 72.74 52.72 8.60
23101 28.1000 60.95 52.70 7.87
23102 28.1010 47.25 52.69 6.96
23103 28.1020 56.87 52.67 7.69
23104 28.1030 51.38 52.66 7.37
23105 28.1040 51.70 52.65 7.30
23106 28.1050 65.68 52.64 8.21
23107 28.1060 63.60 52.63 8.06
23108 28.1070 67.47 52.63 8.30
23109 28.1080 67.76 52.62 8.31
23110 28.1090 50.46 52.61 7.18
23111 28.1100 58.67 52.61 7.71
23112 28.1110 56.41 52.60 7.60
23113 28.1120 57.17 52.60 7.71
23114 28.1130 62.16 52.60 8.06
23115 28.1140 63.04 52.60 8.07
23116 28.1150 57.06 52.59 7.62
23117 28.1160 63.78 52.59 8.05
23118 28.1170 67.72 52.59 8.30
23119 28.1180 59.19 52.59 7.81
23120 28.1190 69.53 52.59 8.40
23121 28.1200 63.47 52.59 8.01
23122 28.1210 57.33 52.59 7.62
23123 28.1220 59.23 52.59 7.84
23124 28.1230 43.64 52.59 6.77
23125 28.1240 58.83 52.59 7.82
23126 28.1250 54.83 52.60 7.50
23127 28.1260 56.11 52.60 7.58
23128 28.1270 61.81 52.60 7.97
23129 28.1280 64.47 52.60 8.12
23130 28.1290 58.87 52.60 7.71
23131 28.1300 58.18 52.61 7.65
23132 28.1310 52.01 52.61 7.23
23133 28.1320 49.25 52.61 7.11
23134 28.1330 72.23 52.62 8.64
23135 28.1340 56.55 52.62 7.65
23136 28.1350 53.61 52.62 7.40
23137 28.1360 48.83 52.63 7.07
23138 28.1370 63.07 52.63 8.02
23139 28.1380 49.91 52.63 7.16
23140 28.1390 61.43 52.64 7.87
23141 28.1400 67.34 52.64 8.23
23142 28.1410 50.62 52.65 7.16
23143 28.1420 59.14 52.65 7.81
23144 28.1430 73.76 52.66 8.76
23145 28.1440 55.41 52.66 7.57
23146 28.1450 57.76 52.66 7.68
23147 28.1460 70.93 52.67 8.49
23148 28.1470 50.30 52.67 7.19
23149 28.1480 57.24 52.68 7.67
23150 28.1490 46.56 52.68 6.89
23151 28.1500 58.30 52.69 7.68
23152 28.1510 67.06 52.69 8.24
23153 28.1520 60.27 52.70 7.89
23154 28.1530 59.10 52.70 7.83
23155 28.1540 48.53 52.71 7.07
23156 28.1550 55.99 52.72 7.56
23157 28.1560 59.76 52.72 7.75
23158 28.1570 49.00 52.73 7.10
23159 28.1580 50.08 52.73 7.18
23160 28.1590 54.54 52.74 7.44
23161 28.1600 52.59 52.74 7.31
23162 28.1610 50.93 52.75 7.22
23163 28.1620 49.67 52.76 7.20
23164 28.1630 55.15 52.76 7.61
23165 28.1640 56.88 52.77 7.65
23166 28.1650 47.61 52.77 6.97
23167 28.1660 62.21 52.78 7.99
23168 28.1670 68.54 52.79 8.34
23169 28.1680 61.89 52.79 7.97
23170 28.1690 60.49 52.80 7.84
23171 28.1700 65.94 52.81 8.17
23172 28.1710 51.86 52.81 7.29
23173 28.1720 48.06 52.82 7.06
23174 28.1730 55.92 52.82 7.64
23175 28.1740 55.00 52.83 7.56
23176 28.1750 66.52 52.84 8.25
23177 28.1760 54.97 52.84 7.48
23178 28.1770 57.45 52.85 7.66
23179 28.1780 68.11 52.86 8.36
23180 28.1790 53.71 52.86 7.36
23181 28.1800 71.78 52.87 8.49
23182 28.1810 55.63 52.88 7.52
23183 28.1820 58.99 52.89 7.83
23184 28.1830 51.35 52.89 7.32
23185 28.1840 50.06 52.90 7.22
23186 28.1850 57.73 52.91 7.70
23187 28.1860 55.53 52.91 7.56
23188 28.1870 50.45 52.92 7.19
23189 28.1880 78.56 52.93 8.95
23190 28.1890 60.33 52.93 7.82
23191 28.1900 64.98 52.94 8.10
23192 28.1910 48.63 52.95 7.03
23193 28.1920 61.39 52.96 7.96
23194 28.1930 56.39 52.96 7.68
23195 28.1940 64.77 52.97 8.18
23196 28.1950 57.73 52.98 7.71
23197 28.1960 53.13 52.99 7.33
23198 28.1970 56.76 52.99 7.62
23199 28.1980 55.87 53.00 7.57
23200 28.1990 62.36 53.01 7.95
23201 28.2000 50.23 53.02 7.12
23202 28.2010 65.24 53.02 8.15
23203 28.2020 58.82 53.03 7.84
23204 28.2030 56.30 53.04 7.65
23205 28.2040 52.47 53.05 7.38
23206 28.2050 53.89 53.05 7.41
23207 28.2060 58.21 53.06 7.69
23208 28.2070 59.34 53.07 7.75
23209 28.2080 65.61 53.08 8.20
23210 28.2090 51.34 53.09 7.24
23211 28.2100 56.94 53.09 7.61
23212 28.2110 54.45 53.10 7.49
23213 28.2120 53.55 53.11 7.47
23214 28.2130 53.77 53.12 7.48
23215 28.2140 56.78 53.13 7.65
23216 28.2150 59.50 53.13 7.79
23217 28.2160 61.49 53.14 7.89
23218 28.2170 66.67 53.15 8.25
23219 28.2180 56.85 53.16 7.65
23220 28.2190 52.01 53.17 7.28
23221 28.2200 58.38 53.18 7.69
23222 28.2210 60.98 53.18 7.88
23223 28.2220 65.70 53.19 8.26
23224 28.2230 69.53 53.20 8.52
23225 28.2240 51.08 53.21 7.27
23226 28.2250 55.41 53.22 7.54
23227 28.2260 59.13 53.23 7.76
23228 28.2270 57.32 53.24 7.66
23229 28.2280 61.77 53.25 7.96
23230 28.2290 54.12 53.25 7.41
23231 28.2300 73.57 53.26 8.60
23232 28.2310 52.42 53.27 7.30
23233 28.2320 64.87 53.28 8.19
23234 28.2330 65.85 53.29 8.27
23235 28.2340 53.03 53.30 7.42
23236 28.2350 59.26 53.31 7.81
23237 28.2360 57.90 53.32 7.69
23238 28.2370 48.27 53.33 7.04
23239 28.2380 46.10 53.34 6.88
23240 28.2390 54.47 53.35 7.42
23241 28.2400 61.95 53.35 7.89
23242 28.2410 54.28 53.36 7.39
23243 28.2420 56.86 53.37 7.68
23244 28.2430 55.56 53.38 7.62
23245 28.2440 68.02 53.39 8.39
23246 28.2450 66.10 53.40 8.25
23247 28.2460 57.77 53.41 7.67
23248 28.2470 47.97 53.42 7.00
23249 28.2480 65.39 53.43 8.19
23250 28.2490 61.48 53.44 7.90
23251 28.2500 66.54 53.45 8.21
23252 28.2510 68.89 53.46 8.38
23253 28.2520 53.75 53.47 7.47
23254 28.2530 59.85 53.48 7.91
23255 28.2540 52.26 53.49 7.36
23256 28.2550 53.91 53.50 7.44
23257 28.2560 52.61 53.51 7.31
23258 28.2570 66.75 53.53 8.25
23259 28.2580 53.63 53.54 7.41
23260 28.2590 58.37 53.55 7.72
23261 28.2600 50.66 53.56 7.16
23262 28.2610 55.15 53.57 7.52
23263 28.2620 60.96 53.58 7.96
23264 28.2630 68.88 53.59 8.49
23265 28.2640 53.96 53.60 7.46
23266 28.2650 49.71 53.61 7.14
23267 28.2660 53.36 53.62 7.35
23268 28.2670 66.85 53.64 8.25
23269 28.2680 59.72 53.65 7.82
23270 28.2690 58.96 53.66 7.74
23271 28.2700 60.07 53.67 7.81
23272 28.2710 63.50 53.68 8.05
23273 28.2720 68.74 53.70 8.44
23274 28.2730 57.12 53.71 7.75
23275 28.2740 66.71 53.72 8.33
23276 28.2750 57.74 53.73 7.68
23277 28.2760 56.59 53.74 7.60
23278 28.2770 59.86 53.76 7.82
23279 28.2780 56.99 53.79 7.64
23280 28.2790 51.51 53.80 7.24
23281 28.2800 51.53 53.82 7.22
23282 28.2810 61.35 53.83 7.90
23283 28.2820 56.88 53.86 7.68
23284 28.2830 45.96 53.90 6.94
23285 28.2840 49.13 53.91 7.13
23286 28.2850 53.98 53.92 7.46
23287 28.2860 49.77 53.94 7.14
23288 28.2870 71.71 53.95 8.53
23289 28.2880 66.48 53.97 8.25
23290 28.2890 55.50 53.98 7.49
23291 28.2900 56.20 54.00 7.55
23292 28.2910 65.58 54.01 8.14
23293 28.2920 80.34 54.03 9.10
23294 28.2930 69.22 54.04 8.52
23295 28.2940 52.78 54.06 7.39
23296 28.2950 55.56 54.07 7.56
23297 28.2960 47.43 54.09 6.98
23298 28.2970 52.07 54.11 7.30
23299 28.2980 61.13 54.12 7.92
23300 28.2990 64.55 54.14 8.12
23301 28.3000 60.17 54.16 7.78
23302 28.3010 66.89 54.17 8.24
23303 28.3020 76.03 54.19 8.87
23304 28.3030 52.28 54.21 7.38
23305 28.3040 52.60 54.23 7.38
23306 28.3050 52.74 54.25 7.35
23307 28.3060 55.67 54.26 7.54
23308 28.3070 48.95 54.28 7.08
23309 28.3080 57.71 54.30 7.68
23310 28.3090 48.13 54.32 6.99
23311 28.3100 74.02 54.34 8.67
23312 28.3110 56.17 54.36 7.56
23313 28.3120 75.85 54.38 8.87
23314 28.3130 68.27 54.40 8.44
23315 28.3140 60.73 54.43 7.91
23316 28.3150 42.59 54.45 6.61
23317 28.3160 58.63 54.47 7.70
23318 28.3170 58.63 54.49 7.75
23319 28.3180 51.21 54.52 7.24
23320 28.3190 57.34 54.54 7.67
23321 28.3200 71.31 54.56 8.49
23322 28.3210 71.23 54.59 8.51
23323 28.3220 56.26 54.61 7.64
23324 28.3230 61.84 54.64 8.04
23325 28.3240 61.12 54.66 7.95
23326 28.3250 56.60 54.69 7.60
23327 28.3260 69.37 54.72 8.38
23328 28.3270 74.99 54.75 8.74
23329 28.3280 48.53 54.78 7.07
23330 28.3290 68.22 54.80 8.30
23331 28.3300 56.45 54.83 7.55
23332 28.3310 60.91 54.87 7.84
23333 28.3320 54.70 54.90 7.51
23334 28.3330 59.06 54.93 7.85
23335 28.3340 63.91 54.96 8.09
23336 28.3350 48.15 55.00 7.02
23337 28.3360 65.15 55.03 8.13
23338 28.3370 66.29 55.07 8.21
23339 28.3380 64.10 55.10 8.07
23340 28.3390 49.41 55.14 7.06
23341 28.3400 70.27 55.18 8.37
23342 28.3410 53.92 55.22 7.38
23343 28.3420 47.23 55.26 6.99
23344 28.3430 57.42 55.31 7.73
23345 28.3440 50.56 55.35 7.24
23346 28.3450 56.99 55.40 7.63
23347 28.3460 56.72 55.44 7.59
23348 28.3470 49.19 55.49 7.10
23349 28.3480 64.11 55.54 8.06
23350 28.3490 54.46 55.60 7.42
23351 28.3500 55.19 55.65 7.46
23352 28.3510 61.05 55.71 7.84
23353 28.3520 58.28 55.76 7.73
23354 28.3530 68.07 55.82 8.41
23355 28.3540 57.03 55.89 7.64
23356 28.3550 59.17 55.95 7.74
23357 28.3560 62.84 56.02 7.95
23358 28.3570 63.34 56.09 8.03
23359 28.3580 58.80 56.16 7.75
23360 28.3590 57.03 56.24 7.61
23361 28.3600 55.25 56.32 7.48
23362 28.3610 53.35 56.41 7.39
23363 28.3620 65.01 56.49 8.18
23364 28.3630 57.00 56.58 7.71
23365 28.3640 64.06 56.68 8.06
23366 28.3650 55.86 56.78 7.53
23367 28.3660 54.88 56.89 7.47
23368 28.3670 58.33 57.00 7.72
23369 28.3680 51.35 57.11 7.23
23370 28.3690 57.25 57.24 7.62
23371 28.3700 58.55 57.37 7.69
23372 28.3710 68.47 57.50 8.33
23373 28.3720 59.02 57.65 7.81
23374 28.3730 74.87 57.80 8.82
23375 28.3740 73.75 57.96 8.69
23376 28.3750 67.97 58.13 8.29
23377 28.3760 45.26 58.32 6.78
23378 28.3770 55.39 58.51 7.53
23379 28.3780 51.64 58.72 7.26
23380 28.3790 57.71 58.94 7.61
23381 28.3800 54.38 59.17 7.39
23382 28.3810 61.00 59.43 7.84
23383 28.3820 67.36 59.70 8.35
23384 28.3830 62.54 59.99 8.10
23385 28.3840 60.21 60.31 7.86
23386 28.3850 62.09 60.65 7.96
23387 28.3860 59.73 61.01 7.80
23388 28.3870 53.60 61.41 7.40
23389 28.3880 80.32 61.85 9.03
23390 28.3890 64.93 62.32 8.07
23391 28.3900 66.23 62.83 8.17
23392 28.3910 63.94 63.40 8.06
23393 28.3920 74.31 64.02 8.74
23394 28.3930 65.02 64.70 8.25
23395 28.3940 58.29 65.46 7.75
23396 28.3950 60.91 66.30 7.87
23397 28.3960 70.40 67.24 8.44
23398 28.3970 74.25 68.29 8.69
23399 28.3980 66.11 69.47 8.19
23400 28.3990 79.98 70.80 8.97
23401 28.4000 91.56 72.32 9.57
23402 28.4010 90.50 74.06 9.52
23403 28.4020 75.02 76.07 8.79
23404 28.4030 81.13 78.41 9.16
23405 28.4040 83.45 81.15 9.25
23406 28.4050 91.81 84.40 9.64
23407 28.4060 91.08 88.26 9.58
23408 28.4070 101.59 92.89 10.15
23409 28.4080 109.68 98.48 10.55
23410 28.4090 128.45 105.20 11.39
23411 28.4100 104.92 113.30 10.25
23412 28.4110 125.31 123.01 11.25
23413 28.4120 123.90 134.60 11.33
23414 28.4130 137.60 148.14 11.92
23415 28.4140 143.30 163.63 12.10
23416 28.4150 184.38 180.72 13.64
23417 28.4160 188.20 198.57 13.75
23418 28.4170 174.48 216.08 13.30
23419 28.4180 236.27 231.88 15.48
23420 28.4190 247.77 244.87 15.82
23421 28.4200 285.80 254.05 16.88
23422 28.4210 278.32 258.35 16.82
23423 28.4220 240.83 256.68 15.71
23424 28.4230 247.79 248.49 15.97
23425 28.4240 234.48 234.52 15.54
23426 28.4250 209.69 216.68 14.56
23427 28.4260 183.33 197.19 13.59
23428 28.4270 180.61 178.14 13.52
23429 28.4280 161.86 160.65 12.84
23430 28.4290 144.21 145.24 12.03
23431 28.4300 135.05 132.12 11.63
23432 28.4310 120.43 121.09 11.03
23433 28.4320 106.16 111.92 10.46
23434 28.4330 84.61 104.36 9.42
23435 28.4340 96.58 98.16 9.98
23436 28.4350 86.09 93.07 9.36
23437 28.4360 108.91 88.88 10.49
23438 28.4370 96.05 85.45 9.89
23439 28.4380 67.21 82.61 8.27
23440 28.4390 78.97 80.28 8.93
23441 28.4400 70.93 78.35 8.44
23442 28.4410 70.69 76.77 8.44
23443 28.4420 79.53 75.50 9.06
23444 28.4430 78.19 74.50 9.03
23445 28.4440 76.08 73.75 8.86
23446 28.4450 70.74 73.25 8.49
23447 28.4460 80.39 72.99 9.04
23448 28.4470 73.53 72.99 8.63
23449 28.4480 72.79 73.26 8.60
23450 28.4490 77.06 73.81 8.85
23451 28.4500 71.03 74.67 8.47
23452 28.4510 70.77 75.83 8.46
23453 28.4520 66.71 77.29 8.29
23454 28.4530 90.96 78.99 9.73
23455 28.4540 81.69 80.86 9.15
23456 28.4550 82.63 82.79 9.16
23457 28.4560 90.80 84.66 9.60
23458 28.4570 93.04 86.32 9.76
23459 28.4580 80.65 87.58 9.07
23460 28.4590 75.62 88.24 8.75
23461 28.4600 83.95 88.13 9.20
23462 28.4610 84.71 87.11 9.24
23463 28.4620 81.24 85.26 9.17
23464 28.4630 78.94 82.77 9.04
23465 28.4640 80.42 79.95 9.12
23466 28.4650 70.44 77.09 8.44
23467 28.4660 77.18 74.40 8.85
23468 28.4670 66.88 71.99 8.25
23469 28.4680 65.27 69.89 8.13
23470 28.4690 70.07 68.10 8.46
23471 28.4700 77.78 66.59 8.85
23472 28.4710 61.64 65.33 7.92
23473 28.4720 67.47 64.26 8.36
23474 28.4730 58.82 63.38 7.85
23475 28.4740 50.06 62.63 7.18
23476 28.4750 76.66 61.99 8.83
23477 28.4760 65.52 61.45 8.16
23478 28.4770 47.39 60.99 6.94
23479 28.4780 54.09 60.59 7.44
23480 28.4790 61.43 60.24 7.89
23481 28.4800 53.39 59.93 7.32
23482 28.4810 56.85 59.65 7.61
23483 28.4820 62.02 59.41 8.04
23484 28.4830 58.24 59.18 7.80
23485 28.4840 63.59 58.99 8.12
23486 28.4850 61.76 58.81 7.94
23487 28.4860 65.59 58.64 8.17
23488 28.4870 61.59 58.49 7.92
23489 28.4880 58.75 58.35 7.72
23490 28.4890 62.70 58.23 7.96
23491 28.4900 61.13 58.11 7.85
23492 28.4910 62.36 58.01 7.96
23493 28.4920 52.86 57.91 7.43
23494 28.4930 59.97 57.82 7.91
23495 28.4940 69.30 57.73 8.48
23496 28.4950 65.36 57.66 8.19
23497 28.4960 53.00 57.58 7.36
23498 28.4970 81.89 57.52 9.13
23499 28.4980 46.77 57.45 6.95
23500 28.4990 66.69 57.40 8.23
23501 28.5000 44.44 57.34 6.71
23502 28.5010 62.47 57.29 7.96
23503 28.5020 56.68 57.24 7.67
23504 28.5030 59.05 57.20 7.84
23505 28.5040 67.05 57.16 8.33
23506 28.5050 62.12 57.12 7.97
23507 28.5060 53.44 57.08 7.42
23508 28.5070 55.96 57.05 7.56
23509 28.5080 67.34 57.02 8.34
23510 28.5090 66.56 56.99 8.21
23511 28.5100 68.76 56.96 8.31
23512 28.5110 48.56 56.93 7.02
23513 28.5120 58.77 56.91 7.77
23514 28.5130 63.53 56.89 8.12
23515 28.5140 63.47 56.87 8.08
23516 28.5150 51.84 56.85 7.28
23517 28.5160 59.49 56.83 7.79
23518 28.5170 62.01 56.81 7.97
23519 28.5180 50.90 56.80 7.25
23520 28.5190 53.45 56.78 7.37
23521 28.5200 56.80 56.77 7.59
23522 28.5210 59.96 56.76 7.79
23523 28.5220 57.67 56.75 7.73
23524 28.5230 53.64 56.74 7.50
23525 28.5240 62.18 56.73 8.00
23526 28.5250 53.49 56.72 7.42
23527 28.5260 63.46 56.71 8.04
23528 28.5270 50.86 56.71 7.20
23529 28.5280 61.71 56.70 7.95
23530 28.5290 56.16 56.70 7.55
23531 28.5300 55.07 56.70 7.46
23532 28.5310 56.52 56.69 7.58
23533 28.5320 47.77 56.69 7.05
23534 28.5330 62.87 56.69 8.12
23535 28.5340 54.78 56.69 7.53
23536 28.5350 61.62 56.69 7.93
23537 28.5360 63.94 56.69 8.06
23538 28.5370 65.21 56.69 8.15
23539 28.5380 49.33 56.69 7.10
23540 28.5390 52.40 56.70 7.29
23541 28.5400 67.04 56.70 8.24
23542 28.5410 66.46 56.70 8.22
23543 28.5420 55.44 56.71 7.59
23544 28.5430 56.70 56.71 7.70
23545 28.5440 51.13 56.72 7.28
23546 28.5450 58.51 56.72 7.76
23547 28.5460 45.01 56.73 6.80
23548 28.5470 70.63 56.74 8.47
23549 28.5480 60.30 56.75 7.85
23550 28.5490 70.52 56.76 8.46
23551 28.5500 56.91 56.76 7.56
23552 28.5510 46.47 56.77 6.86
23553 28.5520 58.15 56.78 7.76
23554 28.5530 65.36 56.79 8.22
23555 28.5540 57.82 56.81 7.72
23556 28.5550 59.82 56.82 7.81
23557 28.5560 65.06 56.83 8.13
23558 28.5570 54.73 56.84 7.50
23559 28.5580 59.33 56.86 7.82
23560 28.5590 69.64 56.87 8.44
23561 28.5600 55.65 56.89 7.50
23562 28.5610 55.64 56.90 7.53
23563 28.5620 40.45 56.92 6.50
23564 28.5630 53.41 56.93 7.45
23565 28.5640 52.44 56.95 7.33
23566 28.5650 66.01 56.97 8.23
23567 28.5660 47.80 56.99 7.00
23568 28.5670 48.59 57.01 7.05
23569 28.5680 51.02 57.03 7.24
23570 28.5690 57.32 57.05 7.65
23571 28.5700 65.83 57.07 8.18
23572 28.5710 66.70 57.09 8.25
23573 28.5720 60.72 57.12 7.96
23574 28.5730 64.64 57.14 8.22
23575 28.5740 61.01 57.16 7.94
23576 28.5750 61.95 57.19 7.93
23577 28.5760 75.80 57.22 8.71
23578 28.5770 60.31 57.24 7.85
23579 28.5780 49.64 57.27 7.13
23580 28.5790 52.81 57.30 7.33
23581 28.5800 63.91 57.33 8.03
23582 28.5810 66.64 57.36 8.24
23583 28.5820 56.90 57.39 7.71
23584 28.5830 63.45 57.42 8.17
23585 28.5840 64.15 57.46 8.17
23586 28.5850 57.08 57.49 7.67
23587 28.5860 51.57 57.53 7.26
23588 28.5870 56.60 57.57 7.63
23589 28.5880 57.27 57.61 7.66
23590 28.5890 62.23 57.65 7.97
23591 28.5900 58.02 57.69 7.65
23592 28.5910 75.23 57.74 8.74
23593 28.5920 59.51 57.78 7.87
23594 28.5930 53.57 57.83 7.50
23595 28.5940 68.72 57.88 8.48
23596 28.5950 71.96 57.93 8.59
23597 28.5960 66.74 57.98 8.26
23598 28.5970 56.06 58.04 7.57
23599 28.5980 52.47 58.09 7.34
23600 28.5990 56.57 58.15 7.58
23601 28.6000 70.29 58.21 8.40
23602 28.6010 72.32 58.28 8.55
23603 28.6020 63.21 58.35 8.10
23604 28.6030 55.40 58.42 7.63
23605 28.6040 60.89 58.49 7.94
23606 28.6050 65.10 58.57 8.21
23607 28.6060 61.82 58.65 7.95
23608 28.6070 55.17 58.73 7.54
23609 28.6080 56.09 58.82 7.59
23610 28.6090 42.88 58.91 6.62
23611 28.6100 58.72 59.01 7.71
23612 28.6110 71.46 59.11 8.50
23613 28.6120 58.03 59.22 7.75
23614 28.6130 52.27 59.33 7.41
23615 28.6140 47.66 59.45 7.02
23616 28.6150 72.99 59.57 8.64
23617 28.6160 53.39 59.70 7.38
23618 28.6170 60.33 59.84 7.87
23619 28.6180 73.53 59.99 8.68
23620 28.6190 62.81 60.15 8.00
23621 28.6200 56.35 60.31 7.58
23622 28.6210 60.92 60.49 7.87
23623 28.6220 60.94 60.67 7.96
23624 28.6230 59.81 60.87 7.89
23625 28.6240 53.94 61.08 7.48
23626 28.6250 61.80 61.31 7.96
23627 28.6260 64.98 61.55 8.12
23628 28.6270 67.94 61.81 8.34
23629 28.6280 71.76 62.09 8.57
23630 28.6290 61.08 62.39 7.88
23631 28.6300 57.59 62.71 7.64
23632 28.6310 74.49 63.06 8.73
23633 28.6320 64.93 63.43 8.22
23634 28.6330 67.34 63.84 8.40
23635 28.6340 58.83 64.28 7.80
23636 28.6350 72.80 64.77 8.62
23637 28.6360 66.29 65.29 8.23
23638 28.6370 73.44 65.87 8.64
23639 28.6380 72.72 66.51 8.62
23640 28.6390 62.41 67.20 7.97
23641 28.6400 64.06 67.97 8.05
23642 28.6410 69.58 68.83 8.40
23643 28.6420 77.55 69.78 8.95
23644 28.6430 73.11 70.85 8.75
23645 28.6440 73.11 72.04 8.70
23646 28.6450 74.71 73.39 8.78
23647 28.6460 86.66 74.92 9.42
23648 28.6470 76.35 76.67 8.83
23649 28.6480 76.52 78.68 8.86
23650 28.6490 77.18 81.02 8.86
23651 28.6500 97.61 83.75 9.90
23652 28.6510 87.76 86.96 9.42
23653 28.6520 94.68 90.79 9.87
23654 28.6530 103.07 95.34 10.33
23655 28.6540 99.60 100.82 10.15
23656 28.6550 122.02 107.41 11.19
23657 28.6560 122.68 115.35 11.18
23658 28.6570 144.43 124.85 12.20
23659 28.6580 134.08 136.24 11.74
23660 28.6590 146.74 149.57 12.19
23661 28.6600 159.16 165.00 12.65
23662 28.6610 197.25 182.28 14.11
23663 28.6620 180.20 200.77 13.63
23664 28.6630 189.06 219.43 14.06
23665 28.6640 235.72 236.88 15.53
23666 28.6650 251.88 251.97 16.03
23667 28.6660 285.46 263.62 17.05
23668 28.6670 288.49 270.87 17.19
23669 28.6680 279.67 272.67 16.87
23670 28.6690 271.67 268.07 16.56
23671 28.6700 243.36 257.07 15.70
23672 28.6710 237.23 240.78 15.47
23673 28.6720 217.57 221.31 14.94
23674 28.6730 187.07 200.90 13.94
23675 28.6740 155.63 181.34 12.67
23676 28.6750 147.25 163.52 12.24
23677 28.6760 130.88 147.95 11.52
23678 28.6770 141.67 134.65 12.00
23679 28.6780 125.25 123.47 11.26
23680 28.6790 101.99 114.16 10.20
23681 28.6800 102.23 106.47 10.17
23682 28.6810 103.75 100.08 10.27
23683 28.6820 99.88 94.79 10.20
23684 28.6830 95.04 90.38 9.95
23685 28.6840 80.32 86.70 9.11
23686 28.6850 81.07 83.61 9.10
23687 28.6860 78.56 80.97 8.93
23688 28.6870 76.80 78.73 8.85
23689 28.6880 74.89 76.78 8.74
23690 28.6890 67.79 75.09 8.27
23691 28.6900 91.42 73.61 9.61
23692 28.6910 78.26 72.31 8.93
23693 28.6920 71.25 71.15 8.59
23694 28.6930 57.13 70.12 7.73
23695 28.6940 64.96 69.20 8.19
23696 28.6950 61.50 68.38 7.93
23697 28.6960 54.85 67.64 7.45
23698 28.6970 71.45 66.96 8.55
23699 28.6980 73.03 66.36 8.63
23700 28.6990 83.11 65.80 9.17
23701 28.7000 59.29 65.30 7.72
23702 28.7010 83.38 64.84 9.18
23703 28.7020 75.08 64.42 8.79
23704 28.7030 78.01 64.03 9.03
23705 28.7040 60.70 63.68 7.89
23706 28.7050 68.26 63.35 8.36
23707 28.7060 56.59 63.05 7.60
23708 28.7070 48.76 62.77 7.07
23709 28.7080 61.45 62.52 7.94
23710 28.7090 53.12 62.28 7.35
23711 28.7100 52.32 62.06 7.26
23712 28.7110 61.11 61.85 7.87
23713 28.7120 66.06 61.66 8.24
23714 28.7130 44.75 61.48 6.85
23715 28.7140 61.31 61.31 7.96
23716 28.7150 70.08 61.16 8.48
23717 28.7160 65.88 61.01 8.20
23718 28.7170 69.28 60.88 8.43
23719 28.7180 66.71 60.75 8.28
23720 28.7190 77.77 60.63 8.89
23721 28.7200 58.02 60.52 7.65
23722 28.7210 63.20 60.41 8.04
23723 28.7220 44.19 60.31 6.78
23724 28.7230 51.24 60.22 7.32
23725 28.7240 59.10 60.13 7.82
23726 28.7250 60.46 60.05 7.85
23727 28.7260 57.83 59.97 7.69
23728 28.7270 55.04 59.90 7.47
23729 28.7280 57.44 59.83 7.64
23730 28.7290 51.95 59.77 7.29
23731 28.7300 63.40 59.70 8.04
23732 28.7310 52.68 59.65 7.31
23733 28.7320 59.71 59.59 7.87
23734 28.7330 68.00 59.54 8.43
23735 28.7340 66.70 59.49 8.30
23736 28.7350 54.08 59.45 7.40
23737 28.7360 54.01 59.41 7.38
23738 28.7370 62.22 59.37 7.97
23739 28.7380 50.17 59.33 7.19
23740 28.7390 63.22 59.30 8.00
23741 28.7400 68.96 59.26 8.35
23742 28.7410 63.37 59.23 8.03
23743 28.7420 55.41 59.20 7.61
23744 28.7430 60.57 59.18 7.96
23745 28.7440 53.47 59.15 7.44
23746 28.7450 51.31 59.13 7.26
23747 28.7460 54.31 59.11 7.45
23748 28.7470 58.98 59.09 7.76
23749 28.7480 62.40 59.07 7.99
23750 28.7490 74.74 59.05 8.70
23751 28.7500 62.36 59.04 7.95
23752 28.7510 64.35 59.03 8.04
23753 28.7520 59.76 59.01 7.85
23754 28.7530 53.14 59.00 7.46
23755 28.7540 57.30 58.99 7.68
23756 28.7550 53.82 58.99 7.46
23757 28.7560 46.96 58.98 6.92
23758 28.7570 53.38 58.98 7.39
23759 28.7580 67.00 58.97 8.30
23760 28.7590 54.51 58.97 7.47
23761 28.7600 54.38 58.97 7.36
23762 28.7610 57.40 58.97 7.63
23763 28.7620 71.55 58.97 8.61
23764 28.7630 62.33 58.98 8.06
23765 28.7640 69.17 58.98 8.45
23766 28.7650 55.78 58.99 7.56
23767 28.7660 60.36 59.00 7.86
23768 28.7670 58.15 59.01 7.71
23769 28.7680 47.81 59.02 7.02
23770 28.7690 55.18 59.03 7.49
23771 28.7700 54.41 59.05 7.42
23772 28.7710 56.83 59.07 7.61
23773 28.7720 70.39 59.09 8.50
23774 28.7730 71.59 59.11 8.62
23775 28.7740 65.85 59.14 8.24
23776 28.7750 45.64 59.17 6.82
23777 28.7760 87.28 59.20 9.43
23778 28.7770 69.05 59.24 8.37
23779 28.7780 54.41 59.28 7.46
23780 28.7790 57.24 59.32 7.65
23781 28.7800 77.03 59.37 8.79
23782 28.7810 74.09 59.42 8.70
23783 28.7820 66.75 59.47 8.35
23784 28.7830 60.88 59.53 7.96
23785 28.7840 62.68 59.60 8.03
23786 28.7850 65.77 59.68 8.20
23787 28.7860 61.18 59.77 7.89
23788 28.7870 56.77 59.86 7.60
23789 28.7880 63.85 59.97 8.08
23790 28.7890 53.05 60.09 7.34
23791 28.7900 61.40 60.22 7.90
23792 28.7910 62.80 60.37 7.99
23793 28.7920 64.41 60.55 8.18
23794 28.7930 66.35 60.75 8.33
23795 28.7940 77.95 60.98 8.95
23796 28.7950 48.23 61.25 7.02
23797 28.7960 69.80 61.57 8.41
23798 28.7970 60.71 61.94 7.86
23799 28.7980 60.37 62.39 7.86
23800 28.7990 50.41 62.93 7.16
23801 28.8000 66.24 63.57 8.16
23802 28.8010 69.72 64.33 8.42
23803 28.8020 62.66 65.27 8.06
23804 28.8030 62.77 66.39 8.12
23805 28.8040 78.82 67.72 9.02
23806 28.8050 74.55 69.28 8.74
23807 28.8060 70.61 71.02 8.48
23808 28.8070 72.65 72.98 8.60
23809 28.8080 77.26 75.03 8.87
23810 28.8090 85.53 77.04 9.29
23811 28.8100 86.07 78.84 9.29
23812 28.8110 90.24 80.25 9.55
23813 28.8120 79.97 81.13 9.09
23814 28.8130 104.20 81.38 10.42
23815 28.8140 81.41 80.90 9.15
23816 28.8150 80.24 79.69 9.06
23817 28.8160 77.23 77.93 8.87
23818 28.8170 87.48 75.84 9.43
23819 28.8180 84.34 73.67 9.26
23820 28.8190 60.52 71.60 7.83
23821 28.8200 57.95 69.73 7.62
23822 28.8210 76.32 68.11 8.78
23823 28.8220 67.82 66.73 8.38
23824 28.8230 61.90 65.57 8.02
23825 28.8240 60.00 64.61 7.87
23826 28.8250 62.76 63.81 8.02
23827 28.8260 58.66 63.16 7.74
23828 28.8270 51.82 62.62 7.27
23829 28.8280 67.51 62.18 8.32
23830 28.8290 63.09 61.81 8.02
23831 28.8300 79.19 61.50 8.92
23832 28.8310 58.52 61.25 7.69
23833 28.8320 75.27 61.04 8.81
23834 28.8330 62.59 60.86 8.05
23835 28.8340 66.51 60.71 8.26
23836 28.8350 56.21 60.58 7.56
23837 28.8360 60.68 60.46 7.86
23838 28.8370 61.43 60.36 7.91
23839 28.8380 67.72 60.26 8.33
23840 28.8390 55.27 60.16 7.50
23841 28.8400 57.32 60.06 7.58
23842 28.8410 52.50 59.97 7.29
23843 28.8420 68.41 59.89 8.43
23844 28.8430 69.36 59.82 8.48
23845 28.8440 73.95 59.75 8.72
23846 28.8450 57.75 59.68 7.69
23847 28.8460 57.02 59.63 7.62
23848 28.8470 59.17 59.58 7.74
23849 28.8480 50.25 59.54 7.17
23850 28.8490 62.01 59.51 7.90
23851 28.8500 59.89 59.47 7.78
23852 28.8510 67.59 59.45 8.24
23853 28.8520 53.77 59.42 7.44
23854 28.8530 72.12 59.40 8.68
23855 28.8540 59.49 59.38 7.85
23856 28.8550 59.44 59.36 7.78
23857 28.8560 57.38 59.34 7.63
23858 28.8570 69.96 59.33 8.46
23859 28.8580 63.20 59.32 8.01
23860 28.8590 58.57 59.31 7.67
23861 28.8600 59.04 59.30 7.68
23862 28.8610 56.06 59.29 7.53
23863 28.8620 67.91 59.28 8.36
23864 28.8630 59.54 59.28 7.89
23865 28.8640 58.30 59.27 7.72
23866 28.8650 51.41 59.27 7.26
23867 28.8660 51.50 59.27 7.26
23868 28.8670 66.30 59.27 8.22
23869 28.8680 56.92 59.27 7.61
23870 28.8690 62.98 59.27 7.98
23871 28.8700 62.37 59.27 7.93
23872 28.8710 61.82 59.27 7.91
23873 28.8720 59.60 59.27 7.81
23874 28.8730 54.35 59.27 7.50
23875 28.8740 61.93 59.27 7.98
23876 28.8750 60.26 59.28 7.81
23877 28.8760 54.95 59.28 7.47
23878 28.8770 74.44 59.29 8.71
23879 28.8780 61.20 59.29 7.91
23880 28.8790 53.26 59.30 7.37
23881 28.8800 56.96 59.31 7.59
23882 28.8810 62.63 59.31 7.98
23883 28.8820 54.67 59.32 7.51
23884 28.8830 53.90 59.33 7.49
23885 28.8840 66.78 59.34 8.25
23886 28.8850 49.41 59.35 7.08
23887 28.8860 54.90 59.37 7.47
23888 28.8870 55.10 59.38 7.51
23889 28.8880 60.08 59.40 7.82
23890 28.8890 63.18 59.41 7.99
23891 28.8900 60.65 59.43 7.82
23892 28.8910 60.89 59.46 7.85
23893 28.8920 65.86 59.48 8.24
23894 28.8930 61.00 59.51 7.98
23895 28.8940 58.55 59.55 7.76
23896 28.8950 64.07 59.59 8.07
23897 28.8960 62.87 59.63 7.97
23898 28.8970 71.55 59.69 8.51
23899 28.8980 49.92 59.75 7.12
23900 28.8990 55.27 59.82 7.48
23901 28.9000 63.06 59.90 7.96
23902 28.9010 45.76 59.98 6.81
23903 28.9020 58.54 60.05 7.82
23904 28.9030 67.92 60.12 8.43
23905 28.9040 71.02 60.17 8.52
23906 28.9050 65.82 60.20 8.20
23907 28.9060 43.23 60.22 6.61
23908 28.9070 63.89 60.23 8.07
23909 28.9080 51.57 60.23 7.25
23910 28.9090 59.76 60.22 7.74
23911 28.9100 64.57 60.19 8.05
23912 28.9110 68.77 60.14 8.34
23913 28.9120 58.15 60.08 7.73
23914 28.9130 57.76 60.02 7.75
23915 28.9140 62.57 59.96 8.02
23916 28.9150 54.46 59.90 7.45
23917 28.9160 61.67 59.85 7.94
23918 28.9170 58.51 59.81 7.74
23919 28.9180 47.31 59.78 6.94
23920 28.9190 54.08 59.76 7.41
23921 28.9200 51.88 59.74 7.21
23922 28.9210 64.53 59.72 8.06
23923 28.9220 55.85 59.71 7.59
23924 28.9230 67.96 59.70 8.38
23925 28.9240 71.96 59.70 8.58
23926 28.9250 53.14 59.70 7.37
23927 28.9260 63.51 59.70 8.02
23928 28.9270 56.78 59.70 7.62
23929 28.9280 54.30 59.70 7.46
23930 28.9290 62.60 59.70 7.96
23931 28.9300 60.42 59.71 7.79
23932 28.9310 63.11 59.71 7.99
23933 28.9320 58.01 59.72 7.75
23934 28.9330 49.98 59.72 7.22
23935 28.9340 65.12 59.73 8.16
23936 28.9350 59.07 59.74 7.72
23937 28.9360 55.86 59.74 7.53
23938 28.9370 54.08 59.75 7.42
23939 28.9380 62.48 59.76 7.98
23940 28.9390 61.02 59.77 7.87
23941 28.9400 53.89 59.78 7.36
23942 28.9410 61.89 59.79 7.95
23943 28.9420 55.54 59.79 7.58
23944 28.9430 61.01 59.80 7.98
23945 28.9440 62.19 59.81 7.99
23946 28.9450 63.03 59.82 8.03
23947 28.9460 50.07 59.83 7.14
23948 28.9470 53.96 59.84 7.42
23949 28.9480 57.08 59.85 7.61
23950 28.9490 72.00 59.86 8.55
23951 28.9500 42.91 59.87 6.59
23952 28.9510 55.02 59.88 7.48
23953 28.9520 70.31 59.89 8.50
23954 28.9530 71.27 59.90 8.64
23955 28.9540 60.23 59.91 7.88
23956 28.9550 53.92 59.92 7.40
23957 28.9560 46.93 59.93 6.91
23958 28.9570 63.66 59.94 8.07
23959 28.9580 55.36 59.95 7.52
23960 28.9590 56.49 59.96 7.53
23961 28.9600 47.06 59.98 6.89
23962 28.9610 59.48 59.99 7.76
23963 28.9620 38.06 60.00 6.30
23964 28.9630 63.54 60.01 8.16
23965 28.9640 63.14 60.02 8.09
23966 28.9650 49.37 60.03 7.12
23967 28.9660 64.19 60.04 8.09
23968 28.9670 61.23 60.05 7.89
23969 28.9680 68.17 60.06 8.31
23970 28.9690 61.74 60.07 7.92
23971 28.9700 69.91 60.09 8.40
23972 28.9710 73.08 60.10 8.59
23973 28.9720 57.46 60.11 7.69
23974 28.9730 56.01 60.12 7.64
23975 28.9740 48.59 60.13 7.08
23976 28.9750 53.35 60.14 7.39
23977 28.9760 64.12 60.16 8.06
23978 28.9770 60.78 60.17 7.88
23979 28.9780 62.04 60.18 7.98
23980 28.9790 41.04 60.19 6.47
23981 28.9800 51.19 60.20 7.19
23982 28.9810 56.71 60.21 7.58
23983 28.9820 42.61 60.23 6.65
23984 28.9830 53.04 60.24 7.43
23985 28.9840 53.71 60.25 7.42
23986 28.9850 50.59 60.26 7.20
23987 28.9860 54.29 60.27 7.43
23988 28.9870 55.67 60.29 7.56
23989 28.9880 59.82 60.30 7.83
23990 28.9890 53.12 60.31 7.37
23991 28.9900 50.13 60.32 7.14
23992 28.9910 57.28 60.33 7.62
23993 28.9920 53.89 60.35 7.48
23994 28.9930 51.65 60.36 7.34
23995 28.9940 65.70 60.37 8.22
23996 28.9950 65.01 60.38 8.14
23997 28.9960 51.44 60.40 7.22
23998 28.9970 55.35 60.41 7.52
23999 28.9980 63.41 60.42 8.06
24000 28.9990 61.48 60.43 7.89
24001 29.0000 65.68 60.45 8.12
24002 29.0010 58.77 60.46 7.76
24003 29.0020 58.48 60.47 7.80
24004 29.0030 67.32 60.48 8.40
24005 29.0040 64.12 60.50 8.15
24006 29.0050 75.35 60.51 8.78
24007 29.0060 50.31 60.52 7.17
24008 29.0070 49.49 60.54 7.14
24009 29.0080 54.11 60.55 7.44
24010 29.0090 41.04 60.56 6.46
24011 29.0100 45.46 60.57 6.79
24012 29.0110 72.72 60.59 8.60
24013 29.0120 53.42 60.60 7.43
24014 29.0130 56.46 60.61 7.70
24015 29.0140 60.66 60.63 7.95
24016 29.0150 50.40 60.64 7.22
24017 29.0160 51.34 60.65 7.24
24018 29.0170 62.94 60.67 8.01
24019 29.0180 61.30 60.68 7.93
24020 29.0190 60.08 60.69 7.79
24021 29.0200 56.28 60.71 7.52
24022 29.0210 56.19 60.72 7.56
24023 29.0220 67.51 60.73 8.36
24024 29.0230 56.09 60.75 7.65
24025 29.0240 59.84 60.76 7.87
24026 29.0250 62.32 60.77 7.98
24027 29.0260 63.89 60.79 8.08
24028 29.0270 74.00 60.80 8.70
24029 29.0280 75.57 60.81 8.74
24030 29.0290 56.46 60.83 7.57
24031 29.0300 54.53 60.84 7.42
24032 29.0310 64.97 60.86 8.11
24033 29.0320 59.15 60.87 7.79
24034 29.0330 50.89 60.89 7.29
24035 29.0340 66.86 60.90 8.30
24036 29.0350 66.56 60.91 8.22
24037 29.0360 59.37 60.93 7.75
24038 29.0370 59.11 60.94 7.78
24039 29.0380 61.88 60.96 7.97
24040 29.0390 67.17 60.97 8.25
24041 29.0400 59.82 60.99 7.74
24042 29.0410 58.40 61.00 7.70
24043 29.0420 67.98 61.02 8.39
24044 29.0430 68.28 61.03 8.45
24045 29.0440 62.08 61.05 8.02
24046 29.0450 61.26 61.06 7.89
24047 29.0460 55.47 61.08 7.52
24048 29.0470 58.40 61.09 7.73
24049 29.0480 57.32 61.11 7.64
24050 29.0490 71.46 61.12 8.51
24051 29.0500 66.43 61.14 8.19
24052 29.0510 61.74 61.16 7.92
24053 29.0520 64.82 61.15 8.17
24054 29.0530 68.90 61.17 8.48
24055 29.0540 63.25 61.18 8.06
24056 29.0550 56.98 61.20 7.61
24057 29.0560 63.80 61.20 8.01
24058 29.0570 57.94 61.19 7.67
24059 29.0580 61.14 61.21 7.89
24060 29.0590 63.98 61.23 8.05
24061 29.0600 57.26 61.25 7.62
24062 29.0610 70.00 61.27 8.44
24063 29.0620 70.19 61.28 8.51
24064 29.0630 57.91 61.30 7.76
24065 29.0640 59.05 61.32 7.79
24066 29.0650 69.68 61.34 8.44
24067 29.0660 64.52 61.36 8.10
24068 29.0670 58.32 61.38 7.74
24069 29.0680 66.43 61.40 8.23
24070 29.0690 64.70 61.42 8.08
24071 29.0700 65.54 61.44 8.11
24072 29.0710 57.80 61.46 7.65
24073 29.0720 62.65 61.48 8.02
24074 29.0730 66.18 61.50 8.29
24075 29.0740 57.07 61.52 7.67
24076 29.0750 55.61 61.55 7.55
24077 29.0760 40.09 61.57 6.40
24078 29.0770 54.23 61.59 7.42
24079 29.0780 54.24 61.62 7.45
24080 29.0790 51.51 61.64 7.21
24081 29.0800 46.11 61.67 6.80
24082 29.0810 54.16 61.70 7.41
24083 29.0820 68.79 61.72 8.40
24084 29.0830 59.85 61.75 7.88
24085 29.0840 70.50 61.78 8.50
24086 29.0850 54.84 61.81 7.48
24087 29.0860 57.45 61.85 7.63
24088 29.0870 54.99 61.88 7.47
24089 29.0880 69.76 61.92 8.46
24090 29.0890 66.15 61.96 8.19
24091 29.0900 53.92 62.00 7.37
24092 29.0910 71.41 62.04 8.49
24093 29.0920 63.79 62.09 8.14
24094 29.0930 58.24 62.14 7.76
24095 29.0940 55.85 62.19 7.56
24096 29.0950 64.71 62.25 8.10
24097 29.0960 72.77 62.32 8.56
24098 29.0970 71.00 62.40 8.46
24099 29.0980 63.53 62.48 8.04
24100 29.0990 50.66 62.58 7.15
24101 29.1000 72.43 62.69 8.54
24102 29.1010 71.84 62.82 8.52
24103 29.1020 54.99 62.97 7.54
24104 29.1030 50.80 63.14 7.25
24105 29.1040 54.44 63.35 7.47
24106 29.1050 63.41 63.60 8.04
24107 29.1060 65.66 63.89 8.12
24108 29.1070 52.78 64.22 7.32
24109 29.1080 51.27 64.60 7.21
24110 29.1090 63.51 65.02 8.01
24111 29.1100 60.19 65.46 7.79
24112 29.1110 62.91 65.89 7.97
24113 29.1120 58.89 66.26 7.81
24114 29.1130 59.25 66.53 7.86
24115 29.1140 59.22 66.65 7.83
24116 29.1150 72.79 66.62 8.59
24117 29.1160 61.34 66.44 7.89
24118 29.1170 46.65 66.15 6.90
24119 29.1180 72.97 65.81 8.58
24120 29.1190 61.26 65.44 7.84
24121 29.1200 59.49 65.09 7.72
24122 29.1210 55.81 64.78 7.51
24123 29.1220 51.08 64.52 7.26
24124 29.1230 66.41 64.30 8.29
24125 29.1240 50.31 64.12 7.20
24126 29.1250 63.60 63.98 8.07
24127 29.1260 73.46 63.88 8.62
24128 29.1270 54.14 63.81 7.42
24129 29.1280 48.90 63.76 7.07
24130 29.1290 67.14 63.74 8.22
24131 29.1300 52.74 63.74 7.29
24132 29.1310 69.23 63.75 8.35
24133 29.1320 61.78 63.77 7.98
24134 29.1330 50.24 63.81 7.23
24135 29.1340 52.85 63.86 7.38
24136 29.1350 56.57 63.92 7.59
24137 29.1360 66.44 64.00 8.21
24138 29.1370 75.32 64.08 8.77
24139 29.1380 68.77 64.18 8.38
24140 29.1390 54.45 64.29 7.40
24141 29.1400 55.83 64.42 7.51
24142 29.1410 60.71 64.56 7.85
24143 29.1420 48.76 64.71 7.11
24144 29.1430 54.52 64.89 7.51
24145 29.1440 58.02 65.08 7.70
24146 29.1450 63.42 65.30 8.04
24147 29.1460 50.88 65.55 7.21
24148 29.1470 61.94 65.83 7.92
24149 29.1480 64.59 66.14 8.09
24150 29.1490 63.25 66.51 8.02
24151 29.1500 63.07 66.92 7.97
24152 29.1510 62.56 67.40 7.97
24153 29.1520 76.17 67.96 8.85
24154 29.1530 69.69 68.61 8.52
24155 29.1540 65.02 69.39 8.17
24156 29.1550 70.42 70.31 8.45
24157 29.1560 62.04 71.42 7.90
24158 29.1570 61.45 72.74 7.87
24159 29.1580 59.01 74.33 7.77
24160 29.1590 77.03 76.24 8.80
24161 29.1600 76.60 78.50 8.77
24162 29.1610 66.81 81.17 8.24
24163 29.1620 101.61 84.28 10.25
24164 29.1630 90.22 87.77 9.68
24165 29.1640 88.40 91.58 9.52
24166 29.1650 91.26 95.50 9.64
24167 29.1660 103.47 99.26 10.25
24168 29.1670 100.05 102.55 10.05
24169 29.1680 88.55 105.10 9.46
24170 29.1690 88.89 106.72 9.47
24171 29.1700 113.86 107.23 10.70
24172 29.1710 102.96 106.47 10.19
24173 29.1720 92.71 104.42 9.74
24174 29.1730 90.43 101.27 9.69
24175 29.1740 88.13 97.43 9.51
24176 29.1750 82.62 93.30 9.17
24177 29.1760 72.39 89.27 8.56
24178 29.1770 79.10 85.56 8.96
24179 29.1780 77.47 82.30 8.89
24180 29.1790 76.61 79.47 8.80
24181 29.1800 65.72 77.10 8.10
24182 29.1810 87.00 75.11 9.37
24183 29.1820 66.72 73.45 8.30
24184 29.1830 66.55 72.08 8.31
24185 29.1840 71.05 70.94 8.56
24186 29.1850 71.18 69.99 8.52
24187 29.1860 63.42 69.20 8.05
24188 29.1870 61.21 68.54 7.89
24189 29.1880 58.00 67.98 7.70
24190 29.1890 75.11 67.50 8.73
24191 29.1900 57.29 67.09 7.61
24192 29.1910 63.69 66.73 8.03
24193 29.1920 50.11 66.42 7.20
24194 29.1930 61.16 66.15 7.97
24195 29.1940 57.22 65.91 7.66
24196 29.1950 63.92 65.70 8.05
24197 29.1960 60.53 65.51 7.83
24198 29.1970 55.91 65.35 7.53
24199 29.1980 60.47 65.20 7.85
24200 29.1990 62.81 65.06 7.97
24201 29.2000 68.86 64.94 8.33
24202 29.2010 50.10 64.83 7.13
24203 29.2020 54.37 64.74 7.52
24204 29.2030 57.99 64.65 7.77
24205 29.2040 51.75 64.57 7.29
24206 29.2050 73.65 64.49 8.66
24207 29.2060 58.92 64.43 7.69
24208 29.2070 66.97 64.37 8.27
24209 29.2080 69.59 64.32 8.42
24210 29.2090 66.02 64.27 8.20
24211 29.2100 60.20 64.22 7.79
24212 29.2110 60.97 64.18 7.89
24213 29.2120 58.20 64.15 7.76
24214 29.2130 61.30 64.12 8.01
24215 29.2140 61.07 64.09 7.94
24216 29.2150 53.52 64.06 7.39
24217 29.2160 59.01 64.04 7.74
24218 29.2170 49.06 64.01 7.09
24219 29.2180 47.14 63.99 6.95
24220 29.2190 56.44 63.98 7.57
24221 29.2200 48.97 63.96 7.03
24222 29.2210 61.62 63.95 7.89
24223 29.2220 61.83 63.93 8.01
24224 29.2230 67.32 63.92 8.36
24225 29.2240 39.77 63.91 6.42
24226 29.2250 62.69 63.90 8.00
24227 29.2260 68.00 63.90 8.35
24228 29.2270 67.02 63.89 8.27
24229 29.2280 61.29 63.89 7.93
24230 29.2290 58.50 63.88 7.69
24231 29.2300 57.46 63.88 7.60
24232 29.2310 51.91 63.88 7.26
24233 29.2320 55.50 63.88 7.59
24234 29.2330 57.67 63.88 7.79
24235 29.2340 55.84 63.88 7.58
24236 29.2350 43.43 63.88 6.70
24237 29.2360 49.86 63.88 7.13
24238 29.2370 60.83 63.88 7.91
24239 29.2380 59.80 63.88 7.83
24240 29.2390 55.08 63.88 7.48
24241 29.2400 69.06 63.89 8.33
24242 29.2410 62.24 63.89 7.95
24243 29.2420 66.47 63.90 8.31
24244 29.2430 60.38 63.90 7.92
24245 29.2440 64.28 63.91 8.13
24246 29.2450 57.60 63.91 7.66
24247 29.2460 62.35 63.92 7.96
24248 29.2470 75.82 63.92 8.78
24249 29.2480 57.63 63.93 7.67
24250 29.2490 62.23 63.94 7.97
24251 29.2500 58.87 63.95 7.72
24252 29.2510 73.21 63.95 8.64
24253 29.2520 64.96 63.96 8.17
24254 29.2530 65.87 63.97 8.27
24255 29.2540 64.38 63.98 8.11
24256 29.2550 58.98 63.99 7.75
24257 29.2560 61.59 63.99 7.90
24258 29.2570 62.28 64.00 7.96
24259 29.2580 59.35 64.01 7.80
24260 29.2590 59.12 64.02 7.74
24261 29.2600 56.45 64.03 7.56
24262 29.2610 62.96 64.04 8.00
24263 29.2620 58.55 64.05 7.76
24264 29.2630 47.97 64.06 7.07
24265 29.2640 60.20 64.07 7.88
24266 29.2650 59.15 64.08 7.79
24267 29.2660 55.62 64.09 7.51
24268 29.2670 50.30 64.10 7.15
24269 29.2680 52.60 64.12 7.33
24270 29.2690 61.64 64.13 7.89
24271 29.2700 57.05 64.14 7.59
24272 29.2710 58.69 64.15 7.71
24273 29.2720 57.55 64.16 7.72
24274 29.2730 67.31 64.17 8.38
24275 29.2740 57.59 64.18 7.71
24276 29.2750 58.72 64.20 7.75
24277 29.2760 66.15 64.21 8.19
24278 29.2770 75.43 64.22 8.79
24279 29.2780 56.01 64.23 7.56
24280 29.2790 56.44 64.24 7.56
24281 29.2800 70.73 64.26 8.41
24282 29.2810 64.29 64.27 8.10
24283 29.2820 56.04 64.28 7.63
24284 29.2830 61.10 64.29 7.98
24285 29.2840 66.51 64.31 8.27
24286 29.2850 53.96 64.32 7.41
24287 29.2860 56.28 64.33 7.58
24288 29.2870 68.02 64.35 8.33
24289 29.2880 60.80 64.36 7.87
24290 29.2890 51.66 64.37 7.27
24291 29.2900 65.47 64.39 8.12
24292 29.2910 59.20 64.40 7.75
24293 29.2920 48.99 64.41 7.12
24294 29.2930 56.54 64.43 7.68
24295 29.2940 80.02 64.44 9.07
24296 29.2950 56.37 64.45 7.58
24297 29.2960 61.09 64.47 7.88
24298 29.2970 56.35 64.48 7.60
24299 29.2980 57.37 64.50 7.67
24300 29.2990 63.54 64.51 8.02
24301 29.3000 46.81 64.52 6.87
24302 29.3010 63.15 64.54 8.03
24303 29.3020 68.68 64.55 8.42
24304 29.3030 58.67 64.57 7.80
24305 29.3040 73.41 64.58 8.67
24306 29.3050 74.35 64.60 8.68
24307 29.3060 52.28 64.61 7.29
24308 29.3070 65.33 64.62 8.17
24309 29.3080 52.76 64.64 7.35
24310 29.3090 52.97 64.65 7.35
24311 29.3100 57.24 64.67 7.62
24312 29.3110 67.70 64.68 8.29
24313 29.3120 66.66 64.70 8.30
24314 29.3130 64.99 64.71 8.26
24315 29.3140 60.55 64.73 7.89
24316 29.3150 61.20 64.75 7.92
24317 29.3160 61.33 64.76 7.89
24318 29.3170 69.06 64.78 8.38
24319 29.3180 57.63 64.79 7.66
24320 29.3190 51.58 64.81 7.21
24321 29.3200 57.52 64.82 7.61
24322 29.3210 53.97 64.84 7.40
24323 29.3220 58.08 64.86 7.78
24324 29.3230 65.72 64.87 8.27
24325 29.3240 59.42 64.89 7.82
24326 29.3250 62.38 64.90 7.98
24327 29.3260 56.57 64.92 7.57
24328 29.3270 64.89 64.94 8.14
24329 29.3280 54.29 64.95 7.44
24330 29.3290 73.43 64.97 8.64
24331 29.3300 72.76 64.99 8.54
24332 29.3310 54.96 65.01 7.49
24333 29.3320 56.40 65.02 7.63
24334 29.3330 53.22 65.04 7.47
24335 29.3340 71.02 65.06 8.55
24336 29.3350 66.56 65.08 8.29
24337 29.3360 69.87 65.09 8.44
24338 29.3370 55.61 65.11 7.55
24339 29.3380 48.18 65.13 7.03
24340 29.3390 68.56 65.15 8.32
24341 29.3400 60.05 65.17 7.78
24342 29.3410 73.89 65.19 8.62
24343 29.3420 64.07 65.21 8.12
24344 29.3430 42.36 65.23 6.65
24345 29.3440 51.34 65.25 7.27
24346 29.3450 60.58 65.27 7.87
24347 29.3460 48.04 65.29 7.00
24348 29.3470 47.72 65.31 6.99
24349 29.3480 40.36 65.34 6.44
24350 29.3490 59.27 65.36 7.77
24351 29.3500 68.10 65.38 8.27
24352 29.3510 62.13 65.40 7.96
24353 29.3520 63.51 65.43 8.11
24354 29.3530 59.11 65.45 7.85
24355 29.3540 49.93 65.48 7.18
24356 29.3550 58.97 65.51 7.77
24357 29.3560 59.27 65.54 7.76
24358 29.3570 56.84 65.57 7.61
24359 29.3580 55.78 65.60 7.58
24360 29.3590 61.53 65.63 7.94
24361 29.3600 60.36 65.66 7.84
24362 29.3610 45.90 65.70 6.88
24363 29.3620 57.47 65.73 7.72
24364 29.3630 51.15 65.77 7.31
24365 29.3640 50.10 65.81 7.19
24366 29.3650 58.34 65.86 7.72
24367 29.3660 58.05 65.91 7.65
24368 29.3670 45.80 65.96 6.84
24369 29.3680 64.32 66.02 8.12
24370 29.3690 65.81 66.08 8.19
24371 29.3700 58.13 66.15 7.67
24372 29.3710 49.50 66.22 7.10
24373 29.3720 56.62 66.31 7.67
24374 29.3730 66.47 66.40 8.34
24375 29.3740 56.17 66.51 7.64
24376 29.3750 58.29 66.64 7.73
24377 29.3760 56.46 66.78 7.58
24378 29.3770 62.17 66.95 7.98
24379 29.3780 63.78 67.15 8.07
24380 29.3790 80.08 67.39 8.99
24381 29.3800 48.67 67.68 7.00
24382 29.3810 59.44 68.02 7.78
24383 29.3820 56.10 68.42 7.63
24384 29.3830 57.00 68.90 7.74
24385 29.3840 49.71 69.45 7.20
24386 29.3850 72.13 70.07 8.63
24387 29.3860 77.55 70.76 8.89
24388 29.3870 71.29 71.47 8.56
24389 29.3880 62.73 72.14 8.00
24390 29.3890 61.79 72.71 7.94
24391 29.3900 50.01 73.10 7.10
24392 29.3910 67.51 73.24 8.33
24393 29.3920 60.81 73.12 7.92
24394 29.3930 66.81 72.77 8.35
24395 29.3940 62.26 72.24 8.03
24396 29.3950 56.61 71.60 7.60
24397 29.3960 62.79 70.93 8.00
24398 29.3970 64.52 70.29 8.15
24399 29.3980 54.25 69.69 7.49
24400 29.3990 62.39 69.18 7.98
24401 29.4000 84.66 68.74 9.26
24402 29.4010 75.29 68.36 8.76
24403 29.4020 68.14 68.06 8.39
24404 29.4030 70.42 67.80 8.55
24405 29.4040 69.69 67.59 8.43
24406 29.4050 65.39 67.42 8.19
24407 29.4060 65.84 67.28 8.20
24408 29.4070 45.14 67.17 6.84
24409 29.4080 62.07 67.08 8.02
24410 29.4090 60.22 67.00 7.85
24411 29.4100 68.65 66.94 8.38
24412 29.4110 60.88 66.89 7.89
24413 29.4120 63.60 66.85 8.11
24414 29.4130 58.16 66.81 7.78
24415 29.4140 58.91 66.79 7.80
24416 29.4150 59.58 66.76 7.83
24417 29.4160 58.32 66.75 7.72
24418 29.4170 66.99 66.73 8.28
24419 29.4180 58.52 66.72 7.75
24420 29.4190 61.12 66.72 7.87
24421 29.4200 60.45 66.71 7.81
24422 29.4210 52.76 66.71 7.33
24423 29.4220 71.39 66.71 8.59
24424 29.4230 57.62 66.71 7.77
24425 29.4240 51.27 66.72 7.30
24426 29.4250 63.23 66.72 8.04
24427 29.4260 58.13 66.73 7.70
24428 29.4270 49.93 66.74 7.14
24429 29.4280 56.86 66.75 7.62
24430 29.4290 68.94 66.77 8.34
24431 29.4300 61.04 66.78 7.86
24432 29.4310 50.89 66.79 7.21
24433 29.4320 69.68 66.81 8.51
24434 29.4330 66.09 66.83 8.32
24435 29.4340 64.62 66.85 8.19
24436 29.4350 46.14 66.87 6.92
24437 29.4360 54.90 66.90 7.49
24438 29.4370 45.52 66.92 6.82
24439 29.4380 60.36 66.95 7.88
24440 29.4390 65.88 66.98 8.16
24441 29.4400 70.26 67.01 8.44
24442 29.4410 55.30 67.05 7.50
24443 29.4420 58.89 67.09 7.82
24444 29.4430 52.66 67.14 7.41
24445 29.4440 55.20 67.19 7.57
24446 29.4450 65.83 67.26 8.23
24447 29.4460 61.78 67.33 7.91
24448 29.4470 65.85 67.41 8.21
24449 29.4480 43.74 67.50 6.74
24450 29.4490 54.11 67.62 7.43
24451 29.4500 65.49 67.75 8.17
24452 29.4510 54.46 67.90 7.46
24453 29.4520 51.34 68.08 7.29
24454 29.4530 61.72 68.28 8.02
24455 29.4540 64.39 68.50 8.13
24456 29.4550 50.26 68.74 7.16
24457 29.4560 51.12 68.97 7.23
24458 29.4570 61.26 69.19 7.93
24459 29.4580 54.73 69.35 7.51
24460 29.4590 61.89 69.46 7.96
24461 29.4600 64.27 69.50 8.10
24462 29.4610 57.63 69.49 7.69
24463 29.4620 64.86 69.45 8.18
24464 29.4630 58.96 69.38 7.84
24465 29.4640 67.16 69.29 8.32
24466 29.4650 61.60 69.16 7.94
24467 29.4660 65.34 69.00 8.15
24468 29.4670 56.32 68.83 7.60
24469 29.4680 60.80 68.65 7.89
24470 29.4690 60.17 68.48 7.81
24471 29.4700 58.00 68.33 7.62
24472 29.4710 66.89 68.20 8.24
24473 29.4720 62.51 68.09 8.02
24474 29.4730 66.96 68.00 8.37
24475 29.4740 58.83 67.92 7.79
24476 29.4750 62.23 67.87 7.97
24477 29.4760 76.75 67.82 8.83
24478 29.4770 70.08 67.79 8.43
24479 29.4780 54.39 67.76 7.46
24480 29.4790 70.14 67.74 8.40
24481 29.4800 69.41 67.73 8.36
24482 29.4810 57.14 67.72 7.62
24483 29.4820 54.97 67.72 7.55
24484 29.4830 67.54 67.72 8.43
24485 29.4840 58.32 67.72 7.77
24486 29.4850 73.62 67.73 8.71
24487 29.4860 68.46 67.73 8.34
24488 29.4870 58.87 67.74 7.76
24489 29.4880 39.87 67.75 6.38
24490 29.4890 44.06 67.77 6.68
24491 29.4900 78.47 67.78 8.89
24492 29.4910 52.64 67.80 7.33
24493 29.4920 48.85 67.81 7.11
24494 29.4930 72.49 67.83 8.68
24495 29.4940 53.70 67.85 7.47
24496 29.4950 54.41 67.87 7.48
24497 29.4960 55.39 67.89 7.51
24498 29.4970 62.96 67.91 8.02
24499 29.4980 53.68 67.93 7.40
24500 29.4990 66.10 67.96 8.17
24501 29.5000 64.48 67.98 8.05
24502 29.5010 47.38 68.01 6.97
24503 29.5020 57.81 68.04 7.72
24504 29.5030 59.24 68.07 7.86
24505 29.5040 71.39 68.10 8.55
24506 29.5050 60.00 68.13 7.84
24507 29.5060 54.40 68.16 7.43
24508 29.5070 62.37 68.19 7.99
24509 29.5080 64.71 68.23 8.15
24510 29.5090 66.41 68.27 8.20
24511 29.5100 57.72 68.31 7.65
24512 29.5110 68.47 68.35 8.38
24513 29.5120 54.03 68.40 7.50
24514 29.5130 73.80 68.44 8.78
24515 29.5140 70.87 68.50 8.55
24516 29.5150 68.29 68.55 8.33
24517 29.5160 61.81 68.61 7.92
24518 29.5170 68.35 68.68 8.33
24519 29.5180 57.84 68.75 7.68
24520 29.5190 55.28 68.83 7.50
24521 29.5200 63.74 68.92 8.00
24522 29.5210 57.46 69.02 7.64
24523 29.5220 47.24 69.13 7.01
24524 29.5230 62.42 69.26 8.09
24525 29.5240 63.70 69.41 8.09
24526 29.5250 61.46 69.58 7.92
24527 29.5260 59.69 69.78 7.80
24528 29.5270 66.32 70.02 8.22
24529 29.5280 62.88 70.30 7.99
24530 29.5290 58.35 70.62 7.69
24531 29.5300 64.86 70.99 8.06
24532 29.5310 73.78 71.41 8.67
24533 29.5320 58.69 71.87 7.81
24534 29.5330 58.09 72.37 7.82
24535 29.5340 55.15 72.88 7.57
24536 29.5350 65.73 73.38 8.20
24537 29.5360 88.88 73.83 9.48
24538 29.5370 64.81 74.20 8.15
24539 29.5380 70.14 74.45 8.46
24540 29.5390 60.88 74.53 7.87
24541 29.5400 57.15 74.43 7.61
24542 29.5410 60.92 74.17 7.86
24543 29.5420 42.74 73.80 6.68
24544 29.5430 69.75 73.38 8.51
24545 29.5440 63.54 72.96 8.11
24546 29.5450 59.95 72.58 7.83
24547 29.5460 60.74 72.26 7.87
24548 29.5470 65.00 72.01 8.14
24549 29.5480 56.83 71.82 7.64
24550 29.5490 69.10 71.70 8.38
24551 29.5500 61.93 71.63 7.90
24552 29.5510 73.73 71.62 8.64
24553 29.5520 69.01 71.66 8.44
24554 29.5530 56.65 71.74 7.67
24555 29.5540 69.78 71.88 8.47
24556 29.5550 63.36 72.07 8.06
24557 29.5560 70.47 72.32 8.47
24558 29.5570 57.23 72.64 7.67
24559 29.5580 83.48 73.02 9.22
24560 29.5590 61.24 73.50 7.91
24561 29.5600 65.22 74.08 8.09
24562 29.5610 63.60 74.80 8.04
24563 29.5620 69.50 75.66 8.46
24564 29.5630 64.29 76.71 8.21
24565 29.5640 76.87 77.97 8.88
24566 29.5650 69.69 79.48 8.44
24567 29.5660 63.10 81.26 8.02
24568 29.5670 89.82 83.31 9.58
24569 29.5680 80.72 85.63 9.08
24570 29.5690 82.59 88.12 9.14
24571 29.5700 87.97 90.62 9.39
24572 29.5710 101.84 92.86 10.18
24573 29.5720 87.36 94.50 9.50
24574 29.5730 89.46 95.24 9.67
24575 29.5740 81.52 94.91 9.15
24576 29.5750 71.45 93.60 8.55
24577 29.5760 75.00 91.57 8.71
24578 29.5770 80.61 89.16 9.07
24579 29.5780 70.54 86.66 8.48
24580 29.5790 65.56 84.27 8.19
24581 29.5800 74.16 82.13 8.63
24582 29.5810 76.90 80.24 8.85
24583 29.5820 70.84 78.64 8.59
24584 29.5830 77.61 77.28 9.02
24585 29.5840 69.67 76.15 8.47
24586 29.5850 64.01 75.22 8.11
24587 29.5860 64.13 74.44 8.07
24588 29.5870 77.78 73.80 8.91
24589 29.5880 60.56 73.26 7.88
24590 29.5890 52.59 72.82 7.30
24591 29.5900 58.20 72.45 7.70
24592 29.5910 56.96 72.14 7.66
24593 29.5920 57.10 71.87 7.68
24594 29.5930 67.35 71.64 8.38
24595 29.5940 64.47 71.45 8.16
24596 29.5950 46.58 71.28 6.92
24597 29.5960 58.42 71.13 7.69
24598 29.5970 51.34 71.00 7.28
24599 29.5980 62.05 70.89 7.99
24600 29.5990 57.41 70.79 7.64
24601 29.6000 51.08 70.70 7.18
24602 29.6010 71.00 70.62 8.50
24603 29.6020 56.23 70.56 7.61
24604 29.6030 77.58 70.49 8.98
24605 29.6040 57.09 70.44 7.68
24606 29.6050 52.63 70.39 7.36
24607 29.6060 63.17 70.35 8.04
24608 29.6070 76.47 70.31 8.87
24609 29.6080 71.23 70.28 8.59
24610 29.6090 54.99 70.25 7.50
24611 29.6100 60.52 70.23 7.82
24612 29.6110 58.89 70.21 7.76
24613 29.6120 65.35 70.19 8.24
24614 29.6130 59.86 70.17 7.94
24615 29.6140 57.32 70.16 7.70
24616 29.6150 61.13 70.14 7.94
24617 29.6160 66.33 70.14 8.23
24618 29.6170 63.29 70.13 8.06
24619 29.6180 44.58 70.12 6.76
24620 29.6190 54.88 70.12 7.46
24621 29.6200 55.10 70.11 7.47
24622 29.6210 58.41 70.11 7.73
24623 29.6220 54.68 70.11 7.54
24624 29.6230 63.96 70.11 8.21
24625 29.6240 67.86 70.11 8.40
24626 29.6250 57.52 70.11 7.69
24627 29.6260 55.15 70.11 7.47
24628 29.6270 59.29 70.12 7.78
24629 29.6280 67.62 70.12 8.34
24630 29.6290 62.58 70.13 7.96
24631 29.6300 65.72 70.13 8.16
24632 29.6310 66.82 70.14 8.31
24633 29.6320 54.73 70.15 7.56
24634 29.6330 54.05 70.15 7.57
24635 29.6340 66.19 70.16 8.28
24636 29.6350 48.68 70.17 7.08
24637 29.6360 57.21 70.18 7.64
24638 29.6370 73.28 70.19 8.66
24639 29.6380 69.22 70.20 8.41
24640 29.6390 56.12 70.21 7.59
24641 29.6400 63.31 70.22 8.01
24642 29.6410 65.94 70.23 8.23
24643 29.6420 66.27 70.24 8.30
24644 29.6430 52.75 70.25 7.44
24645 29.6440 71.81 70.26 8.60
24646 29.6450 50.12 70.27 7.16
24647 29.6460 69.09 70.29 8.41
24648 29.6470 54.89 70.30 7.52
24649 29.6480 54.42 70.31 7.50
24650 29.6490 61.99 70.32 7.96
24651 29.6500 62.68 70.34 7.97
24652 29.6510 53.93 70.35 7.40
24653 29.6520 60.29 70.36 7.89
24654 29.6530 70.80 70.38 8.59
24655 29.6540 53.99 70.39 7.47
24656 29.6550 58.38 70.41 7.75
24657 29.6560 52.22 70.42 7.34
24658 29.6570 58.98 70.43 7.80
24659 29.6580 54.89 70.45 7.57
24660 29.6590 58.34 70.46 7.72
24661 29.6600 50.26 70.48 7.14
24662 29.6610 52.00 70.49 7.27
24663 29.6620 56.50 70.51 7.67
24664 29.6630 55.69 70.52 7.63
24665 29.6640 62.57 70.54 8.06
24666 29.6650 43.76 70.55 6.70
24667 29.6660 64.62 70.57 8.12
24668 29.6670 45.84 70.58 6.88
24669 29.6680 54.39 70.60 7.49
24670 29.6690 49.93 70.62 7.10
24671 29.6700 66.76 70.63 8.22
24672 29.6710 51.56 70.65 7.25
24673 29.6720 59.67 70.66 7.89
24674 29.6730 65.19 70.68 8.27
24675 29.6740 66.14 70.69 8.27
24676 29.6750 61.29 70.71 7.94
24677 29.6760 69.14 70.73 8.36
24678 29.6770 62.38 70.74 7.97
24679 29.6780 62.12 70.76 7.93
24680 29.6790 59.77 70.78 7.79
24681 29.6800 61.44 70.79 7.91
24682 29.6810 63.68 70.81 8.09
24683 29.6820 57.06 70.83 7.73
24684 29.6830 67.28 70.84 8.42
24685 29.6840 67.80 70.86 8.39
24686 29.6850 53.69 70.88 7.43
24687 29.6860 53.21 70.89 7.35
24688 29.6870 67.79 70.91 8.29
24689 29.6880 54.55 70.93 7.48
24690 29.6890 59.99 70.94 7.78
24691 29.6900 60.06 70.96 7.80
24692 29.6910 52.50 70.98 7.32
24693 29.6920 53.39 71.00 7.44
24694 29.6930 52.05 71.01 7.39
24695 29.6940 63.72 71.03 8.11
24696 29.6950 71.48 71.05 8.54
24697 29.6960 69.77 71.06 8.42
24698 29.6970 67.14 71.08 8.29
24699 29.6980 70.51 71.10 8.51
24700 29.6990 61.32 71.12 7.88
24701 29.7000 62.02 71.13 7.93
24702 29.7010 64.15 71.15 8.03
24703 29.7020 62.36 71.17 8.03
24704 29.7030 60.28 71.19 7.90
24705 29.7040 60.22 71.20 7.89
24706 29.7050 72.46 71.22 8.61
24707 29.7060 70.30 71.24 8.48
24708 29.7070 47.85 71.26 7.03
24709 29.7080 70.87 71.31 8.54
24710 29.7090 58.79 71.35 7.75
24711 29.7100 56.30 71.36 7.52
24712 29.7110 61.36 71.38 7.87
24713 29.7120 63.22 71.40 8.06
24714 29.7130 63.34 71.42 8.11
24715 29.7140 62.27 71.44 7.99
24716 29.7150 64.12 71.46 8.09
24717 29.7160 54.48 71.48 7.46
24718 29.7170 61.59 71.49 7.96
24719 29.7180 58.96 71.51 7.79
24720 29.7190 63.01 71.53 7.96
24721 29.7200 73.46 71.55 8.61
24722 29.7210 66.96 71.57 8.21
24723 29.7220 45.44 71.58 6.85
24724 29.7230 52.34 71.60 7.41
24725 29.7240 63.11 71.62 8.09
24726 29.7250 66.30 71.64 8.24
24727 29.7260 66.36 71.66 8.22
24728 29.7270 58.01 71.67 7.70
24729 29.7280 59.04 71.69 7.78
24730 29.7290 47.99 71.71 6.99
24731 29.7300 57.23 71.73 7.59
24732 29.7310 53.17 71.75 7.36
24733 29.7320 43.89 71.77 6.78
24734 29.7330 47.48 71.78 7.05
24735 29.7340 63.32 71.80 8.08
24736 29.7350 55.36 71.82 7.53
24737 29.7360 49.67 71.84 7.11
24738 29.7370 69.30 71.86 8.39
24739 29.7380 60.18 71.88 7.85
24740 29.7390 61.62 71.90 7.89
24741 29.7400 55.27 71.92 7.47
24742 29.7410 53.60 71.93 7.40
24743 29.7420 58.54 71.95 7.81
24744 29.7430 63.62 71.97 8.15
24745 29.7440 56.87 71.99 7.69
24746 29.7450 63.63 72.01 8.06
24747 29.7460 60.49 72.03 7.85
24748 29.7470 65.26 72.05 8.16
24749 29.7480 65.10 72.07 8.15
24750 29.7490 52.87 72.09 7.33
24751 29.7500 66.20 72.10 8.19
24752 29.7510 78.11 72.12 8.91
24753 29.7520 56.65 72.14 7.68
24754 29.7530 60.22 72.16 7.93
24755 29.7540 63.05 72.18 8.06
24756 29.7550 56.02 72.20 7.58
24757 29.7560 45.97 72.22 6.85
24758 29.7570 61.53 72.24 7.92
24759 29.7580 49.32 72.26 7.15
24760 29.7590 39.65 72.28 6.37
24761 29.7600 52.24 72.30 7.28
24762 29.7610 59.09 72.32 7.75
24763 29.7620 42.97 72.33 6.70
24764 29.7630 61.37 72.35 8.03
24765 29.7640 55.50 72.37 7.57
24766 29.7650 59.36 72.39 7.80
24767 29.7660 43.38 72.41 6.64
24768 29.7670 66.13 72.43 8.24
24769 29.7680 60.68 72.45 7.85
24770 29.7690 75.74 72.47 8.76
24771 29.7700 57.24 72.49 7.60
24772 29.7710 55.55 72.51 7.52
24773 29.7720 55.77 72.53 7.63
24774 29.7730 54.14 72.55 7.50
24775 29.7740 56.03 72.57 7.61
24776 29.7750 56.40 72.59 7.59
24777 29.7760 55.91 72.61 7.56
24778 29.7770 64.32 72.63 8.09
24779 29.7780 65.14 72.64 8.17
24780 29.7790 62.40 72.66 7.94
24781 29.7800 53.63 72.68 7.40
24782 29.7810 55.33 72.70 7.54
24783 29.7820 72.38 72.72 8.67
24784 29.7830 67.11 72.74 8.41
24785 29.7840 74.07 72.76 8.76
24786 29.7850 62.34 72.78 7.99
24787 29.7860 55.11 72.80 7.50
24788 29.7870 65.57 72.82 8.21
24789 29.7880 60.01 72.84 7.85
24790 29.7890 65.04 72.86 8.13
24791 29.7900 64.51 72.88 8.07
24792 29.7910 72.22 72.91 8.58
24793 29.7920 59.51 72.93 7.85
24794 29.7930 64.62 72.95 8.23
24795 29.7940 55.88 72.97 7.59
24796 29.7950 57.44 72.99 7.69
24797 29.7960 49.34 73.01 7.12
24798 29.7970 49.50 73.03 7.14
24799 29.7980 73.70 73.05 8.68
24800 29.7990 60.64 73.07 7.85
24801 29.8000 66.45 73.09 8.19
24802 29.8010 58.52 73.11 7.70
24803 29.8020 58.43 73.13 7.78
24804 29.8030 54.25 73.15 7.53
24805 29.8040 72.65 73.17 8.68
24806 29.8050 60.06 73.19 7.86
24807 29.8060 55.02 73.21 7.52
24808 29.8070 58.19 73.23 7.73
24809 29.8080 58.36 73.25 7.76
24810 29.8090 46.36 73.28 6.86
24811 29.8100 57.80 73.30 7.66
24812 29.8110 63.65 73.34 8.06
24813 29.8120 59.10 73.36 7.83
24814 29.8130 69.41 73.38 8.53
24815 29.8140 61.16 73.42 7.95
24816 29.8150 71.74 73.44 8.57
24817 29.8160 67.19 73.46 8.28
24818 29.8170 56.72 73.48 7.62
24819 29.8180 54.64 73.50 7.51
24820 29.8190 54.93 73.52 7.48
24821 29.8200 53.22 73.54 7.34
24822 29.8210 53.28 73.56 7.40
24823 29.8220 51.88 73.58 7.35
24824 29.8230 65.81 73.60 8.28
24825 29.8240 73.07 73.62 8.70
24826 29.8250 73.75 73.64 8.69
24827 29.8260 63.17 73.66 8.01
24828 29.8270 60.79 73.69 7.89
24829 29.8280 49.11 73.71 7.10
24830 29.8290 65.80 73.73 8.20
24831 29.8300 48.87 73.75 7.08
24832 29.8310 53.83 73.77 7.44
24833 29.8320 60.19 73.79 7.93
24834 29.8330 54.66 73.81 7.57
24835 29.8340 59.49 73.83 7.87
24836 29.8350 66.67 73.85 8.26
24837 29.8360 70.43 73.87 8.45
24838 29.8370 56.97 73.89 7.64
24839 29.8380 56.31 73.91 7.65
24840 29.8390 67.78 73.94 8.31
24841 29.8400 68.81 73.96 8.36
24842 29.8410 50.30 73.98 7.20
24843 29.8420 50.81 74.00 7.28
24844 29.8430 49.57 74.02 7.18
24845 29.8440 60.02 74.04 7.90
24846 29.8450 53.46 74.07 7.40
24847 29.8460 69.72 74.09 8.46
24848 29.8470 76.03 74.11 8.86
24849 29.8480 60.65 74.13 7.89
24850 29.8490 58.11 74.16 7.68
24851 29.8500 58.78 74.18 7.69
24852 29.8510 54.49 74.20 7.46
24853 29.8520 61.57 74.22 7.99
24854 29.8530 58.66 74.24 7.83
24855 29.8540 56.62 74.26 7.70
24856 29.8550 64.54 74.28 8.16
24857 29.8560 70.62 74.30 8.54
24858 29.8570 60.24 74.33 7.89
24859 29.8580 63.28 74.35 8.07
24860 29.8590 51.04 74.37 7.21
24861 29.8600 55.43 74.39 7.48
24862 29.8610 68.55 74.41 8.38
24863 29.8620 44.44 74.43 6.80
24864 29.8630 53.27 74.46 7.51
24865 29.8640 51.11 74.48 7.28
24866 29.8650 53.97 74.50 7.46
24867 29.8660 59.48 74.52 7.80
24868 29.8670 73.88 74.54 8.70
24869 29.8680 58.62 74.56 7.75
24870 29.8690 58.63 74.59 7.74
24871 29.8700 65.57 74.61 8.14
24872 29.8710 63.38 74.63 8.05
24873 29.8720 64.22 74.65 8.20
24874 29.8730 65.12 74.67 8.26
24875 29.8740 68.07 74.70 8.39
24876 29.8750 51.10 74.72 7.24
24877 29.8760 52.02 74.74 7.26
24878 29.8770 44.69 74.76 6.78
24879 29.8780 50.35 74.78 7.20
24880 29.8790 55.85 74.81 7.58
24881 29.8800 51.40 74.83 7.27
24882 29.8810 58.88 74.85 7.80
24883 29.8820 46.98 74.87 7.03
24884 29.8830 45.73 74.90 6.94
24885 29.8840 61.65 74.92 7.98
24886 29.8850 56.70 74.94 7.62
24887 29.8860 58.36 74.96 7.72
24888 29.8870 53.13 74.98 7.41
24889 29.8880 53.80 75.01 7.46
24890 29.8890 49.07 75.03 7.11
24891 29.8900 67.66 75.05 8.28
24892 29.8910 52.36 75.07 7.30
24893 29.8920 55.21 75.10 7.59
24894 29.8930 51.71 75.12 7.36
24895 29.8940 60.25 75.14 7.90
24896 29.8950 67.70 75.17 8.36
24897 29.8960 59.92 75.19 7.83
24898 29.8970 65.45 75.21 8.20
24899 29.8980 54.42 75.23 7.48
24900 29.8990 53.49 75.26 7.37
24901 29.9000 50.27 75.28 7.12
24902 29.9010 55.45 75.30 7.50
24903 29.9020 51.99 75.33 7.36
24904 29.9030 73.20 75.35 8.73
24905 29.9040 59.00 75.37 7.83
24906 29.9050 66.47 75.39 8.32
24907 29.9060 58.10 75.42 7.73
24908 29.9070 58.07 75.44 7.75
24909 29.9080 66.97 75.46 8.31
24910 29.9090 51.47 75.49 7.24
24911 29.9100 51.44 75.51 7.20
24912 29.9110 64.46 75.53 8.09
24913 29.9120 76.98 75.56 8.93
24914 29.9130 59.51 75.58 7.88
24915 29.9140 61.42 75.60 7.99
24916 29.9150 79.86 75.63 9.05
24917 29.9160 67.56 75.65 8.31
24918 29.9170 54.47 75.67 7.48
24919 29.9180 61.67 75.70 7.96
24920 29.9190 69.15 75.72 8.34
24921 29.9200 54.06 75.75 7.38
24922 29.9210 62.22 75.77 7.96
24923 29.9220 68.82 75.79 8.42
24924 29.9230 61.53 75.82 8.01
24925 29.9240 60.17 75.84 7.85
24926 29.9250 68.07 75.87 8.33
24927 29.9260 58.74 75.89 7.73
24928 29.9270 58.48 75.91 7.72
24929 29.9280 73.14 75.94 8.66
24930 29.9290 63.33 75.96 8.04
24931 29.9300 55.64 75.99 7.55
24932 29.9310 47.06 76.01 6.95
24933 29.9320 65.96 76.04 8.28
24934 29.9330 61.89 76.06 8.05
24935 29.9340 69.52 76.09 8.46
24936 29.9350 50.78 76.11 7.21
24937 29.9360 56.58 76.13 7.58
24938 29.9370 68.40 76.16 8.36
24939 29.9380 57.71 76.18 7.70
24940 29.9390 54.45 76.21 7.46
24941 29.9400 57.67 76.23 7.67
24942 29.9410 60.18 76.26 7.85
24943 29.9420 72.34 76.28 8.66
24944 29.9430 54.17 76.31 7.53
24945 29.9440 54.36 76.33 7.49
24946 29.9450 50.24 76.36 7.14
24947 29.9460 71.29 76.38 8.54
24948 29.9470 61.20 76.41 7.93
24949 29.9480 59.10 76.44 7.77
24950 29.9490 53.62 76.46 7.37
24951 29.9500 68.50 76.49 8.30
24952 29.9510 69.58 76.51 8.42
24953 29.9520 69.12 76.54 8.47
24954 29.9530 71.59 76.57 8.61
24955 29.9540 57.04 76.59 7.68
24956 29.9550 60.43 76.62 7.87
24957 29.9560 53.44 76.64 7.39
24958 29.9570 55.05 76.67 7.52
24959 29.9580 64.86 76.70 8.15
24960 29.9590 66.04 76.72 8.19
24961 29.9600 45.40 76.75 6.78
24962 29.9610 66.20 76.78 8.20
24963 29.9620 50.12 76.81 7.24
24964 29.9630 58.56 76.83 7.82
24965 29.9640 61.66 76.86 7.98
24966 29.9650 65.79 76.89 8.21
24967 29.9660 65.25 76.91 8.17
24968 29.9670 58.32 76.94 7.71
24969 29.9680 67.40 76.97 8.31
24970 29.9690 55.13 77.00 7.50
24971 29.9700 53.04 77.03 7.29
24972 29.9710 57.55 77.05 7.68
24973 29.9720 56.86 77.08 7.69
24974 29.9730 47.95 77.11 7.09
24975 29.9740 55.07 77.13 7.54
24976 29.9750 74.24 77.16 8.69
24977 29.9760 61.81 77.19 7.95
24978 29.9770 66.74 77.22 8.25
24979 29.9780 70.86 77.25 8.52
24980 29.9790 56.27 77.28 7.57
24981 29.9800 57.35 77.31 7.61
24982 29.9810 70.84 77.34 8.52
24983 29.9820 64.41 77.37 8.16
24984 29.9830 49.82 77.40 7.25
24985 29.9840 46.09 77.43 6.92
24986 29.9850 61.78 77.46 7.95
24987 29.9860 61.04 77.49 7.90
24988 29.9870 67.09 77.52 8.27
24989 29.9880 62.50 77.55 7.98
24990 29.9890 60.65 77.58 7.85
24991 29.9900 54.97 77.61 7.45
24992 29.9910 61.43 77.65 7.92
24993 29.9920 69.29 77.68 8.45
24994 29.9930 75.14 77.71 8.85
24995 29.9940 63.84 77.74 8.12
24996 29.9950 55.97 77.78 7.56
24997 29.9960 67.76 77.81 8.32
24998 29.9970 53.65 77.84 7.40
24999 29.9980 70.67 77.88 8.51
25000 29.9990 67.05 77.91 8.25
loop_
_pd_proc_info_excluded_regions
'from 30 to 100.000'
