#------------------------------------------------------------------------------
#$Date: 2017-03-04 03:50:55 +0200 (Sat, 04 Mar 2017) $
#$Revision: 192941 $
#$URL: file:///home/coder/svn-repositories/cod/cif/4/34/53/4345379.cif $
#------------------------------------------------------------------------------
#
# This file is available in the Crystallography Open Database (COD),
# http://www.crystallography.net/
#
# All data on this site have been placed in the public domain by the
# contributors.
#
data_4345379
loop_
_publ_author_name
'Shan, Yu-Liang'
'Leong, Bi-Xiang'
'Li, Yongxin'
'Ganguly, Rakesh'
'So, Cheuk-Wai'
_publ_section_title
;
 Donor-Acceptor Stabilized Tetra(silanimine).
;
_journal_issue                   3
_journal_name_full               'Inorganic chemistry'
_journal_page_first              1609
_journal_page_last               1615
_journal_paper_doi               10.1021/acs.inorgchem.6b02727
_journal_volume                  56
_journal_year                    2017
_chemical_formula_sum            'I6 Si2'
_chemical_formula_weight         817.58
_space_group_crystal_system      trigonal
_space_group_IT_number           148
_space_group_name_Hall           '-R 3'
_space_group_name_H-M_alt        'R -3'
_symmetry_space_group_name_Hall  '-R 3'
_symmetry_space_group_name_H-M   'R -3 :H'
_cell_angle_alpha                90
_cell_angle_beta                 90
_cell_angle_gamma                120
_cell_formula_units_Z            3
_cell_length_a                   7.1295(14)
_cell_length_b                   7.1295(14)
_cell_length_c                   22.100(5)
_cell_measurement_reflns_used    853
_cell_measurement_temperature    103.(2)
_cell_measurement_theta_max      27.8339
_cell_measurement_theta_min      3.4260
_cell_volume                     972.8(3)
_computing_cell_refinement       'SAINT V8.34A (Bruker AXS Inc., 2013)'
_computing_data_collection       'APEX2 (Bruker AXS Inc., 2014)'
_computing_data_reduction        'SAINT V8.34A (Bruker AXS Inc., 2013)'
_computing_molecular_graphics    'XP (Bruker AXS Inc., 2014)'
_computing_publication_material  'APEX2 (Bruker AXS Inc., 2014)'
_computing_structure_refinement  'SHELXL-2014/6 (Sheldrick, 2014)'
_diffrn_ambient_temperature      103.(2)
_diffrn_detector_area_resol_mean 8.3333
_diffrn_measured_fraction_theta_full 0.997
_diffrn_measured_fraction_theta_max 0.997
_diffrn_measurement_device_type  'CCD area detector'
_diffrn_measurement_method       'phi and omega scans'
_diffrn_radiation_monochromator  graphite
_diffrn_radiation_type           MoK\a
_diffrn_radiation_wavelength     0.71073
_diffrn_reflns_av_R_equivalents  0.0634
_diffrn_reflns_av_unetI/netI     0.0352
_diffrn_reflns_limit_h_max       10
_diffrn_reflns_limit_h_min       -8
_diffrn_reflns_limit_k_max       10
_diffrn_reflns_limit_k_min       -10
_diffrn_reflns_limit_l_max       31
_diffrn_reflns_limit_l_min       -31
_diffrn_reflns_number            6201
_diffrn_reflns_theta_full        31.03
_diffrn_reflns_theta_max         31.03
_diffrn_reflns_theta_min         2.77
_diffrn_source                   'fine-focus sealed tube'
_exptl_absorpt_coefficient_mu    14.494
_exptl_absorpt_correction_T_max  0.20
_exptl_absorpt_correction_T_min  0.13
_exptl_absorpt_correction_type   multi-scan
_exptl_absorpt_process_details   'SADABS V2014/4 (Bruker AXS Inc.)'
_exptl_crystal_colour            colourless
_exptl_crystal_density_diffrn    4.187
_exptl_crystal_density_method    'not measured'
_exptl_crystal_description       block
_exptl_crystal_F_000             1038
_exptl_crystal_size_max          0.210
_exptl_crystal_size_mid          0.180
_exptl_crystal_size_min          0.160
_refine_diff_density_max         1.094
_refine_diff_density_min         -2.501
_refine_ls_extinction_method     none
_refine_ls_goodness_of_fit_ref   1.054
_refine_ls_hydrogen_treatment    undef
_refine_ls_matrix_type           full
_refine_ls_number_parameters     13
_refine_ls_number_reflns         691
_refine_ls_number_restraints     0
_refine_ls_restrained_S_all      1.054
_refine_ls_R_factor_all          0.0475
_refine_ls_R_factor_gt           0.0324
_refine_ls_shift/su_max          0.001
_refine_ls_shift/su_mean         0.000
_refine_ls_structure_factor_coef Fsqd
_refine_ls_weighting_details
'w=1/[\s^2^(Fo^2^)+(0.0318P)^2^] where P=(Fo^2^+2Fc^2^)/3'
_refine_ls_weighting_scheme      calc
_refine_ls_wR_factor_gt          0.0731
_refine_ls_wR_factor_ref         0.0796
_reflns_number_gt                527
_reflns_number_total             691
_reflns_threshold_expression     'I > 2\s(I)'
_cod_data_source_file            ic6b02727_si_001.cif
_cod_data_source_block           I
_cod_original_cell_volume        972.8(4)
_cod_database_code               4345379
_shelx_res_file
;
TITL scw1130s in R-3
CELL 0.71073   7.12950   7.12950  22.09970  90.0000  90.0000 120.0000
ZERR    3.00   0.00140   0.00140   0.00470   0.0000   0.0000   0.0000
LATT 3
SYMM -Y, X-Y, Z
SYMM -X+Y, -X, Z
SFAC Si I
UNIT 6  18
L.S. 10
ACTA
BOND
FMAP 2
PLAN 5
SIZE 0.160 0.180 0.210
TEMP -170
WGHT    0.031800
FVAR       0.03959
I1    2    0.339064    0.327741    0.419297    11.00000    0.01041    0.01549 =
         0.01686   -0.00046    0.00250    0.00754
SI1   1    0.666667    0.333333    0.385992    10.33333    0.01024    0.01024 =
         0.00876    0.00000    0.00000    0.00512
HKLF 4

REM  scw1130s in R-3
REM R1 =  0.0324 for     527 Fo > 4sig(Fo)  and  0.0475 for all     691 data
REM     13 parameters refined using      0 restraints

END

WGHT      0.0317      0.0000

REM Highest difference peak  1.094,  deepest hole -2.501,  1-sigma level  0.337
Q1    1   0.0000  0.0000  0.5000  10.16667  0.05    1.09
Q2    1   0.3285  0.0278  0.4237  11.00000  0.05    1.06
Q3    1   0.0139  0.2151  0.4041  11.00000  0.05    0.99
Q4    1   0.2631  0.5752  0.4855  11.00000  0.05    0.93
Q5    1   0.2416  0.1068  0.4341  11.00000  0.05    0.88
;
_shelx_res_checksum              24900
_shelx_hkl_file
;
   1  -2   0  178.57    9.40
   1  -2   0  173.35    9.40
   1  -2   0  177.80    9.34
   1   1   0  187.29    9.51
   1   1   0  197.48    9.37
   1   1   0  200.89    9.67
   1   1   0  178.12    9.54
   1  -2   0  178.19    9.50
   1  -2   0  175.26    9.90
   1  -2   0  171.85    9.30
  -2   1   0  184.96    8.93
   2  -1   0  197.56    9.30
  -1  -1   0  214.60    9.64
  -1  -1   0  186.54    9.36
  -1  -1   0  196.86    9.57
  -1  -1   0  189.64    9.62
  -1  -1   0  196.79    9.62
  -1   2   0  183.35    9.99
  -1   2   0  186.00    9.41
  -1   2   0  171.27    9.28
   2  -1   0  199.70    9.65
   2  -1   0  178.90    9.12
   2  -1   0  177.93    9.11
   0  -3   0  719.28   35.37
   3   0   0  737.69   35.20
   3   0   0  691.35   34.89
  -3   3   0  592.54   35.57
   3   0   0  749.97   35.07
   0  -3   0  726.70   35.53
   0  -3   0  775.24   35.57
   0   3   0  688.19   35.41
   0   3   0  721.35   35.34
   3  -3   0  714.42   35.82
   3  -3   0  742.99   34.44
   3  -3   0  726.77   34.71
  -3   0   0  711.12   35.08
  -3   0   0  741.21   34.91
   2   2   0  103.06    6.59
   2   2   0  128.22    6.37
   2  -4   0  117.67    6.50
   2  -4   0  109.41    6.46
   2   2   0  104.87    6.51
   2  -4   0  112.50    6.40
   4  -2   0  113.52    6.10
   4  -2   0  112.49    6.04
  -2   4   0  106.25    6.14
  -2  -2   0  104.02    6.29
  -2  -2   0  103.03    6.67
  -2   4   0  119.64    7.61
   4  -2   0  112.72    6.82
   4  -2   0   98.57    5.88
   1   4   0   72.56    5.25
   4  -5   0   71.64    4.64
  -5   1   0   76.90    4.07
  -5   1   0   69.30    4.19
   1   4   0   70.57    5.31
   5  -1   0   77.18    4.82
   5  -1   0   71.11    4.87
  -4   5   0   76.61    6.13
  -1  -4   0   74.63    5.22
  -1  -4   0   75.82    5.61
   1  -5   0   73.86    5.34
   4   1   0   84.23    4.78
   4   1   0   77.34    5.06
   4   1   0   73.36    5.23
   1  -5   0   74.74    5.39
   1  -5   0   69.42    5.32
  -4  -1   0   67.55    5.03
  -4  -1   0   77.07    4.69
   5  -4   0   69.84    4.34
  -1   5   0   66.30    5.22
   5  -4   0   70.91    4.16
  -1   5   0   79.04    5.18
  -1   5   0   73.20    6.22
   3  -6   0  390.87   20.69
   3   3   0  360.57   20.31
   3  -6   0  392.81   20.04
   3   3   0  356.01   20.10
   3  -6   0  399.59   20.07
  -3  -3   0  400.68   20.71
  -3  -3   0  366.68   19.78
  -3   6   0  377.94   19.39
   6  -3   0  390.68   19.32
  -3   6   0  368.39   21.58
   6  -3   0  361.47   19.20
   0  -6   0  258.57   15.67
   6   0   0  281.02   15.54
   6   0   0  300.17   15.30
   0  -6   0  248.97   15.82
  -6   6   0  283.15   16.15
   6  -6   0  275.02   14.31
  -6   0   0  273.22   14.81
   0   6   0  281.95   17.46
   0   6   0  262.58   15.83
   0   6   0  264.14   15.50
   5  -7   0   56.64    4.05
   5  -7   0   36.46    3.90
   2   5   0   32.22    4.39
   2   5   0   28.78    4.26
   7  -2   0   46.30    4.31
  -2  -5   0   37.61    5.01
  -2  -5   0   32.58    4.35
  -5   7   0   36.53    5.47
   7  -2   0   40.55    4.18
   2  -7   0   34.69    4.48
   5   2   0   37.38    4.65
   5   2   0   38.47    4.52
   2  -7   0   36.41    4.76
   7  -5   0   34.16    2.80
  -2   7   0   36.26    5.80
  -5  -2   0   37.64    3.68
   7  -5   0   37.25    3.07
  -5  -2   0   39.50    4.87
   1   7   0   26.13    4.40
   1   7   0   21.61    4.95
   7  -8   0   19.77    2.73
  -7   8   0   17.39    3.85
   8  -1   0   23.83    3.80
  -1  -7   0   26.27    4.79
   8  -1   0   21.63    3.44
  -1  -7   0   31.13    4.96
   4  -8   0   40.33    5.24
   4   4   0   35.40    4.74
   4  -8   0   30.09    4.16
   4   4   0   30.70    4.61
  -4   8   0   30.90    5.53
   8  -4   0   41.56    3.99
  -4  -4   0   25.03    3.75
   8  -4   0   41.87    3.90
  -4  -4   0   33.60    5.16
   1  -8   0   17.82    3.76
   7   1   0   29.82    4.60
   1  -8   0   32.22    5.08
   7   1   0   33.10    4.53
  -1   8   0   18.55    4.95
  -7  -1   0   21.63    3.51
   8  -7   0   21.56    2.41
   6  -9   0   98.07   10.33
   3   6   0  116.40    9.20
  -3  -6   0  120.63    9.80
  -6   9   0  121.50   10.22
   9  -3   0  128.80    8.44
   3  -9   0  107.82    9.14
   6   3   0  129.71    9.76
   3  -9   0  131.01   10.05
   6   3   0  139.14    9.58
  -3   9   0  108.96   12.54
   9  -6   0  121.88    7.29
  -6  -3   0  130.45    9.63
   5   5   0   11.89    3.27
   5 -10   0    7.63    2.98
   5   5   0   10.17    3.35
  -5  -5   0   13.49    3.71
  10  -5   0   11.18    2.28
  -5  10   0   13.60    4.32
  -1   0  -1    6.73    0.91
   0   1  -1   12.37    0.97
  -1   0  -1   14.02    0.86
   0   1  -1   14.92    1.05
  -1   0  -1   12.19    0.90
   1  -1  -1   14.96    1.22
  -1   0  -1   10.12    0.83
   0  -1   1   12.20    0.91
   0  -1   1   10.93    0.86
   1   0   1   10.95    0.90
   1   0   1   11.40    0.87
   0  -1   1   11.63    0.88
   0  -1   1    7.74    1.00
  -2  -1  -1   20.53    2.13
  -1   3  -1   16.75    2.43
  -2  -1  -1   17.26    2.05
   3  -2  -1   15.98    1.04
   3  -2  -1   18.02    2.27
  -2  -1  -1   17.77    2.04
  -2  -1  -1   21.31    2.13
  -2  -1  -1   16.86    1.80
  -1   3  -1   23.49    2.29
   2   1   1   20.08    2.00
  -3   2   1   15.20    2.05
   1  -3   1   21.89    2.25
   1  -3   1   15.93    1.86
   1  -3   1   18.99    2.12
   2   1   1   18.72    2.03
   1  -3   1   14.15    1.75
   1  -3   1   14.84    1.79
   2   1   1   20.47    1.92
  -2   2  -1    1.96    0.37
   2   0  -1    2.52    0.63
   2   0  -1    1.82    0.56
   0  -2  -1    1.21    0.56
   0  -2  -1    2.54    0.72
  -2   2  -1    1.54    0.69
   0  -2  -1    2.80    0.75
   2   0  -1    1.44    0.41
  -2   2  -1    1.74    0.30
   2   0  -1    1.23    0.47
   0  -2  -1    2.34    0.69
   2   0  -1    1.64    0.49
  -2   0   1    0.74    0.44
   2  -2   1    1.94    0.71
  -2   0   1    1.47    0.41
   0   2   1    0.72    0.57
   0   2   1    0.82    0.42
   0   2   1    0.65    0.48
   0   2   1    1.77    0.61
  -2   0   1    1.13    0.46
  -2   0   1    1.93    0.49
   2  -2   1    2.46    0.59
   0   2   1    2.82    0.75
   2  -2   1    1.94    0.36
  -2   5  -1    0.84    1.10
  -2   5  -1    0.92    0.63
   5  -3  -1    1.74    0.65
   5  -3  -1    0.79    0.61
  -3  -2  -1    1.14    0.87
   5  -3  -1    0.72    0.43
  -3  -2  -1    1.81    0.75
   2  -5   1    1.46    0.77
   2  -5   1    2.73    1.13
   3   2   1    2.08    0.99
   2  -5   1    2.61    1.14
   3   2   1    0.96    0.66
   1   2  -1    0.29    0.38
  -3   1  -1    0.17    0.31
   1   2  -1    0.19    0.41
  -3   1  -1   -0.21    0.15
   1   2  -1    0.31    0.41
   2  -3  -1    0.17    0.32
  -3   1  -1    0.12    0.27
   2  -3  -1    0.23    0.26
   2  -3  -1    0.05    0.64
   2  -3  -1    0.22    0.31
  -2   3   1    0.15    0.20
  -1  -2   1    0.39    0.39
   3  -1   1   -0.31    0.28
   3  -1   1    0.18    0.26
   3  -1   1    0.08    0.25
   3  -1   1    0.37    0.40
  -2   3   1   -0.51    0.44
  -1  -2   1    0.09    0.40
  -1  -2   1   -0.21    0.41
  -2   3   1    0.12    0.26
  -1  -2   1   -0.20    0.31
  -3   4  -1    0.65    0.33
  -1  -3  -1    0.36    0.57
  -1  -3  -1   -0.14    0.37
   4  -1  -1    0.40    0.50
   4  -1  -1    0.21    0.43
  -1  -3  -1    0.20    0.60
   4  -1  -1    0.84    0.53
  -3   4  -1   -0.12    0.77
   3  -4   1    0.45    1.03
  -4   1   1    0.21    0.28
   3  -4   1    0.88    0.56
   3  -4   1    0.63    0.51
   1   3   1    1.20    0.77
   1   3   1    0.41    0.56
   3  -4   1    0.12    0.60
  -4   1   1    0.26    0.20
  -4  -3  -1    1.09    1.01
  -3   7  -1    2.45    1.90
   7  -4  -1    0.88    0.72
   7  -4  -1    1.38    0.72
  -4  -3  -1    0.52    0.98
   4   3   1    0.13    0.82
   3  -7   1    1.84    1.30
   3  -7   1    3.56    1.47
   4   3   1    1.29    1.18
   0   4  -1    9.28    1.85
  -4   0  -1   12.98    1.67
   0   4  -1   12.74    1.96
  -4   0  -1   10.01    1.67
   4  -4  -1    7.56    1.07
   4  -4  -1   10.15    1.07
   0  -4   1   11.38    2.02
   0  -4   1    8.15    1.78
   0  -4   1    9.56    1.76
   4   0   1   12.49    1.79
   4   0   1   11.62    1.68
  -4   4   1   10.57    2.26
   4   0   1    8.08    1.58
   1  -4  -1   26.38    2.90
   1  -4  -1   28.89    3.11
   3   1  -1   31.33    2.95
   1  -4  -1   30.26    3.07
   3   1  -1   19.62    2.45
   3   1  -1   23.16    1.87
  -1   4   1   25.63    2.78
  -3  -1   1   31.85    3.13
   4  -3   1   25.27    1.92
   4  -3   1   24.91    1.92
   4  -3   1   27.38    3.11
  -3  -1   1   23.13    2.21
   4  -3   1   23.56    1.76
  -1   4   1   21.15    3.38
   6  -2  -1   22.83    2.70
  -4   6  -1   24.74    4.09
  -2  -4  -1   28.10    3.51
  -2  -4  -1   21.76    3.47
   6  -2  -1   23.54    2.74
   2   4   1   27.40    3.61
   4  -6   1   29.14    3.32
   4  -6   1   24.76    3.05
   2   4   1   22.78    3.30
  -4   9  -1   14.44    4.26
  -5  -4  -1   13.28    3.34
   9  -5  -1    9.94    1.88
   5   4   1   13.12    3.16
   5   4   1   14.51    3.39
   4  -9   1    8.16    2.79
   4  -9   1   12.68    3.34
  -1   6  -1    6.80    1.93
  -1   6  -1    7.85    1.91
  -1   6  -1    6.98    2.44
   6  -5  -1   10.80    1.88
   6  -5  -1   11.43    1.38
  -5  -1  -1    9.12    2.12
   5   1   1   12.45    2.23
   1  -6   1   10.96    2.47
   5   1   1    9.27    2.17
   1  -6   1    8.78    2.21
   2   3  -1    3.01    1.17
   3  -5  -1    2.77    0.91
   3  -5  -1    2.58    0.85
   3  -5  -1    2.37    0.95
   2   3  -1    3.18    1.07
   5  -2   1    3.93    0.95
  -2  -3   1    2.90    1.24
  -3   5   1    2.69    0.71
  -2  -3   1    2.56    0.97
   5  -2   1    3.69    0.96
  -3   5   1    3.92    1.69
   5   0  -1   -0.22    0.54
   0  -5  -1    0.15    0.79
   0  -5  -1    1.33    1.13
   5   0  -1   -0.34    0.53
   5   0  -1   -0.92    0.48
  -5   5  -1   -0.39    0.78
   0   5   1   -1.06    0.44
  -5   0   1    0.05    0.51
   5  -5   1    0.73    0.60
   0   5   1    0.17    0.63
  -5   0   1   -0.27    0.54
   0   5   1    0.48    0.70
  -5   8  -1    3.42    2.19
   8  -3  -1    1.88    1.07
   8  -3  -1    0.29    1.03
  -3  -5  -1    1.91    1.59
  -3  -5  -1    2.56    1.63
   3   5   1    2.53    1.64
   5  -8   1    2.62    1.88
   3   5   1    1.68    1.53
   5  -8   1    0.34    1.28
  -2   8  -1    0.51    1.74
   8  -6  -1    4.01    0.95
  -6  -2  -1    2.45    1.76
   2  -8   1    2.82    1.84
   2  -8   1    4.92    2.07
   6   2   1    2.17    1.39
   6   2   1    6.82    2.36
   5  -6  -1    3.03    0.93
  -6   1  -1    2.24    0.75
   1   5  -1    5.29    1.60
   5  -6  -1    3.80    1.11
   1   5  -1    3.45    1.41
  -5   6   1    1.32    1.42
   6  -1   1    1.58    0.97
   6  -1   1    1.62    0.91
  -1  -5   1    1.60    1.28
  -1  -5   1    2.31    1.26
   4   2  -1    0.87    0.89
   2  -6  -1    3.00    1.25
   4   2  -1    1.40    1.01
   4   2  -1    1.85    1.34
   2  -6  -1    1.96    1.14
   2  -6  -1    0.59    0.75
   6  -4   1    2.56    0.85
  -4  -2   1    2.28    1.28
  -4  -2   1    1.82    0.87
   6  -4   1    2.25    0.77
  -2   6   1    1.77    0.91
  -2   6   1    0.56    1.33
  -1  -6  -1    1.40    1.43
  -6   7  -1    1.19    1.29
   7  -1  -1   -0.05    0.81
   7  -1  -1    1.45    1.02
  -1  -6  -1    0.24    1.07
   1   6   1    0.13    1.40
   1   6   1    0.99    0.93
   1   6   1   -0.53    1.36
   6  -7   1    1.17    0.84
  -4  -6  -1   -1.23    1.68
  10  -4  -1   -0.27    0.99
   6 -10   1    0.71    1.99
   4   6   1    1.03    1.74
  -3  10  -1    1.95    2.94
  -7  -3  -1    2.38    2.06
   3 -10   1    2.18    2.28
   7   3   1   -0.63    1.44
   7   3   1    2.71    2.02
   3 -10   1    4.59    2.72
  -7   0  -1    3.37    1.51
   0   7  -1    6.53    2.20
   0   7  -1    8.02    3.16
   7  -7  -1    5.14    1.17
   0  -7   1    7.92    2.41
   7   0   1    5.92    1.93
  -7   7   1    7.69    2.61
   0  -7   1   10.48    2.97
   7   0   1    4.98    1.72
   4  -7  -1   19.02    2.88
   3   4  -1   17.12    3.10
   4  -7  -1   14.91    3.06
   3   4  -1   14.83    2.86
   7  -3   1   21.65    2.58
  -4   7   1   13.09    3.51
   7  -3   1   22.76    2.93
  -3  -4   1   23.55    3.26
  -3  -4   1   23.76    3.74
   6   1  -1   28.86    3.90
   1  -7  -1   19.13    3.58
   6   1  -1   25.37    3.90
   1  -7  -1   15.59    3.34
  -6  -1   1   25.18    3.58
  -1   7   1   21.02    4.62
   7  -6   1   28.35    2.88
  -2  -7  -1   23.73    4.90
  -2  -7  -1   19.24    4.01
   9  -2  -1   13.46    2.96
   2   7   1   15.86    4.60
   7  -9   1   15.46    4.02
   2   7   1   18.81    4.03
  -1   9  -1    4.28    2.96
   8   1   1    1.98    1.84
   1  -9   1   -0.80    1.74
   8   1   1    9.73    2.88
   1  -9   1    0.72    1.81
   2   6  -1    0.62    1.17
   6  -8  -1    1.11    1.45
  -6   8   1    2.96    2.05
  -2  -6   1    4.09    2.17
  -2  -6   1    2.66    1.82
   8  -2   1    1.55    1.07
   8  -2   1    2.83    1.50
   3  -8  -1    0.27    0.91
   5   3  -1   -0.05    1.00
   3  -8  -1    0.70    1.18
   5   3  -1    0.75    1.29
  -5  -3   1    0.32    1.23
  -3   8   1   -0.11    1.15
   8  -5   1   -0.33    0.59
   8   0  -1    2.42    1.60
   8   0  -1   -1.10    1.18
   0  -8  -1   -0.01    1.54
   0  -8  -1   -0.53    1.49
   0   8   1   -0.68    1.21
   8  -8   1    1.49    0.99
   1   8  -1   10.02    3.99
   8  -9  -1    1.46    2.16
  -1  -8   1    2.24    2.14
  -1  -8   1    6.11    2.82
   9  -1   1    2.18    1.47
   4   5  -1    7.66    2.55
   5  -9  -1    5.61    2.23
   4   5  -1    3.01    1.86
  -4  -5   1    3.73    2.13
   9  -4   1    3.53    1.52
  -5   9   1    4.30    2.63
   7   2  -1    3.00    1.85
   2  -9  -1    0.70    1.58
   2  -9  -1    0.13    1.80
   7   2  -1    1.91    1.70
  -7  -2   1    2.84    2.02
  -2   9   1    4.81    3.06
   9  -7   1    3.44    1.02
   3   7  -1   12.24    3.50
   7 -10  -1    8.04    3.16
   3   7  -1    5.26    3.28
  -3  -7   1    4.43    2.89
  10  -3   1    7.76    2.31
   4 -10  -1   10.78    3.36
   6   4  -1   13.33    3.69
   6   4  -1   12.63    3.45
  -6  -4   1    4.57    2.49
  10  -6   1   12.75    2.20
  -4  10   1   11.53    3.99
   0  -1  -2   12.95    1.28
  -1   1  -2   11.12    0.80
   0  -1  -2   10.42    1.09
   1   0  -2   10.53    0.85
  -1   1  -2   13.24    1.03
   0  -1  -2    8.18    1.02
   1   0  -2   11.97    0.86
  -1   0   2   12.88    0.96
   0   1   2   12.19    1.16
   1  -1   2    9.81    0.81
  -1   0   2   11.55    0.80
   0   1   2   10.61    0.91
   1  -1   2    7.03    0.98
   1  -1   2   11.87    0.76
  -1   0   2   11.36    0.83
   1  -1   2   10.24    0.61
   0   2  -2    0.24    0.42
   2  -2  -2   -0.06    0.10
   0   2  -2    0.50    0.34
  -2   0  -2    0.23    0.39
  -2   0  -2    0.19    0.29
   2  -2  -2    0.46    0.58
  -2   0  -2    0.19    0.36
  -2   0  -2    0.13    0.32
   2  -2  -2    0.01    0.12
   0   2  -2   -0.24    0.28
   0   2  -2    0.00    0.30
   0   2  -2    0.52    0.50
   2   0   2    0.42    0.38
   0  -2   2    0.17    0.33
   0  -2   2   -0.07    0.20
   2   0   2   -0.39    0.28
  -2   2   2    0.16    0.62
   0  -2   2    0.49    0.40
   0  -2   2   -0.05    0.41
   2   0   2   -0.07    0.27
   0  -2   2    0.51    0.37
   2   0   2    0.17    0.31
  -2   3  -2    8.89    1.62
  -1  -2  -2    8.03    1.49
   3  -1  -2    8.65    1.06
   3  -1  -2   11.82    1.42
   3  -1  -2    9.54    1.00
  -2   3  -2    9.05    1.08
   3  -1  -2    8.36    1.00
  -1  -2  -2    7.82    1.44
  -1  -2  -2    7.43    1.30
   2  -3   2    9.85    1.23
   1   2   2    9.68    1.53
   1   2   2   10.55    1.60
   1   2   2    9.52    1.38
   2  -3   2    8.34    1.14
   2  -3   2    9.08    1.34
  -1   4  -2    4.32    1.05
  -1   4  -2    3.81    1.14
   4  -3  -2    3.42    0.42
  -3  -1  -2    1.62    0.86
  -3  -1  -2    5.38    1.19
  -1   4  -2    0.92    0.85
   3   1   2    3.65    0.96
  -4   3   2    2.69    1.13
   1  -4   2    3.25    1.09
   1  -4   2    1.82    0.93
   3   1   2    6.28    1.27
   1  -4   2    3.82    1.10
   3   1   2    4.25    1.16
   1  -3  -2   -0.14    0.32
   1  -3  -2   -0.37    0.26
   2   1  -2    0.13    0.28
   2   1  -2    0.41    0.47
   1  -3  -2    0.31    0.48
   1  -3  -2    0.25    0.53
   2   1  -2    0.00    0.19
   2   1  -2   -0.06    0.28
   2   1  -2   -0.41    0.24
  -3   2  -2    0.11    0.16
   3  -2   2   -0.82    0.24
   3  -2   2   -0.12    0.26
  -1   3   2    0.14    0.34
  -2  -1   2   -0.10    0.33
  -2  -1   2    0.28    0.34
   3  -2   2    0.01    0.19
   3  -2   2    0.15    0.34
  -1   3   2    0.37    0.70
  -1   3   2   -0.04    0.27
  -2  -1   2   -0.13    0.23
   5  -2  -2    4.69    0.95
  -2  -3  -2    2.10    1.17
  -3   5  -2    3.51    0.90
  -3   5  -2    5.40    1.81
  -2  -3  -2    4.00    1.20
   5  -2  -2    3.90    1.03
   3  -5   2    4.46    1.28
   3  -5   2    2.73    1.07
   2   3   2    2.08    1.09
   2   3   2    3.63    1.22
  -4  -2  -2   14.22    2.31
  -2   6  -2   25.59    4.29
  -4  -2  -2   19.66    3.02
   6  -4  -2   14.92    2.19
   6  -4  -2   16.75    1.65
   2  -6   2   12.78    2.50
   4   2   2   21.89    2.97
   2  -6   2   11.37    2.45
   4   2   2   15.69    2.75
   2  -6   2   16.26    2.90
   1   3  -2   16.25    2.28
  -4   1  -2   21.63    1.78
   1   3  -2   19.77    2.52
   3  -4  -2   19.34    1.67
  -4   1  -2   20.64    1.60
  -4   1  -2   24.90    2.38
   3  -4  -2   20.56    1.68
   3  -4  -2   18.29    1.65
  -1  -3   2   24.38    2.50
  -3   4   2   20.35    3.28
   4  -1   2   22.33    2.08
   4  -1   2   21.58    2.33
  -1  -3   2   18.88    2.67
   0  -4  -2   15.28    2.37
   0  -4  -2   14.02    2.23
   4   0  -2   14.65    1.57
   4   0  -2   16.54    2.11
  -4   4  -2   11.88    2.12
   0  -4  -2   12.66    2.22
   4   0  -2   15.77    2.07
   0   4   2   15.17    2.20
  -4   0   2   17.48    1.83
   4  -4   2   12.39    2.19
  -4   0   2   13.72    1.83
   4  -4   2   10.97    1.59
   0   4   2   13.76    2.76
   0   4   2   10.91    2.09
   4  -4   2   12.40    1.73
   7  -3  -2    4.28    1.16
  -3  -4  -2    6.11    2.08
  -4   7  -2    5.52    2.38
   7  -3  -2    4.15    1.29
  -3  -4  -2    6.47    1.88
   4  -7   2    5.69    1.69
   4  -7   2    7.47    1.93
   3   4   2    7.01    1.98
   3   4   2    5.84    1.87
   8  -5  -2    3.36    1.34
  -3   8  -2    4.29    2.53
  -5  -3  -2    9.12    2.15
  -5  -3  -2    4.11    2.01
   8  -5  -2    5.42    1.10
   5   3   2    5.40    2.07
   3  -8   2    8.22    2.53
   5   3   2    7.75    2.14
   3  -8   2    9.28    2.57
   0   5  -2    3.25    1.24
   0   5  -2    0.81    0.97
  -5   0  -2    3.92    1.24
  -5   0  -2    4.18    1.24
   5  -5  -2    4.29    0.81
   5  -5  -2    3.75    0.78
  -5   5   2    6.97    2.16
   0  -5   2    4.05    1.57
   5   0   2    3.30    1.21
   0  -5   2    4.17    1.38
   5   0   2    5.48    1.40
   3   2  -2    0.59    0.54
   3   2  -2   -0.65    0.54
   3   2  -2   -0.07    0.40
   2  -5  -2   -0.16    0.58
   2  -5  -2   -0.70    0.24
   3   2  -2    0.61    0.52
   2  -5  -2   -0.74    0.36
  -2   5   2   -0.48    0.64
   5  -3   2    0.34    0.42
  -3  -2   2    0.34    0.55
  -3  -2   2   -0.07    0.56
   5  -3   2    0.32    0.37
  -2   5   2    0.55    0.56
  -1  -5  -2    5.38    1.88
  -5   6  -2    3.37    1.73
   6  -1  -2    7.44    1.73
   6  -1  -2    4.77    1.36
  -1  -5  -2    7.20    2.07
   5  -6   2    7.06    1.57
   1   5   2    5.63    1.66
   1   5   2    4.81    1.75
  -5   9  -2    8.66    3.18
   9  -4  -2    8.52    1.89
  -4  -5  -2   12.59    3.56
   4   5   2    8.37    2.62
   4   5   2    9.66    2.71
   5  -9   2   10.60    3.06
  10  -6  -2    1.03    0.77
  -6  -4  -2    1.46    2.14
  -4  10  -2    0.28    2.35
   6   4   2    2.24    2.09
   4 -10   2    2.31    2.20
   6   4   2    3.33    2.41
   4 -10   2    4.05    3.76
   7  -6  -2   -0.51    0.91
  -1   7  -2    4.54    2.31
  -6  -1  -2    1.56    1.23
   7  -6  -2    1.60    0.58
   6   1   2    1.01    1.12
   1  -7   2    0.86    1.20
   6   1   2    0.35    1.01
   1  -7   2    1.91    1.42
   4  -6  -2    1.27    1.11
   2   4  -2    0.62    0.75
   4  -6  -2   -0.51    0.52
   2   4  -2   -0.26    0.49
   4  -6  -2    0.22    0.54
  -4   6   2    0.21    1.10
   6  -2   2    0.31    0.61
   6  -2   2   -0.32    0.45
  -2  -4   2    0.17    0.84
  -2  -4   2    0.91    0.99
   5   1  -2    4.25    1.48
   1  -6  -2    1.97    1.20
   5   1  -2    4.18    1.53
   1  -6  -2    1.44    1.03
   6  -5   2    1.62    0.84
   6  -5   2    2.56    0.83
  -1   6   2    4.17    1.42
  -1   6   2    4.43    2.16
  -5  -1   2    4.32    1.43
  -6   8  -2    7.26    2.51
   8  -2  -2    9.60    2.15
  -2  -6  -2    1.88    1.56
   8  -2  -2    3.16    1.46
  -2  -6  -2    6.46    2.49
   6  -8   2    5.42    1.73
   2   6   2    2.13    1.57
   2   6   2    3.07    2.45
  -2   9  -2   10.97    4.03
  -7  -2  -2   11.45    2.95
   2  -9   2    6.23    2.86
   7   2   2   15.56    3.38
   2  -9   2    9.50    3.29
   7   2   2   18.17    3.92
   1   6  -2   21.21    3.69
   1   6  -2   18.87    3.46
   7  -1   2   21.06    3.26
  -1  -6   2   21.94    3.58
  -1  -6   2   22.19    4.04
   7  -1   2   26.11    3.29
  -6   7   2   22.58    4.41
   3  -7  -2   13.52    2.86
   4   3  -2   22.86    3.52
   3  -7  -2    9.72    2.27
   4   3  -2   19.71    3.23
  -3   7   2   12.88    3.47
   7  -4   2   17.55    2.06
   7  -4   2   18.70    2.57
  -4  -3   2   22.87    3.78
  -4  -3   2   16.95    2.43
   0  -7  -2   11.75    3.02
   7   0  -2    8.54    2.30
   7   0  -2   12.88    2.70
   0  -7  -2    8.82    2.73
   0   7   2    6.17    2.80
   7  -7   2   12.54    2.15
  10  -3  -2    5.29    1.99
  -3  -7  -2    1.67    2.29
   3   7   2    0.96    2.42
   7 -10   2    0.80    2.17
   8  -8  -2    2.66    2.01
   0   8  -2    3.51    2.68
   8   0   2    7.28    2.28
   8   0   2    6.78    2.29
   0  -8   2    1.00    1.93
   0  -8   2    9.01    2.89
   3   5  -2    4.02    1.87
   5  -8  -2    3.76    1.88
   3   5  -2    2.61    1.47
  -5   8   2    1.27    1.71
  -3  -5   2    5.40    1.65
   8  -3   2    1.73    1.09
  -3  -5   2    2.97    1.87
   6   2  -2    0.45    1.15
   6   2  -2   -0.08    1.05
   2  -8  -2    0.17    1.32
   2  -8  -2   -0.22    1.19
   8  -6   2   -0.11    0.70
  -2   8   2    0.32    1.94
  -6  -2   2   -0.57    0.84
  -1  -8  -2    3.81    2.63
  -1  -8  -2    0.06    1.76
   9  -1  -2    4.86    2.06
   9  -1  -2    2.67    1.71
   8  -9   2    4.63    1.57
   1   8   2    2.90    2.66
   2   7  -2    0.42    1.15
   7  -9  -2    0.32    1.62
  -7   9   2   -2.28    1.59
   9  -2   2   -0.70    1.04
  -2  -7   2    2.03    1.94
   4  -9  -2   -0.39    1.31
   4  -9  -2    1.23    1.58
   5   4  -2   -0.17    1.13
   5   4  -2    2.58    1.68
   9  -5   2    0.16    0.97
  -4   9   2    1.07    2.06
  -5  -4   2    0.89    1.85
   8   1  -2    0.76    1.52
   1  -9  -2    3.42    2.38
   1  -9  -2    2.21    2.23
   8   1  -2    2.42    1.90
  -1   9   2    2.32    2.30
   9  -8   2    1.33    0.96
   4   6  -2   12.52    3.31
   6 -10  -2    8.24    3.01
  -4  -6   2    6.15    2.83
  -6  10   2    4.55    3.38
  10  -4   2    9.44    2.63
   7   3  -2   13.75    3.69
   3 -10  -2    9.19    3.28
   3 -10  -2    8.57    2.88
   7   3  -2    6.84    2.66
  10  -7   2    9.14    1.81
  -3  10   2    8.31    4.01
   0   0  -3   -1.44    0.07
   0   0  -3   -1.44    0.11
   0   0  -3   -1.38    0.08
   0   0  -3   -0.66    0.27
   0   0   3   -1.43    0.10
   0   0   3   -1.15    0.16
   0   0   3   -0.48    0.27
   0   0   3   -1.37    0.13
  -1   2  -3  678.79   34.56
  -1  -1  -3  726.75   34.87
  -1  -1  -3  738.56   35.01
   2  -1  -3  730.30   35.23
  -1   2  -3  695.36   34.51
  -1  -1  -3  720.12   34.88
   2  -1  -3  721.83   34.21
  -1   2  -3  740.10   34.94
  -1  -1  -3  679.41   34.88
   2  -1  -3  710.03   34.16
   1  -2   3  685.35   34.42
   1   1   3  760.62   34.91
   1   1   3  694.67   34.81
   1   1   3  705.61   34.91
   1  -2   3  747.45   34.98
   1  -2   3  719.96   34.67
   1   1   3  734.14   34.95
   1   1  -3  536.17   27.04
   1  -2  -3  486.62   27.12
   1  -2  -3  527.28   27.90
   1   1  -3  578.61   27.27
   1   1  -3  548.27   27.11
   1   1  -3  573.69   27.31
   1   1  -3  525.14   27.03
   1  -2  -3  515.75   26.86
  -2   1  -3  574.03   26.95
  -2   1  -3  557.23   27.00
   1  -2  -3  554.52   27.00
  -2   1  -3  609.38   26.58
  -1   2   3  541.21   26.79
   2  -1   3  552.81   26.54
  -1   2   3  550.83   26.92
   2  -1   3  561.74   27.14
  -1  -1   3  570.64   27.23
  -1  -1   3  543.92   27.04
  -1  -1   3  567.68   26.67
  -1   2   3  534.92   27.90
  -1  -1   3  554.90   27.29
  -1  -1   3  626.65   27.16
   2  -1   3  529.72   27.07
   2  -1   3  588.99   27.17
   4  -2  -3  379.86   17.35
   4  -2  -3  342.18   17.31
  -2   4  -3  352.15   18.91
  -2   4  -3  359.33   17.93
   4  -2  -3  388.90   17.27
   4  -2  -3  348.78   18.09
  -2  -2  -3  331.35   18.45
  -2  -2  -3  349.12   18.29
   2  -4   3  347.24   18.38
   2  -4   3  331.10   17.84
   2  -4   3  357.58   18.39
   2   2   3  353.28   18.51
   2   2   3  347.46   18.34
  -3   0  -3   -0.17    0.43
  -3   0  -3    0.09    0.56
   0   3  -3   -0.08    0.51
   3  -3  -3    2.88    0.43
   0   3  -3    0.82    0.59
   0   3  -3   -0.56    0.34
   3  -3  -3    0.11    0.23
  -3   0  -3    0.07    0.47
   0  -3   3    0.06    0.43
   3   0   3    0.09    0.41
   3   0   3    1.05    0.63
   3   0   3    5.83    1.21
   0  -3   3   -0.71    0.48
   0  -3   3    0.17    0.66
  -3   3   3   -0.06    0.82
   0  -3  -3    0.77    0.72
   3   0  -3   -0.45    0.23
  -3   3  -3   -0.17    0.52
   0  -3  -3    0.57    0.65
   3   0  -3    0.00    0.38
   3   0  -3   -0.07    0.43
   0  -3  -3    7.76    1.47
   3   0  -3   -0.33    0.30
  -3   3  -3    0.59    0.32
   0   3   3    0.39    0.75
   0   3   3    0.55    0.64
  -3   0   3    1.26    0.53
   3  -3   3   -0.16    0.31
  -3   0   3    0.20    0.45
   0   3   3    0.80    0.82
   0   3   3   -0.26    0.46
   3  -3   3    3.87    0.98
   3  -3   3    1.72    0.50
   6  -3  -3    1.02    0.53
  -3  -3  -3    3.17    1.45
  -3   6  -3    1.20    1.29
  -3   6  -3    1.13    0.77
  -3  -3  -3    0.67    0.83
   6  -3  -3    0.68    0.69
   3   3   3    0.01    0.73
   3   3   3    0.68    0.75
   3  -6   3   10.68    2.05
  -1   5  -3  314.95   17.57
  -1   5  -3  357.56   17.58
  -4  -1  -3  327.69   17.61
   5  -4  -3  323.21   15.89
  -1   5  -3  325.00   18.68
  -4  -1  -3  325.52   17.25
   1  -5   3  328.19   17.96
  -5   4   3  318.50   18.31
   1  -5   3  343.00   17.79
   1  -5   3  310.53   17.60
   1  -5   3  320.80   17.78
   4   1   3  326.51   17.68
   4   1   3  342.18   17.34
  -4   2  -3  480.76   22.89
   2   2  -3  474.61   24.09
   2  -4  -3  490.17   23.94
   2   2  -3  512.30   24.60
   2   2  -3  456.86   24.06
   2  -4  -3  475.42   24.36
   2   2  -3  440.28   24.08
   2  -4  -3  464.31   23.76
  -2   4   3  454.92   25.38
  -2   4   3  472.73   23.59
   4  -2   3  498.67   23.94
  -2  -2   3  470.18   23.51
   4  -2   3  508.44   23.25
  -2  -2   3  499.34   24.43
   4  -2   3  454.56   23.79
  -1  -4  -3  313.43   17.58
   5  -1  -3  340.04   17.24
   5  -1  -3  365.55   16.64
  -4   5  -3  320.86   17.92
  -1  -4  -3  331.45   17.94
   5  -1  -3  325.87   16.99
   4  -5   3  320.48   17.20
   1   4   3  318.19   17.63
   4  -5   3  328.14   16.67
   1   4   3  296.76   17.60
  -4  -4  -3  145.37   10.31
   8  -4  -3  144.06    8.85
   8  -4  -3  135.61    8.11
  -4   8  -3  141.65   10.82
   4   4   3  141.53    9.91
   4  -8   3  143.12    9.71
   4  -8   3  143.88   10.34
   4   4   3  138.95    9.69
  -2   7  -3  124.15   10.12
  -5  -2  -3  136.10    9.11
  -5  -2  -3  136.26    8.49
   7  -5  -3  127.61    6.87
   7  -5  -3  140.99    8.45
   5   2   3  129.68    9.07
   5   2   3  132.29    8.71
   2  -7   3  131.89    9.16
   2  -7   3  143.55    9.44
   4  -5  -3  248.99   12.72
   4  -5  -3  245.02   12.74
   1   4  -3  252.46   13.86
   1   4  -3  238.27   13.73
  -5   1  -3  238.22   12.96
  -5   1  -3  264.96   12.82
  -1  -4   3  237.69   13.42
  -4   5   3  236.24   14.99
  -1  -4   3  250.44   14.17
   5  -1   3  239.70   13.48
   5  -1   3  263.54   13.05
   4   1  -3  270.86   14.03
   1  -5  -3  240.68   13.77
   1  -5  -3  257.41   14.02
   4   1  -3  274.35   12.48
   1  -5  -3  231.36   13.90
   4   1  -3  252.05   13.70
   4   1  -3  238.60   13.51
   5  -4   3  225.65   13.14
  -1   5   3  228.59   14.95
   5  -4   3  273.79   13.86
  -1   5   3  242.83   13.53
   5  -4   3  234.55   12.41
  -4  -1   3  242.60   13.46
  -2  -5  -3  134.94    8.88
   7  -2  -3  126.58    7.88
  -2  -5  -3  125.35    9.15
   7  -2  -3  136.13    8.23
  -5   7  -3  120.91    9.16
   2   5   3  125.10    8.84
   2   5   3  116.52    8.58
   5  -7   3  133.03    8.48
   5  -7   3  126.52    8.30
  10  -5  -3   55.03    4.22
  -5  -5  -3   61.48    7.99
   5   5   3   51.16    6.87
  -6  -3  -3    0.97    1.77
  -3   9  -3   -1.00    1.69
   3  -9   3    0.84    1.58
   6   3   3    1.97    1.69
   3  -9   3    1.61    1.64
   6   3   3   -0.48    1.30
   0   6  -3    1.19    1.08
  -6   0  -3    1.03    0.99
   0   6  -3    1.59    1.13
   6   0   3    1.83    0.95
   0  -6   3    4.93    1.86
   0  -6   3    3.18    1.27
  -6   6   3    1.96    1.59
   6   0   3    1.69    1.18
   3   3  -3    4.52    1.56
   3  -6  -3    0.99    1.13
   3  -6  -3   -0.25    0.64
   3   3  -3    1.30    0.94
   3  -6  -3    1.35    0.94
  -3   6   3    0.75    1.23
  -3  -3   3    2.38    0.94
  -3  -3   3    2.68    1.22
   6  -3   3    5.15    1.27
  -3   6   3    0.65    0.63
   0  -6  -3    0.31    1.13
   0  -6  -3    0.23    1.02
   6   0  -3    0.44    0.85
  -6   6  -3    0.76    0.92
   6   0  -3    1.27    1.01
  -6   0   3    0.13    0.79
   0   6   3    0.62    1.04
   0   6   3    3.12    1.99
  -3  -6  -3   -0.25    1.48
   9  -3  -3   -0.29    0.71
  -3  -6  -3   -1.67    1.36
   9  -3  -3   -0.59    1.15
   6  -9   3    1.79    1.58
   3   6   3    0.95    1.42
   3   6   3   -0.85    1.66
  -1   8  -3  110.43   12.17
  -7  -1  -3  112.36    8.14
   7   1   3  112.99    8.70
   7   1   3  118.59    8.28
   1  -8   3  119.29    9.33
   1  -8   3  107.77    8.77
   5  -7  -3  209.22   10.69
   2   5  -3  164.32   11.35
   5  -7  -3  166.03   11.49
   2   5  -3  171.33   11.49
  -5   7   3  175.69   12.94
   7  -2   3  185.26   11.17
   7  -2   3  198.17   10.52
  -2  -5   3  184.95   12.07
  -2  -5   3  192.83   11.26
   5   2  -3  191.61   11.48
   2  -7  -3  177.78   11.59
   2  -7  -3  193.65   11.40
   5   2  -3  188.65   11.20
  -5  -2   3  171.18   11.02
   7  -5   3  158.72   10.12
  -2   7   3  177.68   12.99
   8  -1  -3  111.30    8.04
  -1  -7  -3  119.14    9.32
  -1  -7  -3  103.91    8.68
   8  -1  -3  113.68    8.08
   7  -8   3  107.43    7.54
   1   7   3  120.02   10.49
   1   7  -3   61.43    7.34
   7  -8  -3   72.50    7.88
  -1  -7   3   76.16    7.79
  -7   8   3   65.24    8.24
   8  -1   3   75.09    6.39
  -1  -7   3   78.74    8.70
   8  -1   3   89.29    6.17
   4   4  -3   94.97    7.63
   4  -8  -3   81.15    8.39
   4  -8  -3   99.28    7.05
   4   4  -3   88.55    7.29
   8  -4   3   90.23    6.62
  -4   8   3  113.88   11.39
  -4  -4   3  108.58    8.03
   1  -8  -3   79.34    8.29
   7   1  -3   82.44    6.64
   1  -8  -3   65.47    7.80
   7   1  -3   80.73    6.83
   8  -7   3   75.21    5.51
  -1   8   3   78.67   10.12
   6  -9  -3   -0.39    1.30
   3   6  -3    0.33    1.29
  -6   9   3   -1.47    2.10
  -3  -6   3    0.27    1.68
   9  -3   3    0.59    1.10
   6   3  -3    0.15    1.21
   3  -9  -3    0.41    1.52
   3  -9  -3    1.93    1.70
   6   3  -3    1.64    1.56
   9  -6   3    3.74    1.42
  -3   9   3    1.59    2.35
  -6  -3   3    2.08    1.79
   5   5  -3   73.32    8.55
   5   5  -3   57.05    7.54
   5 -10  -3   65.36    8.26
  10  -5   3   71.20    5.84
  -5  10   3   72.71   10.08
  -5  -5   3   71.88    8.56
   0   1  -4    0.13    0.28
  -1   0  -4    0.30    0.25
  -1   0  -4    0.11    0.28
   1  -1  -4    0.56    0.25
   1  -1  -4    0.32    0.26
   0   1  -4   -0.01    0.16
   1  -1  -4   -0.39    0.28
   1  -1  -4    0.24    0.26
  -1   0  -4    0.05    0.27
   0   1  -4    0.27    0.26
  -1   0  -4    0.52    0.39
  -1   1   4   -0.07    0.20
   0  -1   4    0.10    0.24
  -1   1   4    1.22    0.59
   1   0   4    0.64    0.39
  -1   1   4    0.51    0.19
  -1   1   4    0.16    0.23
   1   0   4    0.42    0.35
   0  -1   4    0.35    0.34
   0  -1   4    0.11    0.18
   1   0   4    0.33    0.31
   1   0   4    0.20    0.31
  -2  -1  -4    4.36    1.03
  -1   3  -4    4.53    0.96
  -2  -1  -4    3.50    1.03
  -2  -1  -4    4.79    1.15
  -1   3  -4    4.64    0.98
  -2  -1  -4    4.13    1.02
  -1   3  -4    3.85    0.92
   1  -3   4    3.76    1.07
   2   1   4    5.08    1.12
  -3   2   4    3.76    1.20
   2   1   4    4.02    1.01
   1  -3   4    4.02    0.88
   2   1   4    2.18    0.84
   1  -3   4    4.18    1.09
   2   0  -4    9.45    1.21
   0  -2  -4    5.48    1.07
  -2   2  -4    9.95    1.40
   2   0  -4    6.79    1.01
  -2   2  -4    6.01    0.89
   2   0  -4    9.45    1.27
  -2   2  -4    7.89    0.89
   2   0  -4    8.37    1.07
   0  -2  -4    6.68    1.25
   2   0  -4    7.49    1.00
   0  -2  -4    6.56    1.18
   0  -2  -4    8.48    1.36
   2  -2   4    6.45    0.47
  -2   0   4    8.59    1.02
   0   2   4    7.42    1.18
   0   2   4   10.38    1.82
   2  -2   4    6.92    1.31
  -2   0   4    8.77    1.31
  -2   0   4    8.11    1.03
   2  -2   4    7.68    1.09
   0   2   4    7.12    1.20
   0   2   4   10.27    1.42
   5  -3  -4    4.62    0.66
   5  -3  -4    4.89    1.35
   5  -3  -4    5.28    0.71
  -3  -2  -4    4.15    1.29
  -3  -2  -4    3.80    1.40
  -2   5  -4    3.81    1.20
   5  -3  -4    4.96    0.61
  -2   5  -4    7.10    1.96
   2  -5   4    3.77    1.41
   3   2   4    6.59    1.64
   2  -5   4    3.87    1.35
   3   2   4    5.66    1.47
   1   2  -4    0.50    0.52
   1   2  -4    0.12    0.33
  -3   1  -4    0.36    0.45
   2  -3  -4    0.42    0.50
  -3   1  -4   -0.07    0.22
   1   2  -4   -0.31    0.23
   1   2  -4   -0.03    0.38
   2  -3  -4    0.01    0.27
   2  -3  -4    0.08    0.30
  -2   3   4   -0.05    0.24
  -1  -2   4    0.42    0.50
   3  -1   4    1.13    0.53
  -1  -2   4    0.31    0.51
  -1  -2   4    0.18    0.31
   3  -1   4    0.77    0.52
  -2   3   4    0.50    0.65
  -1  -2   4   -0.14    0.22
   3  -1   4   -0.30    0.37
   3  -1   4    0.28    0.28
  -1  -3  -4    6.26    1.51
   4  -1  -4    5.36    1.00
   4  -1  -4    5.75    1.01
   4  -1  -4    5.19    1.16
  -3   4  -4    5.43    0.98
  -1  -3  -4    6.84    1.65
   4  -1  -4    7.83    0.98
  -3   4  -4    5.23    1.43
  -1  -3  -4    4.62    1.27
   3  -4   4    6.39    0.99
   3  -4   4    7.22    1.48
   1   3   4    6.04    1.51
   1   3   4    4.85    1.33
   7  -4  -4    9.63    2.05
  -4  -3  -4   10.20    2.51
   7  -4  -4    9.58    1.30
  -4  -3  -4    7.67    2.08
  -3   7  -4    9.08    2.77
   4   3   4   12.05    2.68
   3  -7   4    8.11    2.25
   4   3   4    9.50    2.29
   3  -7   4    6.50    2.02
   4  -4  -4    4.08    0.63
  -4   0  -4    6.11    1.47
   0   4  -4    4.14    1.16
  -4   0  -4    8.64    1.58
   0   4  -4    5.13    1.42
  -4   4   4    4.22    1.74
   4   0   4    5.56    1.39
   4   0   4    9.06    1.50
   0  -4   4    4.94    1.47
   0  -4   4    6.43    1.43
   0  -4   4    8.23    1.77
   0  -4   4    6.60    1.65
   1  -4  -4    0.28    0.63
   3   1  -4   -0.28    0.40
   1  -4  -4    0.25    0.55
   3   1  -4    0.46    0.56
   3   1  -4    0.25    0.48
   3   1  -4    0.45    0.58
   1  -4  -4    0.06    0.61
  -1   4   4    2.22    1.32
  -3  -1   4    1.19    0.74
   4  -3   4    0.59    0.64
  -3  -1   4    0.50    0.26
   4  -3   4   -0.21    0.17
  -1   4   4    0.88    0.65
  -3  -1   4    0.00    0.51
   4  -3   4    0.88    0.62
  -2  -4  -4    1.79    1.14
   6  -2  -4    0.97    0.67
  -4   6  -4    0.37    1.16
   6  -2  -4   -0.08    0.66
  -2  -4  -4   -0.40    0.77
   4  -6   4    0.27    0.85
   2   4   4    1.01    0.95
   2   4   4    1.73    1.23
   4  -6   4   -0.28    0.97
  -4   9  -4    1.22    2.22
  -5  -4  -4   -0.33    1.61
   9  -5  -4    2.23    0.90
   5   4   4    2.81    1.82
   4  -9   4   -0.61    1.41
   5   4   4    2.68    1.70
   4  -9   4    2.46    1.72
   6  -5  -4    6.75    0.56
  -5  -1  -4    7.23    1.92
  -1   6  -4    8.23    1.91
  -5  -1  -4    4.38    1.48
  -1   6  -4    5.15    1.72
  -1   6  -4    6.90    2.42
   1  -6   4    9.54    2.25
  -6   5   4    4.82    1.88
   5   1   4    5.91    1.76
   1  -6   4    8.70    2.24
   5   1   4    5.15    1.50
  -5   2  -4   15.04    1.18
   3  -5  -4   13.09    1.88
  -5   2  -4   12.92    1.09
   2   3  -4   12.37    2.17
   2   3  -4   11.75    2.12
   3  -5  -4   14.59    2.00
   3  -5  -4   14.01    2.35
  -3   5   4   14.72    3.21
   5  -2   4   14.41    2.11
  -2  -3   4   18.21    2.11
   5  -2   4   13.79    1.60
  -2  -3   4   13.20    2.36
   5   0  -4   19.23    2.70
   0  -5  -4   17.86    3.03
   5   0  -4   16.24    1.22
   5   0  -4   15.33    2.48
  -5   5  -4   16.27    2.31
   5   0  -4   14.79    2.32
   0  -5  -4   16.13    2.79
   0  -5  -4   11.95    2.51
   5  -5   4   11.14    1.45
   0   5   4   13.04    3.16
  -5   0   4   12.66    1.68
  -5   0   4   15.19    1.98
   5  -5   4   15.61    2.29
   0   5   4   11.09    2.19
   8  -3  -4    5.49    1.75
  -5   8  -4    6.55    2.44
  -3  -5  -4    2.93    1.91
  -3  -5  -4   11.99    2.82
   8  -3  -4    7.90    1.70
   5  -8   4    6.97    2.08
   3   5   4   10.56    2.63
   5  -8   4    5.77    2.24
   3   5   4    4.48    1.95
  -6  -2  -4    5.08    1.90
  -2   8  -4    0.16    1.96
   8  -6  -4    1.79    1.40
   6   2   4    1.37    1.29
   6   2   4    2.46    1.60
   2  -8   4    1.14    1.48
   2  -8   4    0.44    1.27
  -6   1  -4   -0.79    0.59
   5  -6  -4   -0.03    0.43
   1   5  -4    0.42    0.74
   5  -6  -4   -0.22    0.68
   5  -6  -4    0.59    0.60
   1   5  -4    0.85    0.91
  -1  -5   4   -0.40    0.74
   6  -1   4    0.36    0.59
  -5   6   4   -1.35    0.92
   6  -1   4    0.11    0.77
  -1  -5   4   -0.53    0.78
   2  -6  -4    3.21    1.32
   4   2  -4    3.81    1.43
   4   2  -4    3.48    1.28
   2  -6  -4    4.60    1.51
  -4  -2   4    5.45    1.61
   6  -4   4    2.51    1.12
   6  -4   4    5.15    0.80
  -2   6   4    4.82    2.16
  -4  -2   4    2.75    0.75
  -2   6   4    6.18    1.64
   7  -1  -4    6.62    2.00
  -6   7  -4    7.87    2.12
   7  -1  -4    6.46    1.78
  -1  -6  -4    8.87    2.54
  -1  -6  -4    7.20    2.36
   6  -7   4    9.21    2.13
   1   6   4    3.91    2.35
  -4  -6  -4   12.08    3.94
  10  -4  -4    7.38    1.92
   6 -10   4    4.82    2.57
   4   6   4    6.98    2.64
   4   6   4    3.58    2.69
   0   7  -4    4.72    1.94
   7  -7  -4    6.52    2.07
   0   7  -4    7.49    2.88
  -7   0  -4    5.44    1.69
   0  -7   4    3.65    1.93
   7   0   4    7.20    2.18
   0  -7   4    3.59    1.98
  -7   7   4    2.88    1.99
   7   0   4    8.47    2.12
   3   4  -4    1.92    1.36
   4  -7  -4    2.67    1.21
   3   4  -4    2.68    1.27
   4  -7  -4    2.57    1.50
  -4   7   4   -0.49    1.31
  -3  -4   4    0.74    1.03
   7  -3   4    2.74    1.28
  -3  -4   4    2.36    1.52
   7  -3   4    2.36    0.88
   1  -7  -4   -0.22    1.09
   6   1  -4    0.91    1.04
   6   1  -4    0.51    1.08
   1  -7  -4   -0.02    0.75
  -6  -1   4    0.23    1.05
  -1   7   4   -0.85    0.98
   7  -6   4    1.77    1.00
   9  -2  -4   -1.92    1.10
  -2  -7  -4   -0.98    1.79
   9  -2  -4    0.04    1.03
  -2  -7  -4   -2.27    1.46
   7  -9   4    1.53    1.26
   2   7   4    0.41    1.34
  -1   9  -4    3.35    3.13
   9  -8  -4    4.13    2.23
   1  -9   4    6.02    2.86
   8   1   4    5.71    2.46
   8   1   4    3.56    2.00
   1  -9   4    4.71    2.48
   2   6  -4    9.24    3.72
   2   6  -4    6.67    2.23
   6  -8  -4   13.97    3.17
  -2  -6   4   11.32    3.16
   8  -2   4   12.59    2.89
  -2  -6   4   12.51    2.87
  -6   8   4    7.32    3.08
   5   3  -4   20.82    3.60
   5   3  -4   17.94    3.41
   3  -8  -4    7.49    2.49
   3  -8  -4   12.83    2.82
  -3   8   4   16.94    4.50
   8  -5   4    9.62    2.16
  -5  -3   4   18.64    3.54
   0  -8  -4   14.55    3.71
   8   0  -4   17.19    3.55
   0  -8  -4   10.96    3.31
   8   0  -4    8.35    2.44
   8  -8   4   10.84    2.25
   0   8   4    8.08    3.61
   8  -9  -4    1.56    1.82
   1   8  -4   -0.73    1.40
   1   8  -4   -0.85    1.84
   9  -1   4    0.79    1.49
  -1  -8   4    0.62    1.75
   4   5  -4    1.97    1.66
   5  -9  -4    1.60    1.89
   4   5  -4    2.92    1.99
   9  -4   4   -0.79    0.98
  -4  -5   4    0.48    1.55
  -5   9   4    0.93    2.22
   7   2  -4    7.50    2.53
   7   2  -4    5.65    2.32
   2  -9  -4    1.82    1.83
   2  -9  -4    4.95    2.64
  -2   9   4    1.91    2.48
   9  -7   4    5.03    1.69
   6   4  -4    3.10    2.25
   4 -10  -4   -2.33    1.57
   6   4  -4    1.63    1.79
  -4  10   4   -0.60    2.15
  10  -6   4    0.46    1.16
  -6  -4   4    2.18    2.22
   1   0  -5    1.64    0.56
  -1   1  -5    0.67    0.23
   0  -1  -5    0.28    0.32
   1   0  -5    0.92    0.27
  -1   1  -5    0.60    0.40
  -1   1  -5    1.19    0.61
   1   0  -5    1.42    0.57
   1   0  -5    1.15    0.43
   0  -1  -5    0.69    0.42
   1   0  -5    0.88    0.40
   0  -1  -5    0.73    0.54
  -1   1  -5    1.30    0.29
   0  -1  -5    0.80    0.50
   0   1   5    1.38    0.73
   1  -1   5    0.62    0.35
  -1   0   5    0.68    0.27
   0   1   5    1.23    0.57
  -1   0   5    0.94    0.41
   1  -1   5    0.79    0.61
   0   1   5    1.29    0.52
   0   1   5    0.68    0.43
   1  -1   5   -0.03    0.26
  -1   0   5    0.91    0.40
   0   2  -5    1.11    0.53
  -2   0  -5    0.86    0.51
   2  -2  -5    1.36    0.44
   2  -2  -5    1.57    0.55
   2  -2  -5    1.55    0.81
  -2   0  -5    0.79    0.58
   0   2  -5    1.54    0.60
   0   2  -5    1.47    0.62
  -2   0  -5    2.30    0.59
   2  -2  -5    1.10    0.33
  -2   0  -5    1.12    0.60
   0   2  -5    1.77    0.57
   0  -2   5    1.16    0.58
   2   0   5    2.10    0.56
   0  -2   5    1.62    0.52
   2   0   5    1.40    0.71
   0  -2   5    0.32    0.36
   0  -2   5    1.75    0.75
  -2   2   5    1.18    0.91
   2   0   5    0.51    0.54
   2   0   5    1.09    0.60
   3  -1  -5    4.35    0.78
  -2   3  -5    4.13    1.03
   3  -1  -5    5.89    0.86
   3  -1  -5    3.53    0.69
  -2   3  -5    4.20    0.86
  -1  -2  -5    4.33    1.20
  -1  -2  -5    4.00    1.03
   3  -1  -5    2.97    0.54
  -2   3  -5    5.57    0.87
   3  -1  -5    1.94    0.75
  -2   3  -5    2.12    0.66
  -1  -2  -5    3.60    1.05
   2  -3   5    3.68    0.62
   1   2   5    2.00    1.06
   2  -3   5    3.46    1.10
   1   2   5    3.42    1.01
   1   2   5    4.84    1.18
  -1   4  -5   10.70    1.75
  -1   4  -5    9.70    1.68
  -1   4  -5   12.97    1.90
  -3  -1  -5   10.03    1.97
   4  -3  -5    9.97    0.67
  -3  -1  -5   10.30    1.79
   1  -4   5   10.15    1.95
  -4   3   5   14.29    2.71
   3   1   5   11.02    1.75
   1  -4   5   10.94    2.05
   3   1   5   14.12    2.15
   2   1  -5    2.81    0.81
   2   1  -5    2.14    0.86
   1  -3  -5    2.71    0.83
   1  -3  -5    4.40    1.05
   1  -3  -5    3.04    0.97
   2   1  -5    2.13    0.73
   2   1  -5    2.37    0.76
  -3   2  -5    3.69    0.74
  -2  -1   5    3.13    0.39
  -1   3   5    4.69    0.94
  -2  -1   5    4.07    1.05
  -1   3   5    2.94    0.82
   3  -2   5    3.48    1.04
   3  -2   5    2.28    0.79
   3  -2   5    2.80    0.57
  -2  -1   5    3.29    0.81
  -1   3   5    2.10    1.27
  -3   5  -5   -0.49    0.36
   5  -2  -5   -0.13    0.58
  -2  -3  -5    0.09    0.74
  -2  -3  -5   -0.32    0.66
   5  -2  -5    0.42    0.41
   5  -2  -5    0.43    0.44
  -3   5  -5   -0.13    0.87
   5  -2  -5    0.55    0.47
   2   3   5    0.31    0.70
   3  -5   5    1.12    0.79
   2   3   5   -0.20    0.60
  -2   6  -5    4.74    1.48
   6  -4  -5    4.24    1.46
   6  -4  -5    3.43    0.52
  -4  -2  -5    2.51    1.40
  -2   6  -5    3.58    1.73
   6  -4  -5    3.68    0.48
  -2   6  -5    3.55    1.30
  -4  -2  -5    3.68    1.46
   4   2   5    6.37    1.72
   4   2   5    3.25    1.44
   2  -6   5    2.91    1.41
   2  -6   5    1.44    1.29
   3  -4  -5   -0.22    0.51
   1   3  -5    0.09    0.55
   1   3  -5    0.20    0.54
  -4   1  -5    1.08    0.69
   3  -4  -5   -0.08    0.32
   1   3  -5   -0.43    0.36
   3  -4  -5    0.24    0.36
  -4   1  -5    0.34    0.46
  -3   4   5   -0.22    0.63
  -1  -3   5    0.59    0.80
  -1  -3   5    0.49    0.51
   4  -1   5   -0.17    0.50
   4  -1   5    0.74    0.44
   4   0  -5    2.64    1.02
   0  -4  -5    3.70    1.26
   0  -4  -5    4.21    1.31
  -4   4  -5    3.66    0.72
   0  -4  -5    1.46    1.04
  -4   4  -5    2.94    0.85
   4   0  -5    5.02    1.16
   4   0  -5    3.58    1.14
   4   0  -5    2.75    0.87
  -4   0   5    6.20    1.20
   0   4   5    4.84    1.32
   4  -4   5    2.37    1.03
   4  -4   5    4.47    0.60
   0   4   5    1.62    1.14
  -4   0   5    2.50    0.74
  -4   7  -5   12.47    2.88
  -3  -4  -5   10.11    2.52
   7  -3  -5   13.58    1.88
  -3  -4  -5   14.80    3.15
   7  -3  -5    8.91    1.57
   7  -3  -5   14.29    2.55
   3   4   5   13.86    2.79
   4  -7   5   10.43    2.31
   3   4   5    7.91    2.22
   4  -7   5    8.23    2.22
  -3   8  -5    1.51    1.80
   8  -5  -5    1.46    1.44
   8  -5  -5    1.74    0.43
   8  -5  -5    1.72    0.48
  -5  -3  -5    1.85    1.40
  -5  -3  -5    0.96    1.42
   3  -8   5    0.39    1.70
   3  -8   5    0.61    1.39
   5   3   5    0.55    1.23
   5   3   5    4.76    1.99
   0   5  -5    4.72    1.58
   0   5  -5    4.43    1.41
   5  -5  -5    3.03    0.64
   5  -5  -5    3.39    0.65
   5  -5  -5    4.40    1.44
  -5   0  -5    4.35    1.38
   0  -5   5    5.24    1.79
   5   0   5    3.14    1.15
   5   0   5    3.89    1.41
   0  -5   5    6.00    1.61
  -5   5   5    4.00    1.92
   3   2  -5    6.13    1.57
   3   2  -5    6.09    1.51
   2  -5  -5    6.90    1.72
   3   2  -5    6.94    1.65
   2  -5  -5    7.29    1.66
   2  -5  -5    5.00    1.36
   3   2  -5    7.95    1.93
  -2   5   5    2.86    1.57
  -3  -2   5    8.25    1.13
  -3  -2   5    4.58    1.48
   5  -3   5    7.76    0.84
  -2   5   5    7.23    1.44
   5  -3   5    6.99    1.60
   5  -3   5    7.11    1.45
   6  -1  -5    6.06    1.81
  -1  -5  -5    6.30    1.94
  -1  -5  -5    8.78    2.34
   6  -1  -5    4.32    1.42
  -5   6  -5    6.18    1.84
   6  -1  -5    7.31    1.63
   1   5   5   10.06    2.31
   5  -6   5    8.62    1.98
   1   5   5    9.53    2.86
   9  -4  -5    2.87    1.14
  -4  -5  -5    5.60    2.19
   9  -4  -5    5.75    2.14
  -4  -5  -5    2.51    2.00
   5  -9   5    4.92    2.02
   4   5   5    1.81    1.98
   4   5   5    0.97    1.51
   5  -9   5    1.16    1.81
   5  -9   5    5.70    4.30
   4   5   5    5.09    2.28
  -6  -4  -5    5.62    3.05
   4 -10   5   13.74    3.86
   4 -10   5    4.19    2.77
   6   4   5   11.32    3.49
   6   4   5    8.28    2.84
   7  -6  -5   10.29    2.41
  -1   7  -5   12.50    2.91
  -1   7  -5   18.78    4.33
  -6  -1  -5   14.82    3.07
   6   1   5   17.50    3.35
   6   1   5   18.88    3.09
   1  -7   5   14.70    3.06
   1  -7   5   18.26    3.49
   2   4  -5   12.47    2.41
  -6   2  -5   10.86    1.52
   2   4  -5   11.31    2.37
  -6   2  -5    9.73    1.20
   4  -6  -5    6.58    1.51
   4  -6  -5    7.45    1.90
   4  -6  -5    9.03    1.66
  -2  -4   5   13.52    2.20
  -4   6   5    8.14    2.84
   6  -2   5   13.32    1.72
   6  -2   5    9.91    2.14
  -2  -4   5    9.70    2.44
   5   1  -5    1.64    1.04
   1  -6  -5    2.42    1.43
   1  -6  -5    1.71    1.15
   5   1  -5    2.39    1.16
  -1   6   5    3.95    2.22
  -5  -1   5    1.95    1.00
   6  -5   5    1.63    1.03
   8  -2  -5   -0.97    0.99
   8  -2  -5   -0.38    0.74
  -2  -6  -5   -0.29    1.20
  -2  -6  -5   -0.76    1.24
   2   6   5   -0.90    1.05
   6  -8   5   -0.07    0.93
   9  -7  -5    0.40    1.60
  -2   9  -5    2.29    2.56
  -7  -2  -5    1.98    1.91
   7   2   5    4.35    2.13
   7   2   5    3.06    1.91
   2  -9   5    3.29    2.22
   2  -9   5   -0.26    1.52
   6  -7  -5    0.15    1.05
   1   6  -5    1.30    1.36
  -7   1  -5   -0.23    0.81
   1   6  -5    0.08    0.97
  -6   7   5    2.73    2.03
   7  -1   5    1.24    1.05
  -1  -6   5    0.45    1.18
  -1  -6   5    0.35    1.20
   7  -1   5    1.20    1.22
   4   3  -5    1.59    1.16
   4   3  -5    0.86    1.08
   3  -7  -5   -0.61    0.65
   3  -7  -5   -0.40    0.72
   7  -4   5    1.99    1.18
  -3   7   5    0.14    1.35
  -4  -3   5   -0.18    1.00
   7   0  -5    3.59    1.73
   0  -7  -5    6.33    2.37
   7   0  -5    3.26    1.54
   0   7   5    5.58    2.89
   7  -7   5    7.97    1.91
   0   8  -5    2.68    2.43
   8  -8  -5    8.64    2.65
   0   8  -5    1.06    1.48
   8   0   5    1.45    1.62
   8   0   5    4.56    2.23
   0  -8   5    6.83    2.60
   0  -8   5    0.67    1.86
  -8   8   5    3.17    2.23
   3   5  -5    5.26    2.09
   5  -8  -5    7.71    2.50
   3   5  -5    6.09    2.28
  -3  -5   5    6.45    2.21
   8  -3   5    8.37    2.22
  -5   8   5    5.00    3.03
   2  -8  -5    4.84    2.19
   6   2  -5    5.75    1.99
   2  -8  -5    5.00    2.01
   6   2  -5    5.87    2.09
  -2   8   5    5.27    2.94
  -6  -2   5    5.30    1.99
   8  -6   5    3.46    1.53
  -1  -8  -5    2.64    2.40
   9  -1  -5    5.69    2.10
   9  -1  -5    5.23    2.55
  -1  -8  -5    2.49    2.35
   1   8   5    3.50    2.78
   8  -9   5    7.52    2.22
   7  -9  -5   12.80    3.37
   2   7  -5    5.66    2.41
   9  -2   5   12.91    3.10
  -2  -7   5    9.92    3.27
  -7   9   5    9.00    3.63
   5   4  -5    6.10    2.32
   5   4  -5    5.96    2.22
   4  -9  -5    2.63    2.01
  -5  -4   5    3.37    2.22
  -4   9   5    2.74    2.46
   9  -5   5    2.24    1.49
   8   1  -5    2.36    1.94
   8   1  -5   -0.70    1.28
   1  -9  -5    2.37    2.18
   1  -9  -5    2.49    2.08
   9  -8   5    1.76    1.35
  -1   9   5    0.02    1.87
   6 -10  -5   -0.63    1.55
   4   6  -5   -1.70    1.19
  -6  10   5   -1.88    2.18
  10  -4   5    0.38    1.40
  -4  -6   5    0.85    2.03
   0   0  -6  932.38   46.53
   0   0  -6  967.95   46.26
   0   0  -6  978.94   46.48
   0   0  -6  962.27   46.68
   0   0   6  928.42   46.74
   0   0   6  948.95   46.48
   0   0   6 1000.00   46.49
   0   0   6  957.37   46.31
   2  -1  -6  128.10    6.53
  -1   2  -6  109.98    6.28
  -1   2  -6  133.87    7.23
   2  -1  -6  123.66    7.38
   2  -1  -6  123.12    6.36
  -1  -1  -6  116.82    6.96
   2  -1  -6  125.07    6.50
  -1  -1  -6  122.09    6.95
  -1  -1  -6  127.41    7.14
  -1   2  -6  122.67    6.76
  -1  -1  -6  122.40    6.99
  -2   1   6  122.75    6.11
   1   1   6  130.07    7.31
   1  -2   6  112.28    6.26
  -2   1   6  118.01    6.05
  -2   1   6  138.29    7.60
   1   1   6  131.76    7.12
   1  -2   6  114.83    6.77
   1   1   6  123.21    7.02
   1  -2   6  116.21    7.17
  -2   1   6  120.15    6.27
   1   1   6  117.18    6.98
  -2   1  -6  258.29   13.04
   1   1  -6  258.04   13.16
   1  -2  -6  228.57   12.93
   1   1  -6  260.82   12.91
   1  -2  -6  251.00   12.96
   1   1  -6  243.09   12.91
  -2   1  -6  271.31   13.30
   1  -2  -6  231.73   12.71
  -2   1  -6  249.35   12.25
   1  -2  -6  261.02   14.13
   2  -1   6  239.55   13.22
  -1   2   6  255.31   13.06
  -1   2   6  254.61   12.63
  -1   2   6  249.70   13.89
  -1  -1   6  230.69   12.83
  -1  -1   6  253.50   13.08
   2  -1   6  256.53   13.22
  -1  -1   6  275.72   13.25
  -1  -1   6  241.73   12.84
  -1   2   6  265.67   12.98
   2  -1   6  250.40   12.31
   2  -1   6  252.96   13.05
   4  -2  -6  152.69    7.94
   4  -2  -6  153.23    8.97
   4  -2  -6  155.20    7.87
  -2   4  -6  153.99    8.47
  -2  -2  -6  146.66    8.97
   4  -2  -6  154.35    8.18
  -2   4  -6  159.77    9.14
  -2   4  -6  151.54    8.48
  -2  -2  -6  149.07    9.12
   4  -2  -6  155.74    7.96
   2  -4   6  149.02    9.18
   2   2   6  149.63    8.91
   2  -4   6  158.26    8.23
   2   2   6  160.92    9.18
   3  -3  -6  543.35   28.55
  -3   0  -6  581.74   28.86
   3  -3  -6  584.30   27.92
  -3   0  -6  614.48   28.42
   0   3  -6  615.58   28.93
   3  -3  -6  568.67   27.71
  -3   0  -6  572.77   28.94
   0   3  -6  576.13   28.71
   0   3  -6  544.79   28.50
   3   0   6  588.17   28.37
   3   0   6  546.14   28.91
  -3   3   6  584.81   30.22
   0  -3   6  582.47   29.24
   0  -3   6  547.80   29.05
   0  -3  -6  566.07   28.92
   0  -3  -6  557.22   29.00
   3   0  -6  585.42   28.47
   3   0  -6  572.15   28.61
   3   0  -6  544.22   28.45
  -3   3  -6  546.76   27.78
   0  -3  -6  650.85   29.40
   3   0  -6  608.78   28.87
  -3   3  -6  553.79   28.16
   3  -3   6  556.74   29.17
  -3   0   6  592.28   28.28
   0   3   6  584.60   30.08
   0   3   6  582.45   28.90
  -3   0   6  585.24   28.30
   6  -3  -6  311.33   15.13
  -3  -3  -6  286.72   16.66
   6  -3  -6  287.74   15.09
  -3  -3  -6  318.93   17.25
   6  -3  -6  324.56   15.17
   6  -3  -6  283.60   16.34
  -3   6  -6  306.73   16.98
  -3   6  -6  291.54   17.16
   3   3   6  288.77   16.79
   3   3   6  284.95   16.57
   3  -6   6  284.29   16.84
   3  -6   6  314.75   17.10
  -4  -1  -6   53.93    4.28
   5  -4  -6   52.25    2.74
  -1   5  -6   51.36    4.05
   5  -4  -6   50.61    3.92
  -4  -1  -6   53.28    4.42
  -1   5  -6   49.59    4.16
  -1   5  -6   55.21    4.25
   1  -5   6   45.32    5.14
   4   1   6   53.12    4.43
  -5   4   6   63.61    6.74
   1  -5   6   54.94    4.65
   4   1   6   54.61    4.10
   2  -4  -6   71.37    4.70
   2   2  -6   61.63    4.78
  -4   2  -6   71.89    4.52
   2  -4  -6   76.49    4.96
   2   2  -6   75.74    5.09
   2  -4  -6   74.29    5.20
   2   2  -6   82.83    5.46
   2   2  -6   82.76    5.13
  -2   4   6   74.04    4.66
  -2   4   6   73.58    4.38
   4  -2   6   78.11    4.43
  -2  -2   6   80.85    4.29
   4  -2   6   79.12    4.03
  -2   4   6   68.37    6.09
   4  -2   6   70.88    5.08
  -2  -2   6   81.07    5.29
   5  -1  -6   59.64    3.08
  -1  -4  -6   53.24    5.54
   5  -1  -6   59.05    3.96
   5  -1  -6   51.13    4.21
  -1  -4  -6   58.69    5.54
  -4   5  -6   53.51    3.64
  -4   5  -6   55.84    4.28
   5  -1  -6   53.64    3.92
   5  -1  -6   59.98    3.17
   5  -1  -6   50.34    3.90
   1   4   6   55.94    6.50
   4  -5   6   53.09    4.47
   1   4   6   53.50    4.49
   4  -5   6   56.39    3.33
   8  -4  -6   25.70    3.62
  -4  -4  -6   18.56    3.52
   8  -4  -6   26.62    2.59
  -4  -4  -6   26.17    4.57
  -4   8  -6   21.23    4.07
   4  -8   6   20.71    3.71
   4   4   6   23.09    4.14
   4   4   6   18.78    3.52
   4  -8   6   20.94    3.86
   7  -5  -6   55.13    5.91
  -5  -2  -6   63.34    6.33
   7  -5  -6   60.12    4.90
  -2   7  -6   76.74    8.23
  -5  -2  -6   67.83    5.76
   5   2   6   59.02    6.46
   2  -7   6   67.84    7.14
   2  -7   6   57.10    6.67
   2  -7   6   57.83    6.47
   5   2   6   62.76    6.13
   1   4  -6  108.11    7.01
   4  -5  -6  105.04    5.97
   1   4  -6  110.31    7.14
   4  -5  -6  106.43    7.00
   1   4  -6  104.00    6.94
   4  -5  -6  108.23    6.16
  -5   1  -6  103.17    6.59
   5  -1   6  102.93    7.05
  -4   5   6  105.49    8.46
  -1  -4   6  106.13    7.37
   5  -1   6  104.37    6.21
  -1  -4   6  110.65    6.67
   1  -5  -6  117.04    7.29
   4   1  -6  121.61    7.37
   1  -5  -6  111.00    7.45
   4   1  -6  115.08    7.11
   4   1  -6  115.35    7.03
   4   1  -6  103.75    6.97
   1  -5  -6  105.74    7.42
   5  -4   6  106.05    6.21
   5  -4   6   98.67    6.99
  -1   5   6  100.34    8.34
  -4  -1   6  104.49    6.75
  -2  -5  -6   64.60    6.79
   7  -2  -6   58.61    4.46
  -2  -5  -6   65.41    7.06
  -5   7  -6   57.41    5.21
   7  -2  -6   55.61    5.59
   2   5   6   58.18    6.21
   5  -7   6   51.01    5.69
   2   5   6   54.83    7.26
   5  -7   6   65.81    5.45
  -5  -5  -6   21.56    4.64
  10  -5  -6   17.12    2.09
   5   5   6   13.66    4.22
   5 -10   6   15.24    4.19
  -6  -3  -6  126.34    9.53
  -3   9  -6  117.79   10.46
   3  -9   6  113.56    9.46
   6   3   6  110.97    9.20
   3  -9   6   89.25   10.12
   6   3   6  126.48    9.04
  -6   0  -6  217.06   12.73
   0   6  -6  219.24   13.17
   6  -6  -6  224.19   12.95
   0   6  -6  220.89   13.22
   6   0   6  225.91   12.44
   6   0   6  199.74   13.02
  -6   6   6  205.48   14.50
   0  -6   6  210.48   13.55
   0  -6   6  233.57   13.14
   3  -6  -6  297.20   16.91
   3  -6  -6  304.35   16.12
   3   3  -6  283.45   16.65
   3  -6  -6  334.19   16.57
   3   3  -6  289.63   16.55
   6  -3   6  271.21   16.30
  -3   6   6  294.09   18.51
   6  -3   6  312.21   14.94
  -3  -3   6  298.13   15.38
  -3  -3   6  302.23   16.93
   6   0  -6  209.23   12.72
   6   0  -6  217.46   12.89
   0  -6  -6  220.19   13.47
   0  -6  -6  232.73   13.68
   0   6   6  245.20   15.41
   6  -6   6  199.31   12.59
  -3  -6  -6   83.34    9.18
   9  -3  -6  111.37    8.02
   9  -3  -6  111.41    7.20
  -3  -6  -6  111.69    9.33
   6  -9   6   97.48    8.13
   3   6   6   93.28   11.21
   8  -7  -6   21.94    3.69
  -1   8  -6   14.68    4.24
   8  -7  -6   15.02    3.36
  -7  -1  -6   19.20    3.72
   1  -8   6   16.14    3.87
   7   1   6   19.56    3.49
   1  -8   6   17.15    3.71
   7   1   6   26.75    4.58
   2   5  -6   24.32    3.92
   2   5  -6   24.45    3.92
   5  -7  -6   35.04    4.59
   7  -2   6   30.11    3.08
   7  -2   6   30.20    4.09
  -2  -5   6   21.33    3.83
  -5   7   6   28.08    5.42
  -2  -5   6   29.44    3.69
   2  -7  -6   25.50    3.78
   5   2  -6   39.22    4.81
   5   2  -6   30.93    4.20
   2  -7  -6   26.67    4.24
   7  -5   6   17.76    3.04
  -2   7   6   32.01    5.68
  -5  -2   6   29.72    4.02
   8  -1  -6   19.22    3.62
  -1  -7  -6   15.23    3.71
  -1  -7  -6   23.35    4.62
   8  -1  -6   14.84    2.99
   1   7   6   18.58    4.99
   7  -8   6   20.53    3.50
   7  -8  -6   35.73    5.06
   1   7  -6   36.94    5.39
  -1  -7   6   30.92    4.81
   8  -1   6   34.15    5.13
  -1  -7   6   28.70    5.20
  -7   8   6   30.74    5.96
   4  -8  -6   40.08    5.45
   4   4  -6   47.87    5.89
   4  -8  -6   40.05    4.69
   4   4  -6   47.13    5.74
  -4   8   6   46.16    7.23
   8  -4   6   41.96    4.96
  -4  -4   6   39.15    5.41
   1  -8  -6   30.51    5.13
   1  -8  -6   35.95    5.21
   7   1  -6   32.05    4.85
   7   1  -6   43.96    5.59
   8  -7   6   36.86    4.45
  -1   8   6   27.34    6.06
   3   6  -6   94.72    9.70
   6  -9  -6   98.84    9.82
   9  -3   6  106.58    8.31
  -3  -6   6  116.97    9.36
  -6   9   6  105.65   11.91
   3  -9  -6   76.07    8.85
   3  -9  -6  100.80    7.93
   6   3  -6   98.50    8.33
   6   3  -6  114.68    8.53
  -3   9   6   90.48   11.55
   9  -6   6  100.59    7.30
  -6  -3   6   77.99    8.48
   5 -10  -6   15.15    4.14
   5   5  -6    4.97    2.93
   5   5  -6   13.75    3.58
  -5  10   6   13.70    4.51
  -5  -5   6   16.05    4.06
  10  -5   6    5.40    2.12
   0   1  -7    3.96    0.96
   0   1  -7    4.15    0.97
  -1   0  -7    4.07    1.03
  -1   0  -7    4.82    1.07
   1  -1  -7    3.20    0.75
  -1   0  -7    2.76    0.89
   1  -1  -7    4.21    1.26
   0   1  -7    4.04    0.78
   1  -1  -7    3.29    0.85
  -1   0  -7    2.75    0.78
   1  -1  -7    4.01    0.90
   0  -1   7    4.70    1.17
   1   0   7    5.10    1.04
   0  -1   7    5.06    0.83
  -1   1   7    2.95    1.05
   1   0   7    5.08    1.01
   0  -1   7    2.91    0.77
  -1   1   7    3.22    0.77
  -1   1   7    4.24    0.99
   1   0   7    3.07    0.92
  -1   1   7    4.11    0.81
   1   0   7    5.27    1.18
  -2  -1  -7   12.75    2.02
  -1   3  -7   10.97    1.53
  -2  -1  -7   11.77    1.96
   3  -2  -7   13.46    1.39
  -1   3  -7   10.75    1.72
  -1   3  -7   10.49    1.64
   3  -2  -7   13.07    1.57
   3  -2  -7   10.94    1.25
  -3   2   7   13.03    2.43
   1  -3   7    9.02    1.88
   2   1   7   12.10    2.12
   1  -3   7   12.99    1.48
   2   1   7   15.40    2.22
   0  -2  -7    0.66    0.62
   2   0  -7    0.66    0.55
  -2   2  -7    1.23    0.58
   2   0  -7    0.60    0.47
   0  -2  -7    0.87    0.58
   0  -2  -7    0.61    0.50
   2   0  -7    0.33    0.41
  -2   2  -7    0.20    0.15
   0   2   7    1.07    0.58
  -2   0   7    0.85    0.49
  -2   0   7    0.66    0.44
   2  -2   7    0.60    0.66
   0   2   7    0.33    0.45
  -2   0   7    1.14    0.58
  -2   0   7    0.41    0.20
   0   2   7   -0.01    0.52
   5  -3  -7    2.46    0.64
   5  -3  -7    0.91    0.66
  -3  -2  -7    0.78    0.87
   5  -3  -7    1.75    0.46
   5  -3  -7   -0.22    0.77
  -2   5  -7    2.14    1.10
  -2   5  -7    2.16    1.25
  -2   5  -7    2.72    0.96
  -2   5  -7    0.64    0.67
  -3  -2  -7    2.45    1.23
   5  -3  -7    1.65    0.49
   2  -5   7    1.62    1.02
   3   2   7    2.02    1.08
   2  -5   7    3.39    1.49
   3   2   7    1.03    0.91
   1   2  -7    0.78    0.55
  -3   1  -7    1.41    0.70
   2  -3  -7    1.55    0.64
   2  -3  -7    0.99    0.68
   2  -3  -7    2.00    0.62
   1   2  -7    0.15    0.48
   1   2  -7    1.82    0.78
   1   2  -7    1.96    0.88
  -3   1  -7    1.32    0.44
  -2   3   7    1.47    0.37
  -1  -2   7    0.21    0.54
  -1  -2   7    1.33    0.85
  -2   3   7    0.53    0.85
   3  -1   7   -0.25    0.60
  -2   3   7    0.77    0.51
   4  -1  -7    0.09    0.46
  -1  -3  -7    0.55    0.91
  -3   4  -7   -0.26    0.52
  -1  -3  -7   -0.75    0.49
   4  -1  -7    0.54    0.26
   4  -1  -7    0.72    0.64
  -1  -3  -7    0.00    0.56
   4  -1  -7   -0.47    0.30
   4  -1  -7    0.27    0.45
  -3   4  -7   -0.18    0.42
  -3   4  -7    0.94    0.47
   3  -4   7    0.02    0.27
   3  -4   7    0.18    0.68
   1   3   7    0.07    0.54
   1   3   7    0.54    0.92
  -4  -3  -7    0.28    0.99
  -4  -3  -7    0.23    0.88
   7  -4  -7   -0.28    0.33
   7  -4  -7    0.06    0.71
   7  -4  -7    0.65    1.10
  -3   7  -7   -0.38    1.14
   7  -4  -7    0.18    0.39
   4   3   7   -0.86    0.78
   3  -7   7   -1.46    1.01
   4   3   7   -0.05    0.94
   3  -7   7    0.07    0.82
   4  -4  -7    6.08    0.91
   0   4  -7    3.21    1.14
   4  -4  -7    3.90    0.71
   0   4  -7    6.41    1.51
   4  -4  -7    4.23    1.25
  -4   0  -7    3.61    1.34
  -4   0  -7    3.32    1.18
   0   4  -7    4.85    1.32
   0  -4   7    3.30    1.24
  -4   4   7    2.30    1.54
   4   0   7    3.14    1.25
   4   0   7    5.37    1.22
   0  -4   7    2.14    1.22
   3   1  -7   21.97    2.74
   1  -4  -7   18.30    2.67
  -4   3  -7   16.76    1.80
   1  -4  -7   20.19    2.77
   3   1  -7   15.26    2.25
   3   1  -7   12.82    2.14
   1  -4  -7   17.33    2.44
   3   1  -7   15.41    2.21
  -1   4   7   20.47    2.49
  -1   4   7   15.28    3.16
   4  -3   7   17.93    2.70
  -3  -1   7   19.62    2.49
   6  -2  -7   20.12    2.96
   6  -2  -7   18.60    1.83
   6  -2  -7   22.26    2.50
   6  -2  -7   17.63    2.25
  -4   6  -7   24.18    3.32
  -2  -4  -7   17.90    3.14
   6  -2  -7   18.15    2.33
  -2  -4  -7   13.54    2.90
   4  -6   7   21.05    3.31
   2   4   7   20.05    3.23
   2   4   7   18.73    3.94
  -5  -4  -7   12.12    3.23
   9  -5  -7   14.09    2.92
   9  -5  -7    9.77    1.20
  -5  -4  -7    6.44    2.57
   4  -9   7   12.83    3.51
   4  -9   7   10.98    3.45
   5   4   7   12.25    3.47
   5   4   7   14.18    3.33
   5   4   7    5.84    2.34
  -5  -1  -7   11.01    2.48
  -1   6  -7   10.57    2.30
  -1   6  -7   11.10    2.41
   6  -5  -7    8.56    0.57
  -5  -1  -7   10.68    2.31
   6  -5  -7    9.66    2.03
   5   1   7   11.98    2.60
   5   1   7    7.77    1.78
  -6   5   7    6.94    2.54
   1  -6   7   10.06    2.41
   1  -6   7    7.17    2.28
   1  -6   7    7.79    2.33
  -5   2  -7    2.47    0.94
   3  -5  -7    2.97    0.97
   3  -5  -7    2.61    1.01
   3  -5  -7    2.62    1.23
   2   3  -7    4.48    1.39
   2   3  -7    2.04    1.03
   2   3  -7    2.55    1.08
  -2  -3   7    3.73    0.99
   5  -2   7    3.01    1.18
   5  -2   7    3.45    0.74
  -3   5   7    7.31    2.52
  -2  -3   7    1.76    1.14
   5   0  -7    1.08    0.86
   5   0  -7    0.23    0.73
   5   0  -7   -0.32    0.66
   0  -5  -7    0.15    0.87
   0  -5  -7    0.18    0.67
   5   0  -7   -0.16    0.45
   0   5   7   -0.71    1.11
   5  -5   7    0.68    1.00
  -5   0   7   -0.08    0.57
   0   5   7   -0.64    0.58
  -3  -5  -7   -1.84    1.38
  -3  -5  -7    2.92    1.80
   8  -3  -7    1.34    0.93
   8  -3  -7    2.10    1.45
   5  -8   7    2.33    1.68
   3   5   7    1.81    1.92
   5  -8   7    0.01    1.60
   3   5   7    1.32    1.32
  -6  -2  -7    3.87    1.72
  -2   8  -7    2.64    2.27
   8  -6  -7    2.34    1.73
   8  -6  -7    5.30    1.94
  -6  -2  -7    1.95    1.73
   6   2   7    3.31    1.74
   2  -8   7    4.24    2.11
   6   2   7    5.12    2.23
   2  -8   7    1.20    1.71
   1   5  -7    5.07    1.70
  -6   1  -7    3.78    1.37
   5  -6  -7    2.60    1.31
   5  -6  -7    4.68    1.28
   1   5  -7    3.78    1.55
   5  -6  -7    5.88    1.16
   6  -1   7    5.74    1.40
   6  -1   7    5.71    1.80
  -5   6   7    3.85    2.28
  -1  -5   7    1.48    1.40
  -1  -5   7    5.50    1.64
   4   2  -7    4.16    1.48
   4   2  -7    4.21    1.61
   4   2  -7    3.14    1.37
   2  -6  -7    3.54    1.37
   2  -6  -7    5.24    1.89
  -4  -2   7    3.90    1.50
  -2   6   7    3.65    2.11
   6  -4   7    4.34    1.67
   7  -1  -7    0.94    1.04
   7  -1  -7    0.24    1.06
  -1  -6  -7    1.86    1.59
  -1  -6  -7    1.46    1.28
   6  -7   7    1.85    1.37
   1   6   7    3.07    2.32
  10  -4  -7    2.34    1.22
  -4  -6  -7    0.21    2.07
   6 -10   7   -0.16    2.02
   4   6   7   -1.46    1.78
   0   7  -7    3.28    1.80
   7  -7  -7    2.78    1.54
  -7   0  -7    5.97    1.88
   7   0   7    3.15    1.43
   0  -7   7    0.86    1.48
   0  -7   7    1.47    1.85
   7   0   7    2.20    1.56
  -7   7   7    3.01    2.23
   3   4  -7   11.81    2.71
   4  -7  -7   11.12    2.65
   4  -7  -7   11.34    2.16
   3   4  -7   12.51    2.71
   7  -3   7   11.39    2.57
  -3  -4   7   13.18    2.26
  -4   7   7    7.21    2.99
  -3  -4   7    8.45    2.52
   6   1  -7   14.51    2.99
   1  -7  -7   13.98    3.23
   6   1  -7   23.14    3.74
   1  -7  -7   21.29    3.63
   7  -6   7   14.00    2.68
  -6  -1   7   18.12    2.83
  -1   7   7   19.89    4.66
  -2  -7  -7    8.92    3.38
   9  -2  -7   14.18    2.84
   9  -2  -7   19.61    3.90
  -2  -7  -7   14.52    3.83
   2   7   7   10.94    4.14
   7  -9   7   15.32    3.33
   9  -8  -7    2.19    2.17
  -1   9  -7    6.78    3.58
   1  -9   7    6.22    2.67
   1  -9   7    1.65    2.25
   8   1   7    4.26    2.50
   2   6  -7    2.57    1.73
   6  -8  -7    1.64    1.69
  -6   8   7    4.72    2.84
   8  -2   7    4.15    1.94
  -2  -6   7    3.53    2.08
   5   3  -7   -0.13    0.92
   3  -8  -7    2.46    1.90
   3  -8  -7    0.95    1.19
   5   3  -7    0.06    1.05
  -3   8   7    1.45    2.00
   8  -5   7    0.77    1.22
  -5  -3   7    0.86    1.57
   0  -8  -7    1.88    2.14
   0  -8  -7    0.21    1.42
   8   0  -7    0.55    1.48
   8   0  -7   -0.49    1.26
   8  -8   7    1.28    1.44
   0   8   7    2.29    2.13
   8  -9  -7    1.56    2.00
   1   8  -7    7.30    2.83
   1   8  -7    7.08    3.52
   9  -1   7    1.99    1.95
  -8   9   7    3.81    2.78
  -1  -8   7    1.90    2.36
   4   5  -7    9.01    2.81
   4   5  -7    5.89    2.32
   5  -9  -7   11.16    3.15
   9  -4   7    6.04    2.31
  -5   9   7    5.96    3.27
  -4  -5   7    4.16    2.35
   2  -9  -7    6.34    2.80
   7   2  -7    8.98    2.99
   7   2  -7    6.98    2.68
   2  -9  -7    2.73    2.22
   9  -7   7    1.40    1.41
  -2   9   7    0.07    2.41
   4 -10  -7    7.65    3.20
   6   4  -7   10.28    3.30
  -4  10   7   14.35    4.65
  -6  -4   7   13.63    4.15
  10  -6   7    3.04    1.94
  -1   1  -8    7.64    1.40
   1   0  -8    5.64    1.31
   1   0  -8    8.36    1.38
   0  -1  -8    7.58    1.40
   0  -1  -8    7.78    1.45
  -1   1  -8    9.56    1.74
   1   0  -8    4.85    1.11
   1   0  -8    7.91    1.01
   0  -1  -8    7.09    1.63
   1   0  -8    9.63    1.48
  -1   1  -8    6.37    1.01
   0  -1  -8    5.01    1.14
   0   1   8    9.68    1.62
   0   1   8    6.56    1.24
   0   1   8    7.35    1.51
   0   1   8    9.21    1.46
   1  -1   8    5.45    1.48
   1  -1   8    6.00    1.14
   1  -1   8    9.00    1.53
  -1   0   8    7.95    1.08
  -1   0   8    4.55    1.03
   2  -2  -8   -0.44    0.42
  -2   0  -8   -0.09    0.39
  -2   0  -8   -0.44    0.57
  -2   0  -8    1.02    0.66
   2  -2  -8   -0.22    0.38
   0   2  -8    0.35    0.65
   2  -2  -8   -0.37    0.37
   0   2  -8   -0.18    0.30
   0   2  -8    0.35    0.53
  -2   2   8    0.03    0.21
   0  -2   8   -0.19    0.38
   0  -2   8    0.46    0.59
  -2   2   8    0.63    0.57
  -2   2   8   -0.21    0.33
   2   0   8   -0.14    0.52
   2   0   8    0.60    0.57
  -2   2   8    0.21    0.73
  -2   3  -8    8.87    1.09
  -1  -2  -8   10.42    1.90
   3  -1  -8   10.07    1.43
   3  -1  -8    8.21    1.65
   3  -1  -8    8.46    0.98
   3  -1  -8    7.74    1.27
  -1  -2  -8   10.77    2.02
  -1  -2  -8    5.46    1.44
  -2   3  -8   13.51    1.84
  -3   1   8    7.63    0.86
  -3   1   8    9.42    0.77
   2  -3   8    5.59    1.62
   1   2   8    9.61    2.10
   1   2   8    7.32    1.58
   2  -3   8   10.21    1.08
  -3  -1  -8    2.31    1.10
   4  -3  -8    1.04    0.64
  -3  -1  -8    0.00    0.72
   4  -3  -8    1.87    0.56
   4  -3  -8    2.36    0.65
  -1   4  -8    1.15    0.76
  -1   4  -8    2.29    0.84
  -1   4  -8    1.66    0.87
   1  -4   8    0.65    0.79
   1  -4   8    2.58    1.31
  -4   3   8    2.76    1.56
   3   1   8    1.83    0.93
   3   1   8    1.88    1.02
   1  -3  -8    0.03    0.40
   2   1  -8   -0.38    0.32
   1  -3  -8    0.41    0.57
   1  -3  -8   -0.17    0.45
   2   1  -8    0.66    0.65
   2   1  -8    1.00    0.66
   2   1  -8    0.07    0.36
  -3   2  -8   -0.30    0.45
  -1   3   8   -0.48    0.43
  -1   3   8    0.02    0.53
  -1   3   8    0.11    0.42
  -2  -1   8    0.10    0.20
  -2  -1   8   -0.07    0.50
  -2  -1   8   -0.29    0.38
   3  -2   8    0.03    0.72
  -2  -1   8    0.12    0.50
  -3   5  -8    3.58    1.34
  -2  -3  -8    0.25    0.85
  -3   5  -8    2.99    1.01
   5  -2  -8    1.56    0.64
  -2  -3  -8    1.82    1.12
   5  -2  -8    1.92    0.76
   5  -2  -8    1.79    0.64
  -3   5  -8    1.44    0.77
   5  -2  -8    1.92    0.73
   5  -2  -8    1.76    1.00
   2   3   8    2.86    1.55
   3  -5   8    0.61    0.52
   3  -5   8    1.62    1.09
   2   3   8    2.76    1.33
   6  -4  -8   17.92    3.08
   6  -4  -8   19.48    2.55
  -2   6  -8   19.18    3.51
  -4  -2  -8   20.09    3.45
  -4  -2  -8   17.98    3.02
  -2   6  -8   18.90    2.90
   6  -4  -8   15.15    1.24
   6  -4  -8   16.47    1.38
  -2   6  -8   17.94    2.81
   2  -6   8   20.90    3.62
   2  -6   8   14.01    3.02
   4   2   8   22.04    3.19
   4   2   8   21.03    3.43
   3  -4  -8   18.10    1.98
   1   3  -8   14.17    2.26
   3  -4  -8   17.44    2.44
  -4   1  -8   18.20    2.53
   3  -4  -8   16.65    2.03
   1   3  -8   14.83    2.20
  -4   1  -8   18.32    1.83
   1   3  -8   17.73    2.52
  -3   4   8   16.71    3.38
  -1  -3   8   13.26    2.50
   4  -1   8   13.95    2.40
  -1  -3   8   15.30    2.53
   0  -4  -8    8.01    1.86
   4   0  -8   13.15    2.00
   4   0  -8    8.05    1.75
   4   0  -8    7.93    1.68
   0  -4  -8    8.60    1.98
   4   0  -8    7.13    1.50
  -4   4  -8    9.73    1.42
   0  -4  -8   11.13    2.35
   0   4   8   10.27    2.73
  -4   0   8   10.19    1.55
   4  -4   8    7.71    1.97
   0   4   8    9.31    1.95
  -4   0   8   11.31    1.60
  -4   7  -8    1.21    1.41
  -3  -4  -8    5.68    2.25
   7  -3  -8    1.74    0.81
   7  -3  -8    2.44    0.89
   7  -3  -8   -0.11    1.01
  -3  -4  -8    2.03    1.62
   4  -7   8    1.15    1.84
   4  -7   8    4.38    1.87
   3   4   8    3.35    1.59
   3   4   8    4.91    2.10
  -5  -3  -8    4.16    2.10
   8  -5  -8    7.19    2.43
  -5  -3  -8    5.63    2.06
  -3   8  -8    3.87    2.34
   3  -8   8    5.08    2.44
   5   3   8    6.11    2.13
   3  -8   8    5.00    2.24
   5   3   8    5.50    2.15
  -5   0  -8    1.54    1.20
   5  -5  -8    1.85    0.61
   0   5  -8    3.64    1.45
   5  -5  -8    2.43    1.15
   0   5  -8    2.99    1.32
   0   5  -8    1.00    1.02
   5  -5  -8    2.04    0.69
   5   0   8    2.30    0.98
   5   0   8    2.83    1.37
   0  -5   8    3.21    1.26
  -5   5   8    1.22    1.58
   0  -5   8    2.40    1.37
   0  -5   8    0.62    1.17
   3   2  -8   -0.49    0.85
   2  -5  -8    0.50    0.71
  -5   3  -8    0.57    0.56
   3   2  -8    0.57    0.76
   2  -5  -8    0.20    0.73
   2  -5  -8    0.97    0.81
   3   2  -8    1.81    0.97
   3   2  -8    0.13    0.61
  -3  -2   8    1.37    1.04
  -2   5   8    0.22    0.96
  -2   5   8    0.18    0.64
   5  -3   8    1.09    0.47
   5  -3   8   -0.81    0.59
  -2   5   8   -0.21    0.64
  -5   6  -8    7.02    1.48
  -1  -5  -8    5.86    2.01
   6  -1  -8    6.24    1.53
   6  -1  -8    8.98    1.94
   6  -1  -8    8.72    2.08
  -1  -5  -8    5.50    1.93
   1   5   8   16.45    3.91
   5  -6   8    5.19    1.72
   1   5   8    6.80    2.03
   9  -4  -8    9.37    1.69
  -4  -5  -8    5.25    2.44
   9  -4  -8   11.45    2.97
  -4  -5  -8   14.07    3.85
   4   5   8    9.96    3.31
   5  -9   8   11.61    3.42
   5  -9   8    7.00    2.71
  -1   7  -8    2.45    1.57
   7  -6  -8    0.15    0.91
  -6  -1  -8    0.13    1.02
  -1   7  -8    1.25    1.69
   6   1   8   -0.64    0.74
   1  -7   8   -0.60    1.16
   1  -7   8    1.13    1.12
   6   1   8   -0.92    0.93
  -6   2  -8   -0.40    0.64
   2   4  -8   -0.49    0.71
   2   4  -8    0.01    0.62
   2   4  -8    0.41    0.63
   4  -6  -8   -0.32    0.54
   4  -6  -8   -0.37    0.60
   4  -6  -8    0.16    0.60
   6  -2   8    0.00    0.82
  -2  -4   8    0.06    0.73
   6  -2   8   -0.11    0.50
  -2  -4   8    0.45    0.91
  -4   6   8    0.16    1.52
   5   1  -8    1.20    1.03
   5   1  -8    1.60    1.14
   1  -6  -8    2.55    1.40
   5   1  -8    2.17    1.44
   1  -6  -8    1.13    1.06
  -5  -1   8    3.31    1.31
   6  -5   8    1.45    1.15
  -1   6   8    0.52    1.47
  -2  -6  -8    3.33    2.31
   8  -2  -8    4.84    2.03
   8  -2  -8    5.05    1.65
  -2  -6  -8    3.39    2.06
   2   6   8    6.71    3.12
   6  -8   8    3.16    1.71
  -2   9  -8    8.57    3.67
  -7  -2  -8   10.36    3.05
   7   2   8   16.48    4.09
   2  -9   8   19.85    4.22
   7   2   8   11.11    2.89
   2  -9   8   11.34    3.72
  -7   1  -8   19.01    2.83
   6  -7  -8   13.63    2.87
   1   6  -8   12.16    2.95
   1   6  -8   17.30    3.46
   7  -1   8   19.21    3.57
  -6   7   8   21.39    4.88
  -1  -6   8   15.83    3.49
  -1  -6   8   14.89    2.85
   7  -1   8   24.67    3.07
   4   3  -8   12.67    2.73
   4   3  -8   17.78    3.21
   3  -7  -8   15.56    2.73
   3  -7  -8   11.51    2.80
  -3   7   8   10.73    3.26
  -4  -3   8   12.64    2.89
   7  -4   8   15.25    3.00
   7   0  -8    5.51    2.14
   7   0  -8    3.96    1.71
   0  -7  -8    4.85    2.16
   0  -7  -8    5.53    2.21
   0   7   8    4.02    2.37
   7  -7   8    3.71    1.81
   0   8  -8    6.41    3.07
   8  -8  -8    3.57    2.01
   0   8  -8    2.10    1.83
   0  -8   8    5.46    2.67
   8   0   8    2.11    1.82
  -8   8   8    7.56    3.24
   0  -8   8    3.75    2.29
   3   5  -8    1.22    1.24
   3   5  -8   -0.25    1.31
   5  -8  -8   -0.83    0.74
  -5   8   8    1.10    2.23
  -3  -5   8    0.93    1.49
   8  -3   8    0.43    1.48
   6   2  -8    0.83    1.33
   6   2  -8   -0.11    1.16
   2  -8  -8   -1.33    1.17
   2  -8  -8    0.38    1.35
   8  -6   8   -0.87    1.03
  -2   8   8   -1.83    1.72
  -6  -2   8   -0.16    1.25
  -1  -8  -8    5.24    2.70
   9  -1  -8    1.91    1.61
  -1  -8  -8    3.63    2.34
   9  -1  -8    5.51    2.40
   8  -9   8    5.03    2.24
   1   8   8    6.69    3.44
   2   7  -8   -0.36    1.32
   7  -9  -8    1.13    1.66
   9  -2   8   -0.42    1.39
  -2  -7   8   -0.20    1.62
  -7   9   8   -0.73    2.43
   5   4  -8   -0.58    1.06
   5   4  -8   -0.96    1.30
   4  -9  -8    0.81    1.84
  -5  -4   8   -0.15    1.44
   9  -5   8    1.40    1.45
  -4   9   8   -0.19    2.01
   8   1  -8    2.00    2.03
   1  -9  -8   -1.08    1.78
   8   1  -8    2.64    2.05
   1  -9  -8    4.41    2.67
   9  -8   8    2.88    1.66
  -1   9   8    1.68    2.14
   0   0  -9    3.88    0.94
   0   0  -9    2.98    1.04
   0   0  -9    4.69    1.34
   0   0  -9    3.23    1.06
   0   0   9   11.33    1.70
   0   0   9    4.84    1.16
   0   0   9    5.27    1.40
   0   0   9    5.41    1.13
   2  -1  -9  665.46   30.69
   2  -1  -9  642.60   31.04
  -1  -1  -9  591.10   31.84
   2  -1  -9  627.79   31.05
  -1   2  -9  633.71   30.52
  -1  -1  -9  624.94   31.37
  -1   2  -9  649.36   32.63
  -1  -1  -9  561.97   31.32
  -1   2  -9  627.49   31.22
  -1  -1  -9  690.75   31.85
  -2   1   9  661.99   30.70
   1   1   9  615.42   31.55
  -2   1   9  643.47   30.68
  -2   1   9  581.85   30.54
  -2   1   9  619.18   30.81
   1   1   9  587.63   31.57
  -2   1   9  645.83   32.11
   1  -2   9  636.60   32.03
  -2   1  -9  317.40   16.83
   1   1  -9  321.79   16.55
   1  -2  -9  319.16   16.58
   1  -2  -9  332.46   16.71
   1  -2  -9  335.80   16.87
   1   1  -9  316.61   16.67
   1   1  -9  327.35   16.91
  -1  -1   9  321.60   16.88
  -1   2   9  334.10   16.40
  -1  -1   9  314.99   16.96
   2  -1   9  299.50   17.13
  -1  -1   9  306.77   16.01
  -1   2   9  312.13   17.67
  -1   2   9  345.58   16.94
  -1  -1   9  326.39   16.97
   2  -1   9  326.43   15.95
   4  -2  -9  209.77   11.21
   4  -2  -9  189.62   12.06
  -2   4  -9  204.29   11.65
  -2   4  -9  213.09   11.29
  -2  -2  -9  226.03   12.37
   4  -2  -9  223.26   11.33
  -2  -2  -9  221.90   12.42
  -2   4  -9  229.96   11.98
   4  -2  -9  226.82   11.14
   2  -4   9  208.62   12.62
   2   2   9  189.88   12.12
   2  -4   9  216.33   11.06
   2   2   9  214.81   12.76
   0   3  -9    4.11    1.10
   3  -3  -9    1.53    0.65
   0   3  -9    3.31    1.16
   3  -3  -9    3.53    0.98
   3  -3  -9    2.14    0.90
  -3   0  -9    0.73    0.84
  -3   0  -9    0.37    0.73
   0   3  -9    1.66    0.83
  -3   0  -9    4.27    1.00
   3   0   9    2.14    1.01
   0  -3   9    2.29    1.16
   0  -3   9    1.34    1.03
   3   0   9    2.06    0.94
  -3   3   9    1.33    1.20
   3   0  -9    2.11    0.88
  -3   3  -9    5.56    1.21
   0  -3  -9    1.57    1.04
   0  -3  -9    1.90    0.91
   3   0  -9    2.73    0.95
   3   0  -9    2.45    0.99
   0  -3  -9    1.64    1.04
  -3   0   9    3.05    0.87
   3  -3   9    3.29    1.48
  -3   0   9    3.30    0.93
   0   3   9    3.40    1.57
   0   3   9    2.02    0.95
   6  -3  -9    0.26    0.50
  -3   6  -9    0.42    0.79
  -3  -3  -9    1.02    1.12
   6  -3  -9    1.42    0.79
  -3   6  -9    0.35    1.00
  -3  -3  -9    0.56    0.83
   6  -3  -9    0.89    0.61
   6  -3  -9    2.00    1.33
   6  -3  -9    0.81    0.66
   3   3   9    0.14    0.95
   3  -6   9    2.30    1.57
   3   3   9    1.58    1.24
   3  -6   9    1.99    1.29
  -1   5  -9  334.74   17.02
   5  -4  -9  302.11   16.27
  -4  -1  -9  299.88   17.12
  -1   5  -9  304.00   16.52
  -4  -1  -9  318.35   17.05
  -1   5  -9  291.87   16.54
   5  -4  -9  312.62   15.30
   5  -4  -9  311.56   15.30
   4   1   9  306.28   17.26
   4   1   9  301.93   16.42
   1  -5   9  285.83   17.32
   1  -5   9  292.62   17.46
  -5   4   9  301.06   18.49
   2  -4  -9  477.46   22.46
   2  -4  -9  424.93   22.56
   2  -4  -9  428.02   21.99
   2   2  -9  404.49   22.24
  -4   2  -9  412.14   21.99
   2   2  -9  397.59   22.16
   2   2  -9  494.90   23.01
   2   2  -9  422.22   22.41
   4  -2   9  442.15   20.87
  -2  -2   9  434.52   21.11
  -2  -2   9  435.75   22.55
  -2   4   9  448.85   21.48
   4  -2   9  406.24   22.70
   4  -2   9  426.17   20.90
  -2   4   9  427.74   24.08
  -2  -2   9  420.20   22.68
   5  -1  -9  317.80   16.49
  -1  -4  -9  326.36   17.65
   5  -1  -9  292.54   16.45
  -4   5  -9  313.61   15.99
   5  -1  -9  302.48   17.10
  -4   5  -9  304.80   16.13
  -4   5  -9  334.75   16.56
  -1  -4  -9  325.14   17.71
   5  -1  -9  320.59   16.57
   4  -5   9  302.02   17.63
   1   4   9  312.14   18.63
   4  -5   9  305.77   15.24
   1   4   9  324.46   17.51
  -4  -4  -9  142.38    9.87
  -4  -4  -9  140.21   10.32
   8  -4  -9  138.64    9.52
   8  -4  -9  128.69    7.50
   4   4   9  126.86    9.79
   4  -8   9  150.89   10.45
   4   4   9  114.49   10.25
   4  -8   9  138.08   10.19
   7  -5  -9   88.20    6.23
  -5  -2  -9   83.13    6.75
  -5  -2  -9   90.63    7.25
  -2   7  -9   94.94    6.88
   7  -5  -9   86.76    7.12
  -2   7  -9   87.71    7.81
   5   2   9   78.48    6.42
   5   2   9   93.55    7.44
   2  -7   9   97.43    7.72
   2  -7   9   75.39    8.44
   4  -5  -9  155.67    8.62
   1   4  -9  154.51    9.32
  -5   1  -9  150.32    9.22
   4  -5  -9  150.45    9.35
   4  -5  -9  149.82    8.39
   1   4  -9  143.80    9.30
   1   4  -9  163.21    9.68
  -1  -4   9  155.95    8.87
   5  -1   9  142.36    9.55
  -1  -4   9  151.40   10.05
  -4   5   9  153.93   11.26
  -1  -4   9  145.69    9.76
   4   1  -9  133.29    9.02
   1  -5  -9  156.67    9.83
   4   1  -9  161.34    9.52
   4   1  -9  139.47    9.21
   1  -5  -9  147.25    9.34
   4   1  -9  153.01    9.19
  -5   4  -9  157.79    8.16
   1  -5  -9  175.95   10.13
  -4  -1   9  147.29    8.93
  -1   5   9  151.86   11.02
   5  -4   9  136.64    9.54
   7  -2  -9   84.84    6.00
  -2  -5  -9   86.99    8.40
  -2  -5  -9  103.94    7.88
   7  -2  -9   85.10    6.71
   2   5   9   85.36    9.61
   5  -7   9   82.59    7.06
   2   5   9   91.98    7.27
  -6  -3  -9    1.50    2.22
   9  -6  -9    0.01    2.05
  -6  -3  -9    0.26    1.77
   3  -9   9   -0.35    1.78
   6   3   9   -0.59    1.22
   6   3   9   -1.11    1.58
   3  -9   9    1.87    2.18
   0   6  -9   -0.33    0.88
   6  -6  -9    0.73    1.06
  -6   0  -9   -0.56    0.87
   6  -6  -9    1.85    0.64
   0   6  -9   -0.40    0.92
  -6   6   9    2.34    1.92
   0  -6   9   -0.06    1.14
   0  -6   9    3.99    1.58
   6   0   9    4.53    1.48
   6   0   9    0.14    0.95
   3   3  -9    2.15    1.19
   3  -6  -9    1.04    1.21
  -6   3  -9    1.75    0.73
   3   3  -9    1.35    1.06
   3  -6  -9    1.22    1.06
   3   3  -9    7.20    1.99
  -3  -3   9    0.44    0.97
  -3   6   9    0.44    1.09
  -3  -3   9    0.52    0.53
   6  -3   9    1.35    1.09
   6   0  -9    1.37    1.09
   6   0  -9    0.40    0.94
   0  -6  -9    3.09    1.83
   6   0  -9   -0.05    0.92
   0  -6  -9    2.21    1.46
   6  -6   9    0.70    1.20
   0   6   9   -0.41    1.34
  -3  -6  -9    0.87    1.65
  -3  -6  -9    2.09    2.24
   9  -3  -9   -0.40    0.76
   9  -3  -9   -0.88    1.32
   6  -9   9    2.76    1.80
   3   6   9   -1.19    1.20
   8  -7  -9  105.58    7.75
  -7  -1  -9   91.84    7.72
  -1   8  -9   86.05    8.83
   8  -7  -9   85.12    9.06
  -1   8  -9  101.53   11.19
   7   1   9  106.10    7.61
   1  -8   9   95.28    9.41
   7   1   9  105.30    8.63
   1  -8   9   91.39    9.82
  -7   2  -9  172.76    9.77
   2   5  -9  175.27   11.48
   5  -7  -9  168.65   11.15
   2   5  -9  160.26   10.99
  -2  -5   9  182.20   11.93
  -5   7   9  172.47   13.37
  -2  -5   9  169.70   10.28
   7  -2   9  177.73   11.44
   2  -7  -9  165.59   10.95
   5   2  -9  192.69   11.56
   2  -7  -9  160.51   11.41
   5   2  -9  191.62   11.44
   5   2  -9  173.11   11.16
  -2   7   9  174.93   13.27
   7  -5   9  153.24   10.95
   8  -1  -9  111.35    8.11
   8  -1  -9  118.12    8.64
  -1  -7  -9  104.84    9.05
  -1  -7  -9  102.33   10.28
   7  -8   9  100.06    8.28
   1   7   9  114.51   12.66
   1   7  -9   53.34    6.61
   7  -8  -9   48.60    6.07
   8  -1   9   54.19    6.75
  -1  -7   9   56.45    7.60
  -7   8   9   47.92    7.87
   4   4  -9   55.98    6.62
   4  -8  -9   66.12    7.26
   4   4  -9   61.74    6.98
  -4   8   9   86.89   10.31
   8  -4   9   52.77    6.41
  -4  -4   9   55.90    6.56
   7   1  -9   43.46    5.73
   1  -8  -9   49.71    6.53
   7   1  -9   66.63    7.11
   1  -8  -9   50.71    6.69
   8  -7   9   34.15    4.94
  -1   8   9   52.90    8.36
   3   6  -9   -1.72    1.11
   6  -9  -9   -2.02    1.12
  -3  -6   9    2.69    2.08
  -6   9   9   -2.58    1.53
   9  -3   9    4.54    2.21
   3  -9  -9   -0.08    1.46
   6   3  -9    1.09    1.78
   6   3  -9    2.29    1.69
   3  -9  -9    0.62    1.56
  -3   9   9    2.74    2.74
  -6  -3   9    1.15    1.86
   9  -6   9    1.67    1.55
   1  -1 -10    1.99    0.78
   0   1 -10    1.54    0.67
   1  -1 -10   -0.07    0.53
  -1   0 -10    1.34    0.79
   0   1 -10    2.05    0.76
  -1   0 -10   -0.26    0.58
  -1   0 -10    2.39    0.87
   0   1 -10    2.00    0.87
   1  -1 -10    1.22    0.75
  -1   0 -10    1.87    0.93
   0   1 -10    2.33    1.01
  -1   1  10    1.19    0.66
   1   0  10    2.71    1.08
   1   0  10    1.28    0.69
   0  -1  10    1.01    0.58
   0  -1  10    1.17    0.83
  -1   1  10    1.13    0.79
  -1   1  10    0.12    0.48
  -1   1  10   -0.02    0.45
  -1   3 -10    6.37    1.48
   3  -2 -10    7.15    1.31
   3  -2 -10    6.80    1.32
  -2  -1 -10    7.84    1.71
  -1   3 -10    7.07    1.27
   3  -2 -10    7.80    1.41
  -2  -1 -10    8.98    1.92
  -3   2  10    7.18    0.86
   2   1  10    8.48    1.92
   1  -3  10    7.43    1.87
   2   1  10    9.05    1.96
   1  -3  10    7.29    1.33
  -3   2  10    7.38    2.11
  -2   2 -10   12.21    1.04
   0  -2 -10   12.19    2.02
   0  -2 -10   18.98    2.64
   2   0 -10   11.43    1.84
   2   0 -10   11.86    1.89
  -2   2 -10   11.34    1.90
  -2   2 -10   13.54    1.09
   2   0 -10   14.40    1.35
   0  -2 -10   10.02    1.78
   2   0 -10   11.23    1.87
  -2   0  10   10.82    1.75
   0   2  10   12.84    2.13
   2  -2  10   15.27    2.69
  -2   0  10   17.53    1.54
   0   2  10   20.85    3.07
  -2   0  10   15.64    2.00
   5  -3 -10   11.67    1.62
   5  -3 -10    8.67    1.53
  -2   5 -10   12.12    2.18
  -2   5 -10   11.32    2.22
   5  -3 -10   12.12    1.73
  -3  -2 -10   15.56    2.86
   5  -3 -10    6.05    1.95
  -3  -2 -10    8.45    2.04
  -2   5 -10    8.62    1.75
   3   2  10   16.27    3.00
   2  -5  10    9.98    2.61
   3   2  10   10.41    2.55
   2  -5  10   14.35    2.93
   2  -3 -10    2.49    1.12
   1   2 -10    3.75    1.34
   1   2 -10    0.83    0.62
   1   2 -10    2.29    0.97
   2  -3 -10    2.31    0.89
   2  -3 -10    2.20    0.94
  -3   1 -10    2.20    0.62
  -3   1 -10    3.21    1.19
  -1  -2  10    1.57    0.88
   3  -1  10    2.58    0.75
  -2   3  10    3.21    1.04
  -1  -2  10    0.83    0.51
  -1  -2  10    2.34    1.12
   3  -1  10    2.44    1.17
  -2   3  10    2.07    0.59
  -2   3  10    3.26    1.57
  -1  -3 -10    0.15    0.81
   4  -1 -10    0.47    0.68
   4  -1 -10    0.34    0.25
   4  -1 -10    0.59    0.70
   4  -1 -10    1.32    0.68
  -1  -3 -10    0.27    0.74
  -3   4 -10    0.63    0.62
  -3   4 -10    0.77    0.51
  -4   1  10    0.29    0.26
   1   3  10    0.71    0.95
   3  -4  10    1.50    1.17
  -4   1  10    0.36    0.19
   1   3  10   -0.74    0.39
  -4  -3 -10    4.18    1.80
   7  -4 -10    5.40    1.11
   7  -4 -10    3.62    1.26
  -3   7 -10    4.76    1.96
  -4  -3 -10    8.12    2.58
   7  -4 -10    5.30    0.96
   7  -4 -10    4.64    1.95
   3  -7  10    2.58    1.73
   4   3  10    2.08    1.49
   4   3  10    2.29    1.85
   3  -7  10    2.95    1.76
   4  -4 -10    0.90    0.60
   4  -4 -10    2.05    0.76
   0   4 -10    1.32    0.90
  -4   0 -10    0.93    0.89
  -4   0 -10    1.35    0.94
   0   4 -10    1.70    0.88
   4  -4 -10    1.77    0.99
   0   4 -10    1.24    0.95
   4   0  10    3.07    1.41
   0  -4  10    2.19    1.27
   4   0  10    0.25    0.79
   0  -4  10    0.47    0.96
  -4   4  10    2.41    1.76
   3   1 -10    0.45    0.66
   3   1 -10   -0.91    0.38
   1  -4 -10    0.84    0.88
   1  -4 -10    0.50    0.87
   1  -4 -10    0.80    0.78
  -4   3 -10   -0.34    0.46
   3   1 -10   -0.04    0.65
   3   1 -10   -0.18    0.54
  -1   4  10    0.37    0.67
  -1   4  10   -1.07    0.79
  -3  -1  10    0.71    0.75
   4  -3  10   -0.41    0.79
  -4   6 -10    1.46    1.06
   6  -2 -10    1.41    0.89
  -2  -4 -10    1.81    1.17
  -4   6 -10    3.35    1.10
  -2  -4 -10    1.22    1.20
   6  -2 -10    1.52    1.31
   6  -2 -10    1.12    0.76
   6  -2 -10    0.76    0.68
   2   4  10    3.88    1.92
   2   4  10    2.21    1.27
   4  -6  10    0.00    0.91
  -5  -4 -10    6.41    2.78
   9  -5 -10    2.61    2.05
   9  -5 -10    1.70    0.56
  -5  -4 -10    1.78    2.09
   4  -9  10    3.79    2.12
   5   4  10    4.51    2.58
   4  -9  10   -0.03    2.19
   5   4  10    1.95    2.34
  -5  -1 -10   11.54    2.72
  -1   6 -10    9.33    2.24
   6  -5 -10    7.78    1.91
  -1   6 -10    9.95    2.32
  -1   6 -10    9.84    2.39
  -5  -1 -10    6.51    1.94
   6  -5 -10    8.67    1.13
   1  -6  10    9.79    2.83
   1  -6  10    6.57    2.32
   5   1  10    7.91    2.36
  -6   5  10   10.79    3.22
   3  -5 -10   18.22    2.91
  -5   2 -10   19.09    2.67
  -5   2 -10   19.08    1.45
   3  -5 -10   19.20    2.62
   2   3 -10   15.37    2.73
   2   3 -10   16.58    2.81
   2   3 -10   19.83    2.96
   3  -5 -10   18.67    2.72
  -3   5  10   18.14    3.95
  -2  -3  10   15.25    2.85
   5  -2  10   22.52    1.85
  -2  -3  10   16.71    1.96
  -2  -3  10   19.30    3.23
   5  -2  10   16.27    3.06
   0  -5 -10   18.55    3.32
   5   0 -10   18.26    3.03
  -5   5 -10   18.21    2.04
   5   0 -10   23.65    3.19
   5   0 -10   21.33    2.98
   0  -5 -10   21.72    3.57
   0   5  10   17.94    4.06
   0   5  10   18.84    3.15
  -5   0  10   21.02    2.33
   5  -5  10   14.88    3.00
  -3  -5 -10    9.12    3.19
   8  -3 -10   15.05    3.24
   8  -3 -10   10.87    1.99
  -3  -5 -10   13.20    3.27
   3   5  10   10.74    3.51
   5  -8  10   15.23    3.63
   5  -8  10   11.22    3.16
   8  -6 -10    4.86    2.19
  -6  -2 -10    4.37    2.09
   8  -6 -10    2.42    1.99
  -2   8 -10    4.11    1.86
  -6  -2 -10    8.12    2.67
  -2   8 -10    5.56    2.74
   2  -8  10    4.51    2.42
   6   2  10    6.05    2.61
   2  -8  10    5.50    2.30
   2  -8  10    4.31    2.19
   6   2  10    8.17    2.86
   1   5 -10    1.89    1.15
  -6   1 -10    0.63    1.16
   5  -6 -10    1.39    1.19
   1   5 -10    1.71    1.18
   1   5 -10    2.57    1.30
   5  -6 -10    1.02    0.78
   6  -1  10    0.27    1.07
  -5   6  10    2.75    2.13
  -1  -5  10    2.85    1.31
  -1  -5  10   -0.59    1.01
   2  -6 -10    0.99    1.23
  -6   4 -10    0.36    0.49
   4   2 -10    0.11    0.89
   2  -6 -10    0.20    0.89
   4   2 -10    0.09    0.80
   4   2 -10    0.12    0.72
  -2   6  10    0.20    1.37
  -4  -2  10   -0.13    0.83
   6  -4  10    0.29    1.09
  -1  -6 -10    4.79    1.98
  -1  -6 -10    1.32    1.60
   7  -1 -10    1.04    1.06
   7  -1 -10    0.76    1.16
   1   6  10    5.71    2.79
   6  -7  10    0.15    1.27
  -7   0 -10    1.04    1.56
   7  -7 -10    7.29    2.30
   7  -7 -10    3.52    0.77
   0   7 -10    2.58    1.73
   0  -7  10    0.04    1.66
   7   0  10    1.42    1.62
   0  -7  10    2.61    1.71
  -7   7  10    2.64    2.46
   3   4 -10    1.86    1.39
   4  -7 -10    0.66    1.01
   3   4 -10    0.76    1.11
   4  -7 -10   -0.26    1.09
   3   4 -10    0.92    1.11
  -3  -4  10   -1.06    0.94
  -4   7  10    2.03    2.26
   7  -3  10    0.95    1.31
   1  -7 -10   -0.58    1.29
   1  -7 -10    1.87    1.56
   6   1 -10   -0.14    1.08
   6   1 -10    1.84    1.38
   6   1 -10   -2.27    0.76
  -6  -1  10    0.60    1.10
   7  -6  10   -0.91    0.99
  -1   7  10    1.14    1.49
  -2  -7 -10   -0.05    1.89
  -2  -7 -10    1.45    2.10
   9  -2 -10    0.73    1.05
   9  -2 -10   -1.06    1.58
   7  -9  10   -1.11    1.43
   2   7  10    2.91    2.18
   2   6 -10   14.20    3.31
   6  -8 -10   11.51    2.96
  -2  -6  10    9.73    3.07
  -6   8  10   14.47    4.48
   8  -2  10    7.60    2.77
   5   3 -10   18.52    3.85
   3  -8 -10   22.24    4.36
   5   3 -10   21.68    4.08
   3  -8 -10   20.19    3.70
  -5  -3  10   18.67    3.79
  -3   8  10   14.63    4.25
   8  -5  10   15.73    3.50
   0  -8 -10   22.70    4.98
   8   0 -10   20.01    4.03
   8   0 -10   14.30    3.30
   0  -8 -10   12.13    3.57
   8  -8  10    9.90    2.83
   0   8  10   16.66    4.94
   5  -9 -10    0.89    1.96
   4   5 -10   -0.12    1.71
   4   5 -10   -0.36    1.29
  -5   9  10   -2.06    1.70
  -4  -5  10   -0.41    1.47
   9  -4  10    0.19    1.46
   2  -9 -10   -1.54    1.93
   7   2 -10    4.40    2.38
   2  -9 -10    3.79    2.39
   9  -7  10    0.27    1.44
  -2   9  10    1.00    2.75
   0  -1 -11   -0.07    0.50
  -1   1 -11    2.30    1.00
   1   0 -11    0.99    0.78
   0  -1 -11    2.91    1.15
   1   0 -11    1.51    0.59
   1   0 -11    1.27    0.78
  -1   1 -11    0.01    0.70
  -1   1 -11    1.24    0.72
   0  -1 -11    0.12    0.61
  -1   0  11    1.53    0.72
   1  -1  11   -0.28    0.74
  -1   0  11    0.82    0.70
  -1   0  11    0.61    0.60
   0   1  11    0.31    0.85
   0   1  11   -0.06    0.69
   2  -2 -11    7.39    1.49
   0   2 -11    7.51    1.74
   0   2 -11    6.60    1.59
  -2   0 -11   10.47    2.09
   2  -2 -11    9.90    1.72
   0   2 -11    8.50    1.44
  -2   0 -11    6.39    1.50
   2  -2 -11    8.41    1.51
  -2   0 -11    9.24    1.62
  -2   2  11    9.88    1.64
  -2   2  11    8.10    1.23
   0  -2  11    9.84    2.18
   2   0  11    7.57    1.86
  -2   2  11    5.18    1.81
   2   0  11    8.06    1.60
   3  -1 -11    9.43    1.68
   3  -1 -11    7.02    1.53
   3  -1 -11   10.09    1.97
  -1  -2 -11    7.28    1.69
  -2   3 -11    9.50    1.23
  -1  -2 -11    8.97    1.89
  -1  -2 -11   11.87    2.33
  -2   3 -11   10.40    1.90
   3  -1 -11   10.71    1.30
   1   2  11    8.35    1.94
  -3   1  11    9.50    1.27
  -3   1  11    6.91    1.28
   2  -3  11    7.13    2.00
  -3   1  11    9.40    1.30
   1   2  11    8.84    2.21
   4  -3 -11    0.36    0.63
  -1   4 -11    1.84    0.98
  -1   4 -11    1.97    0.88
  -1   4 -11    1.16    0.85
   4  -3 -11    2.54    0.93
  -3  -1 -11    1.73    1.12
  -3  -1 -11    2.21    1.15
   4  -3 -11    1.76    0.82
  -4   3  11    0.05    1.14
   3   1  11    0.06    0.96
   1  -4  11    1.30    1.21
   3   1  11    2.73    1.41
   1  -4  11    0.41    1.00
  -3   2 -11    0.40    0.20
   2   1 -11    1.02    0.80
   1  -3 -11   -1.07    0.39
  -3   2 -11    0.51    0.25
  -3   2 -11   -0.24    0.51
   2   1 -11   -0.32    0.63
   1  -3 -11   -0.31    0.38
   2   1 -11   -0.17    0.57
   1  -3 -11    0.09    0.63
  -1   3  11    1.27    1.22
  -1   3  11    0.95    0.71
  -2  -1  11    0.16    0.64
  -2  -1  11    0.14    0.38
  -2  -1  11    0.11    0.58
   3  -2  11    0.67    1.06
  -2  -3 -11    5.23    1.69
   5  -2 -11    5.02    1.25
  -3   5 -11    5.19    1.50
   5  -2 -11    4.94    1.31
   5  -2 -11    5.31    1.81
   5  -2 -11    4.50    0.90
  -3   5 -11    5.85    1.51
  -3   5 -11    4.36    1.36
  -3   5 -11    4.40    1.05
  -2  -3 -11    6.50    1.98
   3  -5  11    4.66    1.85
   2   3  11    5.63    1.82
   2   3  11    3.45    1.99
   6  -4 -11    7.29    1.64
   6  -4 -11    2.49    1.62
   6  -4 -11    5.70    1.13
  -4  -2 -11    5.63    1.94
  -2   6 -11    5.57    1.70
  -4  -2 -11    8.59    2.41
  -2   6 -11    6.06    1.75
   2  -6  11    2.71    1.85
   4   2  11    5.15    2.15
   4   2  11    8.08    2.35
   2  -6  11    6.20    2.33
  -4   1 -11    0.57    0.98
  -4   1 -11    1.50    0.69
   3  -4 -11    1.80    0.99
   1   3 -11    2.37    1.12
   3  -4 -11    1.83    0.92
   1   3 -11    2.48    1.10
   1   3 -11    1.47    0.83
   3  -4 -11    0.64    0.72
  -1  -3  11    4.97    1.68
  -1  -3  11    1.52    1.10
  -3   4  11    3.26    1.83
   4  -1  11    2.17    0.87
   4  -1  11    0.94    1.03
   0  -4 -11    0.81    1.08
  -4   4 -11    0.20    0.61
   4   0 -11    0.48    0.71
   0  -4 -11    0.35    1.10
   4   0 -11    0.78    0.75
   4   0 -11    1.39    0.98
   0  -4 -11    0.91    0.94
   4   0 -11    0.62    0.73
  -4   0  11    1.41    0.77
   4  -4  11   -0.50    0.72
  -4   0  11   -0.12    0.65
   0   4  11    1.88    1.58
   0   4  11   -0.09    0.82
   7  -3 -11    2.99    0.99
  -3  -4 -11    2.94    1.79
  -3  -4 -11    6.38    2.41
   7  -3 -11    4.26    1.73
   3   4  11    3.18    1.69
   4  -7  11    6.02    2.52
   3   4  11    2.61    2.12
   4  -7  11    2.81    1.76
   8  -5 -11    4.86    2.44
  -5  -3 -11    7.49    2.58
   8  -5 -11    7.51    0.91
  -3   8 -11    6.21    2.93
   8  -5 -11    4.82    0.75
  -5  -3 -11    5.63    2.36
   5   3  11    3.35    2.16
   5   3  11    9.61    3.02
   3  -8  11    3.01    2.32
   3  -8  11    5.27    2.43
  -5   0 -11    9.29    2.31
   0   5 -11   11.83    2.39
   5  -5 -11    8.39    1.96
   0   5 -11   10.93    2.49
   5  -5 -11   11.51    1.69
   0   5 -11   12.73    2.51
  -5   0 -11   13.18    2.79
   5   0  11   15.60    2.77
   5   0  11   11.47    2.69
   0  -5  11    9.42    2.69
   0  -5  11    8.17    2.36
  -5   5  11   21.75    4.49
   3   2 -11   10.05    2.20
  -5   3 -11   13.39    2.15
   3   2 -11   10.04    2.16
   3   2 -11   11.96    2.33
   2  -5 -11   14.38    2.75
   2  -5 -11   10.50    2.23
   2  -5 -11   13.66    2.59
  -2   5  11   18.88    3.99
  -3  -2  11   17.47    2.88
  -2   5  11   12.19    3.27
   5  -3  11    9.42    2.47
  -2   5  11   17.11    2.55
   6  -1 -11    9.91    2.13
  -1  -5 -11   14.45    3.23
   6  -1 -11   11.56    2.31
  -5   6 -11   11.31    1.69
  -1  -5 -11   10.63    2.82
   6  -1 -11   12.68    2.85
   1   5  11   11.36    3.49
   5  -6  11    7.14    2.35
   9  -4 -11    3.20    2.19
  -4  -5 -11    1.31    2.29
  -4  -5 -11    5.69    2.67
   9  -4 -11    6.49    1.46
   5  -9  11    4.59    2.71
   5  -9  11    6.88    2.76
   4   5  11    4.69    2.31
   7  -6 -11    5.86    1.85
  -1   7 -11    5.49    1.93
   7  -6 -11    4.78    0.65
  -6  -1 -11    4.82    2.21
   6   1  11    4.83    2.19
   1  -7  11    7.77    2.66
   1  -7  11    9.10    3.05
   1  -7  11    5.22    2.27
   6   1  11    8.44    2.70
   2   4 -11    2.83    1.30
  -6   2 -11    2.50    1.27
   4  -6 -11    1.89    1.04
   2   4 -11    0.78    0.88
   2   4 -11    1.03    1.09
   4  -6 -11    3.00    1.60
  -2  -4  11    0.62    0.80
   6  -2  11   -0.76    1.03
  -4   6  11    2.15    1.79
  -2  -4  11    0.58    1.25
   5   1 -11    1.26    1.09
   5   1 -11    0.01    0.85
   1  -6 -11   -0.53    0.85
   1  -6 -11    0.42    0.91
   5   1 -11    1.16    1.05
  -6   5 -11    0.71    0.62
   6  -5  11    0.16    1.11
  -5  -1  11   -0.63    0.79
  -1   6  11    0.97    1.36
  -2  -6 -11    2.82    1.80
   8  -2 -11    2.67    1.26
  -2  -6 -11    0.30    1.73
   8  -2 -11    4.53    2.06
   6  -8  11    2.04    1.64
   6  -8  11    0.92    1.98
   2   6  11    4.22    2.73
  -7  -2 -11   -0.54    1.82
   7   2  11    1.26    4.44
   2  -9  11    2.77    2.47
   7   2  11    2.72    2.17
   2  -9  11    1.11    2.21
   1   6 -11    1.84    1.56
   6  -7 -11    2.03    1.57
  -7   1 -11    2.74    1.54
   7  -1  11    0.52    1.47
  -1  -6  11    0.97    1.31
  -1  -6  11    2.20    1.77
  -6   7  11    0.90    2.19
   3  -7 -11    0.93    1.32
   4   3 -11    0.11    0.91
   4   3 -11   -0.55    0.94
   4   3 -11   -1.01    0.68
   3  -7 -11   -0.47    0.98
  -3   7  11    0.34    1.38
   7  -4  11   -0.46    0.92
  -4  -3  11   -0.67    1.27
   7   0 -11    0.19    1.42
   0  -7 -11   -0.28    1.45
   0  -7 -11    1.16    1.86
   7   0 -11    1.98    1.41
   7  -7  11    0.64    1.29
   0   7  11    3.56    2.43
   8  -8 -11    9.52    2.91
   0   8 -11    5.32    2.35
  -8   8  11    7.43    3.66
   8   0  11   11.58    3.44
   0  -8  11    7.90    3.32
   3   5 -11   10.39    2.83
   3   5 -11   10.50    3.09
   5  -8 -11    7.33    2.61
  -5   8  11    8.30    3.75
   8  -3  11   12.03    3.23
  -3  -5  11    8.08    3.08
   6   2 -11    8.00    2.59
   2  -8 -11    5.42    2.28
   6   2 -11    9.37    2.73
   2  -8 -11    7.37    2.76
   8  -6  11    5.15    2.39
  -6  -2  11    8.15    2.33
  -2   8  11   13.45    4.31
   7  -9 -11    0.49    1.67
   2   7 -11    0.71    1.68
  -7   9  11    2.50    2.86
   9  -2  11    5.23    2.84
  -2  -7  11    2.68    2.63
   5   4 -11    0.00    1.44
   4  -9 -11    2.26    1.99
   5   4 -11    0.70    1.51
  -4   9  11    1.23    2.65
  -5  -4  11    1.74    2.02
   9  -5  11   -0.51    1.41
   0   0 -12  459.14   25.50
   0   0 -12  542.59   26.15
   0   0 -12  502.94   27.04
   0   0 -12  487.59   25.18
   0   0  12  506.65   26.29
   0   0  12  514.01   25.65
   2  -1 -12   84.97    5.36
  -1  -1 -12   74.42    5.63
  -1  -1 -12   62.41    5.13
   2  -1 -12   77.82    5.15
  -1  -1 -12   70.45    5.12
  -1   2 -12   73.85    4.67
   2  -1 -12   72.15    4.63
  -1   2 -12   77.42    5.27
  -1   2 -12   70.29    4.45
   1  -2  12   74.90    5.99
  -2   1  12   72.91    5.81
  -2   1  12   74.44    4.77
   1   1  12   70.53    5.50
  -2   1  12   81.53    4.81
  -2   1  12   75.24    5.07
   1   1  12   77.36    5.55
   1   1 -12  233.73   13.77
   1   1 -12  265.98   14.19
   1  -2 -12  245.10   13.68
   1  -2 -12  288.00   14.32
  -2   1 -12  264.17   13.30
   1   1 -12  237.97   13.55
   1  -2 -12  250.21   13.83
  -2   1 -12  259.94   14.09
   2  -1  12  250.32   13.01
  -1   2  12  264.51   13.62
   2  -1  12  239.76   14.48
  -1  -1  12  252.23   13.23
  -1  -1  12  253.29   14.34
  -1  -1  12  268.84   14.29
  -1   2  12  240.95   14.75
   4  -2 -12  196.18   10.37
  -2   4 -12  183.22    9.81
  -2  -2 -12  186.24   11.03
   4  -2 -12  190.52   10.28
  -2  -2 -12  171.06   11.00
  -2   4 -12  175.79   10.49
   4  -2 -12  185.63    9.72
   4  -2 -12  167.07   10.94
   2  -4  12  175.39   11.63
   2   2  12  172.63   11.30
   2   2  12  175.88   11.05
   3  -3 -12  356.24   17.46
   0   3 -12  337.80   17.82
   3  -3 -12  325.36   17.35
  -3   0 -12  346.95   18.01
   3  -3 -12  329.10   17.22
   0   3 -12  321.96   17.21
  -3   0 -12  323.07   18.01
   0  -3  12  316.84   18.52
  -3   3  12  351.71   19.58
   3   0  12  327.30   17.52
   0  -3  12  340.62   18.60
   3   0  12  287.71   18.03
   3   0 -12  362.74   17.93
  -3   3 -12  331.74   16.03
   0  -3 -12  358.15   18.52
  -3   3 -12  336.08   17.69
   3   0 -12  354.89   17.80
   0  -3 -12  312.30   17.97
   0  -3 -12  327.86   18.03
   3   0 -12  332.94   17.98
  -3   0  12  327.76   17.33
  -3   0  12  322.67   17.22
   0   3  12  322.84   19.06
  -3   0  12  336.72   17.61
   0   3  12  331.41   18.14
   3  -3  12  303.03   18.64
   6  -3 -12  180.65    9.99
  -3  -3 -12  174.73   11.65
   6  -3 -12  195.65   10.44
  -3   6 -12  185.04   10.91
  -3  -3 -12  178.65   11.94
  -3   6 -12  178.18   11.17
   6  -3 -12  194.56   12.09
   3   3  12  179.92   11.85
   3   3  12  196.01   12.69
   3  -6  12  183.56   12.43
   3  -6  12  176.82   12.30
   5  -4 -12   38.00    3.04
   5  -4 -12   36.84    3.84
  -4  -1 -12   31.04    4.25
  -1   5 -12   34.09    4.19
   5  -4 -12   36.13    2.93
  -1   5 -12   36.00    3.95
  -1   5 -12   44.38    4.79
  -4  -1 -12   38.93    4.89
   1  -5  12   28.22    4.61
   4   1  12   42.90    5.13
   1  -5  12   42.48    5.65
   4   1  12   47.21    5.22
  -5   4  12   54.08    7.01
   2   2 -12   55.06    4.44
   2   2 -12   60.31    4.84
   2  -4 -12   55.92    4.45
   2  -4 -12   59.01    4.31
  -4   2 -12   52.94    4.32
   2   2 -12   51.92    4.35
  -4   2 -12   51.97    2.81
   2  -4 -12   56.67    4.58
   2   2 -12   51.99    4.25
  -2  -2  12   47.19    5.29
  -2   4  12   58.35    4.42
  -2   4  12   70.03    7.55
   4  -2  12   48.43    5.62
  -2  -2  12   49.53    3.28
  -2  -2  12   52.05    4.49
  -2   4  12   57.42    3.71
   5  -1 -12   33.79    4.41
   5  -1 -12   41.06    4.16
  -1  -4 -12   48.41    5.38
   5  -1 -12   36.86    3.91
  -4   5 -12   39.60    3.37
   5  -1 -12   42.90    3.65
  -1  -4 -12   37.28    4.90
   1   4  12   42.15    4.91
   4  -5  12   35.95    5.11
   1   4  12   41.21    5.94
  -4  -4 -12   13.79    3.63
   8  -4 -12   18.87    2.32
   8  -4 -12   22.14    4.06
  -4  -4 -12   20.31    4.06
   4  -8  12   16.21    4.08
   4   4  12   26.91    4.66
   4  -8  12   22.56    4.57
   4   4  12   27.26    5.37
   7  -5 -12   66.05    4.08
   7  -5 -12   59.93    5.15
   7  -5 -12   66.42    7.54
  -2   7 -12   77.39    6.00
  -5  -2 -12   83.11    7.84
  -5  -2 -12   71.79    7.73
  -2   7 -12   77.34    8.24
   2  -7  12   59.20    7.57
   2  -7  12   65.92    8.00
   5   2  12   83.09    8.40
   5   2  12   84.54    7.04
  -5   1 -12  124.99    8.48
   4  -5 -12  138.20    8.68
   4  -5 -12  136.43    7.97
   1   4 -12  138.30    8.78
   1   4 -12  127.89    8.75
   4  -5 -12  133.30    7.88
   1   4 -12  124.15    8.33
   5  -1  12  116.21    8.91
  -4   5  12  126.38   10.40
  -1  -4  12  136.47    9.54
   5  -1  12  133.58    7.96
  -1  -4  12  126.75    9.11
   1  -5 -12  134.56    8.92
   4   1 -12  130.13    8.30
   4   1 -12  136.75    8.60
   1  -5 -12  116.52    8.31
  -5   4 -12  135.68    7.67
   4   1 -12  111.77    8.11
  -1   5  12  130.11   10.04
  -4  -1  12  126.37    7.96
   5  -4  12  117.85    8.95
  -2  -5 -12   73.17    7.93
   7  -2 -12   62.62    7.02
  -2  -5 -12   84.14    8.61
   7  -2 -12   72.14    5.46
   2   5  12   79.43    9.40
   5  -7  12   66.02    7.54
  -6  -3 -12   71.81    8.09
   9  -6 -12   70.04    8.18
  -6  -3 -12   85.18    9.23
   6   3  12   79.07    9.48
   6   3  12   77.63    9.20
   3  -9  12   62.09    8.61
   3  -9  12   64.33    8.70
   3  -9  12   67.55    8.46
   6  -6 -12  140.12    9.20
   0   6 -12  145.56    9.54
   0   6 -12  134.26    9.45
   6  -6 -12  133.80    7.82
  -6   0 -12  119.56    9.14
  -6   6  12  138.23   11.46
   0  -6  12  138.24   10.59
   6   0  12  153.42   10.35
   6   0  12  148.90    9.58
   0  -6  12  130.96    9.22
   0  -6  12  141.17   10.41
   3   3 -12  202.29   11.49
   3   3 -12  173.43   11.32
   3  -6 -12  170.29   10.69
   3  -6 -12  172.38   11.40
   3   3 -12  164.44   11.06
  -6   3 -12  184.61   10.30
  -3   6  12  192.14   13.62
  -3  -3  12  180.48   11.48
   6  -3  12  172.31   11.70
   6   0 -12  154.34    9.34
   6   0 -12  139.28    9.50
   0  -6 -12  126.63    9.65
   6   0 -12  123.10    8.91
   0  -6 -12  123.16    9.49
   0   6  12  147.38   11.43
   6  -6  12  128.22    9.64
   9  -3 -12   65.11    7.42
  -3  -6 -12   67.39    8.31
  -3  -6 -12   73.82    9.09
   3   6  12   59.06    8.76
   6  -9  12   54.76    7.43
   8  -7 -12   16.27    4.03
  -1   8 -12   13.78    4.38
  -7  -1 -12   14.69    3.55
  -1   8 -12   19.29    3.73
   8  -7 -12   13.43    3.09
   1  -8  12   16.77    4.27
   1  -8  12   11.13    3.24
   7   1  12   19.34    4.36
   2   5 -12   21.22    3.70
   2   5 -12   25.53    4.17
   2   5 -12   21.79    3.92
   5  -7 -12   25.98    4.15
  -7   2 -12   25.11    3.28
  -5   7  12   38.61    6.79
   7  -2  12   22.65    4.21
  -2  -5  12   21.54    4.29
   2  -7 -12   34.26    4.66
   2  -7 -12   21.00    3.97
   5   2 -12   24.71    4.13
   5   2 -12   32.53    4.61
   5   2 -12   22.10    3.83
   7  -5  12   26.93    4.57
  -2   7  12   24.61    5.33
  -5  -2  12   20.00    3.50
  -1  -7 -12   17.36    4.22
   8  -1 -12   13.29    2.86
   8  -1 -12    7.46    2.71
  -1  -7 -12   15.99    3.95
   1   7  12   13.22    4.08
   7  -8  12   11.02    3.13
   1   7 -12   49.56    6.55
   7  -8 -12   32.81    4.98
   8  -1  12   50.66    6.98
  -7   8  12   48.23    8.28
  -1  -7  12   39.58    6.58
   4   4 -12   61.72    7.11
   4   4 -12   63.74    7.17
   4  -8 -12   57.43    7.01
  -4  -4  12   57.43    6.93
  -4   8  12   63.39    9.15
   8  -4  12   48.30    6.55
   1  -8 -12   43.41    6.58
   7   1 -12   48.07    6.40
   1  -8 -12   53.54    7.10
   7   1 -12   54.53    6.90
  -1   8  12   58.86    9.02
   6  -9 -12   50.78    6.80
   3   6 -12   80.53    8.59
  -3  -6  12   57.50    7.90
   9  -3  12   74.66    8.53
  -6   9  12   49.90    8.96
   6   3 -12   63.78    7.74
   3  -9 -12   55.69    7.53
   6   3 -12   61.46    7.63
  -6  -3  12   57.02    7.44
   9  -6  12   62.40    7.47
  -3   9  12   61.72    9.64
  -1   0 -13   -1.30    0.61
   1  -1 -13    0.14    0.70
   1  -1 -13    0.25    0.83
  -1   0 -13    1.71    1.50
  -1   0 -13   -0.36    0.55
   1  -1 -13    0.41    0.62
   0   1 -13    0.52    0.99
  -1   0 -13    0.57    0.83
   0   1 -13    0.06    0.69
   0   1 -13   -0.06    0.49
  -1   1  13   -0.34    0.57
   1   0  13   -0.60    0.55
   1   0  13   -0.24    0.88
  -1   1  13    0.80    0.71
   0  -1  13    1.17    1.03
   3  -2 -13    3.88    1.30
  -1   3 -13    0.87    0.69
   3  -2 -13    2.47    1.02
  -2  -1 -13    2.23    1.23
  -1   3 -13    0.13    0.81
   3  -2 -13    1.95    0.85
  -2  -1 -13    1.89    1.24
   2   1  13    2.44    1.34
  -3   2  13    2.04    0.76
   2   1  13    2.11    1.27
  -3   2  13    1.62    0.52
  -3   2  13    2.02    0.53
  -3   2  13    0.84    1.13
   1  -3  13   -0.40    0.69
   2   0 -13   -0.10    0.71
   0  -2 -13    0.61    1.06
   2   0 -13    0.01    0.68
  -2   2 -13    2.35    1.07
  -2   2 -13    1.16    0.53
   2   0 -13    0.83    0.84
   0  -2 -13    0.72    0.86
   2   0 -13    0.02    0.39
   0  -2 -13    0.50    0.83
  -2   2 -13    1.57    0.68
  -2   0  13    1.32    0.82
   0   2  13    1.35    1.10
   0   2  13    1.04    0.97
   2  -2  13   -0.66    0.94
  -2   0  13    0.67    0.56
   5  -3 -13    7.82    1.67
  -2   5 -13    6.18    1.73
   5  -3 -13    6.22    1.41
  -3  -2 -13    5.25    1.72
  -2   5 -13    4.33    1.29
  -2   5 -13    3.89    1.57
   5  -3 -13    5.18    1.92
   5  -3 -13    7.66    1.62
  -3  -2 -13    3.64    1.58
   3   2  13    1.66    1.52
   2  -5  13    2.63    1.77
   2  -5  13    9.28    2.71
   3   2  13    5.05    1.83
  -3   1 -13    6.45    1.77
   2  -3 -13    7.81    1.83
   1   2 -13    9.57    2.08
   2  -3 -13    8.24    1.86
  -3   1 -13    6.91    1.27
   1   2 -13    4.67    1.36
   2  -3 -13    7.20    1.75
   1   2 -13    7.79    2.38
   3  -1  13    6.28    2.08
  -2   3  13    8.60    1.84
  -1  -2  13    5.50    1.85
   3  -1  13    7.29    1.27
  -1  -2  13    5.51    1.17
  -2   3  13    5.35    2.09
  -1  -2  13    4.95    1.76
  -2   3  13    7.13    1.31
  -3   4 -13    5.77    0.93
   4  -1 -13    3.00    1.27
  -3   4 -13    5.88    0.84
  -3   4 -13    4.31    0.66
  -3   4 -13    4.58    1.39
   4  -1 -13    4.57    1.67
   4  -1 -13    5.90    0.76
  -1  -3 -13    4.80    1.76
  -1  -3 -13    3.04    1.43
   4  -1 -13    3.60    1.32
   1   3  13    1.63    1.63
   1   3  13    4.28    1.44
   3  -4  13    4.18    1.88
  -4   1  13    3.60    0.82
  -4   1  13    5.31    0.88
  -3   7 -13    0.08    0.97
   7  -4 -13    0.28    0.60
  -4  -3 -13    1.09    1.47
   7  -4 -13    4.08    2.11
  -4  -3 -13    1.22    1.60
   4   3  13    2.35    1.72
   4   3  13    2.16    1.93
   3  -7  13   -0.12    1.73
   3  -7  13    1.76    1.68
   0   4 -13   -0.46    0.70
   0   4 -13    0.30    0.72
   4  -4 -13    0.10    0.85
  -4   0 -13    0.12    0.94
   0   4 -13    0.59    0.98
   4  -4 -13    0.06    0.67
  -4   0 -13    0.02    0.72
   4  -4 -13    0.12    0.63
  -4   4  13   -0.30    1.24
   4   0  13   -0.05    0.80
   4   0  13   -1.36    0.73
   0  -4  13    0.12    1.31
   0  -4  13   -0.34    0.95
   3   1 -13    3.00    1.24
  -4   3 -13    3.91    1.29
   3   1 -13    2.87    1.17
   3   1 -13    3.76    1.43
   3   1 -13    1.77    1.02
   1  -4 -13    1.83    1.14
   1  -4 -13    1.55    1.21
   1  -4 -13    1.14    1.08
  -3  -1  13    4.37    1.40
  -1   4  13    2.69    1.46
  -3  -1  13    0.19    0.66
  -1   4  13    0.88    0.90
   4  -3  13    1.40    1.24
   6  -2 -13    7.35    1.62
   6  -2 -13    7.00    1.71
  -2  -4 -13    2.70    1.66
  -4   6 -13    7.72    1.76
   6  -2 -13    3.17    1.62
  -2  -4 -13    6.72    2.25
   2   4  13    5.10    2.09
   2   4  13    8.99    2.82
   4  -6  13    8.69    2.67
  -5  -4 -13    7.83    2.98
   9  -5 -13    3.40    2.04
   9  -5 -13    4.93    0.91
  -5  -4 -13    2.99    2.35
   4  -9  13    5.07    2.73
   4  -9  13    6.10    3.05
   5   4  13    0.54    2.19
  -5  -1 -13    2.92    1.65
  -1   6 -13    2.30    1.36
   6  -5 -13    2.08    0.91
  -5  -1 -13    2.78    1.72
   6  -5 -13    4.80    1.62
  -1   6 -13    2.86    1.51
   1  -6  13    4.56    2.27
  -6   5  13    1.30    1.79
   5   1  13    2.37    1.64
   1  -6  13   -0.35    1.33
   5   1  13    3.31    1.84
   2   3 -13   -0.47    0.57
   3  -5 -13   -0.01    0.80
   3  -5 -13    1.84    1.29
   2   3 -13   -0.84    0.76
   3  -5 -13    0.04    0.83
  -5   2 -13    0.33    0.75
   2   3 -13    1.68    1.20
  -2  -3  13    1.97    1.50
   5  -2  13    0.05    1.02
  -2  -3  13    0.22    1.06
  -3   5  13   -0.67    1.20
   5   0 -13    1.80    1.16
   0  -5 -13    1.16    1.30
  -5   5 -13    1.69    0.93
   0  -5 -13    0.36    1.05
   5   0 -13    1.58    1.28
   5   0 -13    0.85    1.00
   5  -5  13    0.64    1.19
  -5   0  13    1.11    0.84
   0   5  13    1.17    1.84
  -3  -5 -13    3.78    2.28
   8  -3 -13    2.36    2.03
   8  -3 -13    2.45    1.12
  -3  -5 -13    5.30    2.54
   5  -8  13    3.86    2.27
   5  -8  13    0.31    2.22
   3   5  13    5.77    2.75
  -6  -2 -13    4.39    2.30
  -2   8 -13    4.42    2.24
   8  -6 -13    5.91    2.70
  -6  -2 -13    4.09    2.30
  -2   8 -13   10.09    3.50
   2  -8  13    5.05    2.79
   6   2  13    8.69    3.11
   6   2  13    7.16    2.84
   2  -8  13    4.79    2.68
  -6   1 -13    9.81    2.39
   1   5 -13   12.55    2.95
   1   5 -13    7.10    2.17
   5  -6 -13    8.63    2.31
   1   5 -13    9.30    2.39
   6  -1  13   15.53    3.44
  -1  -5  13   11.31    3.01
  -1  -5  13    7.01    2.53
  -1  -5  13    8.94    2.09
  -5   6  13    9.10    3.39
   2  -6 -13   11.13    2.57
   4   2 -13   10.89    2.65
   4   2 -13    9.62    2.41
   2  -6 -13   12.09    2.88
  -6   4 -13    9.08    1.77
   4   2 -13   11.17    2.54
  -4  -2  13   12.59    2.69
  -2   6  13   11.89    3.56
   6  -4  13    8.13    2.55
  -1  -6 -13    6.10    2.49
  -1  -6 -13    5.75    2.38
   7  -1 -13    5.39    1.74
   7  -1 -13    4.61    2.12
   6  -7  13   10.14    3.11
   7  -7 -13   -0.77    1.23
   0   7 -13    0.79    1.47
  -7   0 -13   -0.74    1.56
   0  -7  13    0.30    1.46
  -7   7  13    0.25    1.76
   7   0  13    0.68    1.60
   0  -7  13    3.13    2.47
  -7   3 -13    1.33    1.03
   4  -7 -13   -0.10    1.40
   3   4 -13   -0.22    1.09
   3   4 -13    4.91    1.94
   3   4 -13    2.65    1.64
   7  -3  13    1.02    1.53
  -4   7  13    0.84    2.07
  -3  -4  13    2.25    1.75
   6   1 -13    5.92    2.07
   1  -7 -13    6.83    2.60
   1  -7 -13    7.87    2.68
   6   1 -13    6.39    2.41
   6   1 -13    2.68    1.83
  -1   7  13    6.13    3.20
   7  -6  13    6.81    2.43
   6  -8 -13    1.26    1.72
   2   6 -13   -1.18    1.28
  -6   8  13    0.97    2.49
  -2  -6  13    0.60    1.78
   8  -2  13   -0.05    1.63
   3  -8 -13   -1.97    1.14
   5   3 -13    0.21    1.16
   5   3 -13    0.92    1.69
   3  -8 -13    1.76    1.86
   5   3 -13   -1.79    0.98
  -3   8  13   -0.32    1.50
   8  -5  13   -1.09    1.22
  -5  -3  13   -1.61    1.31
   8   0 -13    0.74    1.70
   0  -8 -13    0.57    1.98
   8   0 -13    1.70    1.62
   0  -8 -13    1.07    2.01
   8  -8  13    2.86    1.85
   0   8  13   -0.40    2.24
   5  -9 -13   12.99    3.49
   4   5 -13    8.10    3.01
   4   5 -13    5.85    2.72
  -5   9  13    8.73    3.80
   9  -4  13    9.41    3.01
  -4  -5  13    7.04    2.82
   1   0 -14   -0.07    0.43
   0  -1 -14   -0.47    0.81
   1   0 -14    0.61    0.86
   0  -1 -14   -0.69    0.49
   1   0 -14   -0.11    0.49
  -1   1 -14   -1.00    0.63
   0  -1 -14   -0.08    0.46
  -1   1 -14    0.90    0.83
   1   0 -14   -0.68    0.53
   1  -1  14   -1.01    0.84
  -1   0  14   -0.10    0.94
   0   1  14    0.08    0.84
   0   1  14    0.33    0.86
   2  -2 -14    2.09    1.14
   0   2 -14    2.08    1.10
   2  -2 -14    1.56    0.94
  -2   0 -14    1.65    1.10
   0   2 -14    2.31    0.99
  -2   0 -14    0.11    0.53
   2  -2 -14    0.58    0.77
   0  -2  14    2.18    1.47
   2   0  14    3.05    1.54
  -2   2  14    1.29    1.00
  -2   2  14    1.37    0.79
   2   0  14    1.93    1.00
  -2   2  14   -0.54    0.91
  -2   3 -14    1.05    0.59
  -1  -2 -14    2.27    1.30
   3  -1 -14    0.44    0.53
   3  -1 -14    1.30    1.00
  -2   3 -14    1.27    0.72
   3  -1 -14    2.02    1.13
   3  -1 -14    2.48    1.15
  -2   3 -14    1.76    0.93
  -1  -2 -14   -0.25    0.74
  -3   1  14    1.23    0.81
   1   2  14    1.33    1.17
   1   2  14    4.30    1.74
   2  -3  14    0.43    1.12
  -3   1  14    1.87    0.91
  -3   1  14    2.21    0.84
  -3   1  14    3.02    0.89
   4  -3 -14    0.30    0.74
   4  -3 -14   -0.47    0.69
  -3  -1 -14    0.81    1.02
   4  -3 -14    0.15    0.64
  -3  -1 -14    0.25    0.95
  -1   4 -14    0.34    0.68
  -1   4 -14    0.74    0.96
  -1   4 -14   -0.44    0.67
   1  -4  14    1.42    1.36
   3   1  14   -0.14    0.72
  -4   3  14    0.05    1.15
   1  -4  14    1.03    1.64
   3   1  14   -0.29    0.85
  -3   2 -14    3.17    1.23
   1  -3 -14    3.01    1.43
   2   1 -14    1.59    1.24
   1  -3 -14   -0.26    0.64
   1  -3 -14    2.69    1.26
   2   1 -14    3.99    1.37
  -3   2 -14    2.01    0.54
   2   1 -14    1.19    0.92
  -2  -1  14    2.05    1.17
  -2  -1  14    1.92    1.22
  -1   3  14    2.09    1.47
  -2  -1  14    1.72    0.77
  -1   3  14    0.08    0.68
   3  -2  14    1.10    1.25
  -3   5 -14    5.65    1.33
  -3   5 -14    3.65    1.58
   5  -2 -14    5.31    1.61
  -2  -3 -14    8.13    2.27
  -3   5 -14    6.99    1.32
  -2  -3 -14    5.42    1.89
   5  -2 -14    3.25    0.85
   5  -2 -14    4.44    1.46
  -3   5 -14    4.51    1.57
   5  -2 -14    4.79    1.84
   2   3  14    5.98    2.32
   3  -5  14    2.23    1.86
   2   3  14    3.55    1.60
   6  -4 -14    3.37    1.85
  -4  -2 -14    7.70    2.38
  -4  -2 -14    2.95    1.68
   6  -4 -14    6.70    1.44
  -2   6 -14    3.82    1.60
   6  -4 -14    7.04    1.66
  -2   6 -14    5.90    1.73
   4   2  14    4.40    1.96
   4   2  14   10.14    2.96
   2  -6  14    6.57    2.66
   2  -6  14    5.93    2.60
   1   3 -14    3.35    1.45
   1   3 -14    4.22    1.53
  -4   1 -14    4.00    1.10
   3  -4 -14    5.17    1.57
   3  -4 -14    2.97    1.49
  -4   1 -14    5.00    1.66
   1   3 -14    3.95    1.37
   3  -4 -14    5.09    1.54
   4  -1  14    5.71    1.29
  -3   4  14    2.44    1.88
  -1  -3  14    5.56    2.05
  -1  -3  14    5.13    2.00
   4  -1  14    4.56    1.69
   0  -4 -14    1.22    1.16
   4   0 -14    0.78    1.05
   0  -4 -14   -0.52    0.79
   4   0 -14   -0.46    0.83
  -4   4 -14    1.99    1.04
   0   4  14    2.37    1.61
   4  -4  14   -0.26    1.07
  -4   0  14    0.55    0.78
   0   4  14    1.26    1.22
  -3  -4 -14   -1.96    0.99
   7  -3 -14    0.86    0.88
  -3  -4 -14    0.12    1.18
   7  -3 -14    0.84    1.44
  -4   7 -14    0.23    1.02
   3   4  14    2.13    1.91
   4  -7  14   -2.67    1.32
   4  -7  14   -0.70    1.50
  -5  -3 -14    5.18    2.31
   8  -5 -14    5.74    2.67
  -5  -3 -14    5.46    2.37
   8  -5 -14    3.12    0.91
   5   3  14    2.78    2.27
   3  -8  14    5.42    3.13
   5   3  14    5.02    2.49
   3  -8  14    7.00    3.12
  -5   0 -14    1.94    1.34
   5  -5 -14    2.74    1.36
   5  -5 -14    3.63    1.25
   0   5 -14    2.58    1.33
   0   5 -14    2.62    1.35
   0   5 -14    4.69    1.58
  -5   0 -14    3.07    1.42
   0  -5  14    2.42    1.71
   5   0  14    0.95    1.56
   5   0  14    3.62    1.65
  -5   5  14    0.94    1.69
   0  -5  14    6.49    2.57
   3   2 -14   -0.31    0.86
   2  -5 -14   -0.22    0.79
   3   2 -14    0.19    0.88
  -5   3 -14   -0.07    0.64
   2  -5 -14   -0.87    0.90
   3   2 -14    0.04    0.67
   5  -3  14   -0.09    1.19
  -3  -2  14   -0.21    0.85
  -2   5  14   -0.61    1.30
  -5   6 -14    3.10    1.28
  -1  -5 -14    1.25    1.55
   6  -1 -14    2.42    1.52
   6  -1 -14    1.96    1.51
  -1  -5 -14    1.21    1.68
   6  -1 -14    2.88    1.28
   5  -6  14   -0.09    1.22
   1   5  14    5.65    2.88
  -4  -5 -14    5.18    2.61
  -4  -5 -14    5.45    2.79
   9  -4 -14    3.02    2.34
   9  -4 -14    5.23    1.44
   5  -9  14    1.03    2.05
   4   5  14    4.97    2.84
   5  -9  14    5.09    3.00
  -1   7 -14   -0.48    1.26
  -1   7 -14    0.50    1.28
  -6  -1 -14   -0.12    1.25
   7  -6 -14   -1.28    1.00
   6   1  14   -0.37    1.72
   1  -7  14    2.27    2.17
   6   1  14    1.21    1.62
   1  -7  14    4.38    2.86
   4  -6 -14    1.97    1.32
   2   4 -14    1.88    1.26
   2   4 -14    1.47    1.15
   4  -6 -14    1.66    1.30
   2   4 -14    4.55    1.95
  -6   2 -14    1.76    1.32
   6  -2  14    1.55    1.46
  -2  -4  14    3.81    1.79
  -4   6  14    2.28    2.02
   5   1 -14    2.42    1.54
   1  -6 -14    5.96    2.24
   5   1 -14    7.49    2.38
  -6   5 -14    5.16    1.39
   1  -6 -14    5.49    2.13
   5   1 -14    4.87    1.80
  -5  -1  14    6.64    1.88
   6  -5  14    0.58    1.50
  -1   6  14    5.69    2.67
   8  -2 -14    2.93    2.22
  -2  -6 -14    2.43    2.31
   8  -2 -14    6.73    1.96
  -2  -6 -14    6.72    2.90
   2   6  14    6.81    3.51
   6  -8  14    0.72    1.90
  -7   1 -14    9.65    2.59
   1   6 -14    9.27    2.59
   1   6 -14    3.03    1.70
   6  -7 -14   10.79    2.91
  -6   7  14    6.54    3.05
   7  -1  14    9.25    3.15
  -1  -6  14    6.71    2.45
   4   3 -14    2.83    1.82
   4   3 -14    4.04    1.81
   4   3 -14    5.59    2.19
   3  -7 -14    2.22    1.77
   3  -7 -14    4.92    2.28
   7  -4  14    4.69    2.08
  -4  -3  14    0.73    1.62
  -3   7  14    5.81    3.14
   0  -7 -14    1.68    1.80
   0  -7 -14   -0.33    1.32
   7   0 -14   -0.27    1.03
   7   0 -14    0.87    1.58
   0   7  14   -0.99    2.05
   7  -7  14   -0.93    1.43
   8  -8 -14    0.73    2.23
   0   8 -14    3.88    2.35
   0  -8  14    3.59    2.73
   8   0  14    3.04    2.50
   3   5 -14    0.77    1.40
   3   5 -14    1.24    1.56
   3   5 -14    0.91    1.49
   5  -8 -14    1.04    1.73
   8  -3  14    2.09    1.96
  -3  -5  14    1.35    1.88
  -5   8  14    1.05    2.28
   6   2 -14   -0.25    1.45
   6   2 -14    0.05    1.83
   2  -8 -14   -0.29    1.06
   2  -8 -14    0.42    1.59
   6   2 -14   -0.65    1.01
  -2   8  14    1.51    1.99
   8  -6  14   -1.71    1.15
   4  -9 -14    2.12    2.16
   5   4 -14    0.97    1.72
   5   4 -14    2.11    2.00
  -5  -4  14    4.42    2.39
   9  -5  14    3.31    2.39
  -4   9  14    2.02    2.75
   0   0 -15   26.20    3.70
   0   0 -15   23.00    2.90
   0   0 -15   20.74    3.17
   0   0  15   29.17    4.18
   0   0  15   25.96    3.37
   2  -1 -15  385.99   19.49
  -1   2 -15  369.69   19.27
  -1  -1 -15  376.58   20.49
  -1  -1 -15  376.03   20.22
   2  -1 -15  417.11   20.53
   2  -1 -15  382.72   20.21
  -1   2 -15  381.79   19.78
  -1   2 -15  382.59   20.39
   1  -2  15  387.20   21.54
   1   1  15  355.68   20.47
  -2   1  15  369.95   19.92
   1   1  15  352.40   20.72
  -2   1  15  380.62   20.34
   1  -2 -15  201.14   11.73
   1   1 -15  213.44   11.93
  -2   1 -15  192.93   10.87
   1  -2 -15  197.87   11.43
  -2   1 -15  184.32   11.47
   1   1 -15  183.41   11.36
   1  -2 -15  181.70   11.08
   1   1 -15  197.21   11.12
  -1   2  15  183.63   12.17
  -1  -1  15  196.37   12.12
   2  -1  15  195.43   10.47
   2  -1  15  191.75   12.32
  -2   4 -15  141.69    7.94
  -2  -2 -15  135.23    9.34
  -2   4 -15  124.16    8.72
   4  -2 -15  160.15    9.02
   4  -2 -15  141.31    8.73
   4  -2 -15  118.63    9.05
  -2  -2 -15  135.19    9.16
   4  -2 -15  142.87    7.96
   2   2  15  147.40    9.68
   2   2  15  143.03    9.68
   2  -4  15  129.22   10.07
   3  -3 -15   13.14    2.34
  -3   0 -15   14.54    2.79
   0   3 -15   15.92    2.36
   3  -3 -15   16.62    2.67
  -3   0 -15   20.45    3.19
   3  -3 -15   24.19    3.14
   0   3 -15   14.35    2.74
   0  -3  15   17.83    3.66
  -3   3  15   18.29    3.85
   3   0  15   15.42    3.14
   0  -3  15   13.34    3.16
  -3   3  15    9.36    1.16
  -3   3  15   16.16    1.26
   3   0  15   14.11    2.40
  -3   3 -15   14.20    1.39
   0  -3 -15   13.12    2.64
   3   0 -15   17.42    2.89
  -3   3 -15   19.63    2.97
   3   0 -15   15.00    2.75
   3   0 -15   16.86    2.79
   0  -3 -15   15.18    3.09
   0  -3 -15   11.26    2.49
  -3   0  15   15.41    2.61
  -3   0  15   18.48    1.76
   0   3  15   18.72    3.74
   0   3  15   19.07    3.22
   3  -3  15   10.84    2.98
  -3   0  15   12.68    2.14
  -3  -3 -15    9.76    2.70
   6  -3 -15    6.56    2.43
  -3  -3 -15   11.06    2.82
  -3   6 -15    7.32    2.03
   3   3  15    6.63    2.30
   3   3  15    9.69    3.05
   3  -6  15   12.59    3.42
   3  -6  15    8.20    3.03
   5  -4 -15  211.39   11.49
  -1   5 -15  206.24   12.61
  -1   5 -15  202.93   11.72
  -1   5 -15  192.13   12.19
   5  -4 -15  207.39   13.43
  -4  -1 -15  192.71   12.61
  -4  -1 -15  192.63   12.42
   5  -4 -15  197.07   11.55
   4   1  15  199.84   13.03
   1  -5  15  195.94   13.65
   4   1  15  189.03   12.34
   1  -5  15  205.75   13.74
  -5   4  15  209.28   14.53
   2  -4 -15  261.64   14.99
   2   2 -15  265.46   14.93
   2  -4 -15  313.78   17.07
  -4   2 -15  261.56   15.09
   2   2 -15  268.47   15.26
   2  -4 -15  253.24   15.08
   4  -2  15  229.68   15.74
  -2   4  15  264.64   16.92
  -2  -2  15  272.39   15.83
  -2  -2  15  272.96   15.53
  -1  -4 -15  194.52   12.47
  -1  -4 -15  179.34   12.28
   5  -1 -15  190.53   12.29
  -4   5 -15  183.51   11.35
   5  -1 -15  209.32   11.89
   4  -5  15  195.41   13.22
   1   4  15  210.68   12.76
   1   4  15  190.40   13.28
   8  -4 -15   97.78    9.69
  -4  -4 -15   86.31    9.60
  -4  -4 -15   87.93    9.28
   4  -8  15   77.53    9.58
   4  -8  15   84.68    9.91
   4   4  15   98.80   10.65
  -2   7 -15   68.92    6.96
  -2   7 -15   57.83    6.00
   7  -5 -15   50.07    6.77
  -5  -2 -15   75.89    7.74
  -5  -2 -15   62.97    7.34
   2  -7  15   54.71    7.64
   5   2  15   67.89    7.96
   2  -7  15   63.39    8.35
   5   2  15   55.32    7.16
   4  -5 -15   98.41    7.18
  -5   1 -15   92.34    7.28
   4  -5 -15   98.16    6.81
   1   4 -15  101.86    7.11
   1   4 -15  106.07    7.59
   1   4 -15  102.26    7.65
   5  -1  15  107.20    8.21
  -1  -4  15   87.01    7.75
  -1  -4  15  107.02    8.53
  -4   5  15   97.02   10.81
   1  -5 -15   93.56    7.51
  -5   4 -15   89.02    6.53
   1  -5 -15   93.36    7.31
   4   1 -15   95.41    7.19
   4   1 -15  101.13    7.34
   4   1 -15  106.91    7.37
  -1   5  15  110.59    9.04
  -4  -1  15   95.41    6.79
   5  -4  15  100.93    8.22
  -2  -5 -15   65.31    7.59
   7  -2 -15   65.27    5.35
  -5   7 -15   60.91    4.91
   7  -2 -15   62.47    7.28
  -2  -5 -15   85.59    8.73
   5  -7  15   41.28    6.53
   0   6 -15    7.79    2.27
   6  -6 -15    6.06    2.13
  -6   0 -15    0.65    1.43
   0   6 -15    6.89    2.29
  -6   6  15    9.28    3.49
   6   0  15    6.81    2.59
   0  -6  15    6.12    2.72
   0  -6  15    2.62    2.27
   3   3 -15    8.17    2.30
   3  -6 -15    7.85    2.18
   3   3 -15   10.34    2.67
   3  -6 -15    6.98    2.37
   3   3 -15    6.97    2.26
  -6   3 -15    6.99    1.92
   6  -3  15   11.75    3.13
  -3  -3  15    9.91    2.70
  -3   6  15    3.32    2.53
   6   0 -15    7.48    2.52
   6   0 -15    7.96    2.53
   0  -6 -15    9.58    3.00
   0  -6 -15    4.41    2.08
   6   0 -15    7.86    2.23
   0   6  15    4.02    2.44
   6  -6  15    5.90    2.42
  -1   8 -15   79.00    7.93
   8  -7 -15   45.76    6.79
  -7  -1 -15   82.10    8.49
   7   1  15   73.22    8.91
   1  -8  15   44.50    7.34
   2   5 -15  109.91    8.59
  -7   2 -15  116.85    8.16
   5  -7 -15  121.93    8.91
   2   5 -15  108.60    8.80
   2   5 -15  117.87    9.19
   7  -2  15  113.33    9.51
  -5   7  15  116.32   13.11
  -2  -5  15  125.63    9.80
   2  -7 -15  107.51    9.06
   5   2 -15  107.16    8.73
   5   2 -15   98.30    8.39
   5   2 -15  124.80    9.01
   2  -7 -15  122.04    8.91
  -2   7  15  132.35   11.13
  -5  -2  15  121.18    8.47
   7  -5  15  112.11    9.35
  -1  -7 -15   64.34    8.22
   8  -1 -15   66.60    8.00
   8  -1 -15   63.25    6.82
  -1  -7 -15   62.36    8.13
   7  -8  15   58.71    7.74
   1   7  15   85.56   10.68
   7  -8 -15   34.93    5.27
   1   7 -15   43.38    6.12
  -7   8  15   47.70    8.36
  -1  -7  15   36.50    6.58
   8  -1  15   42.98    6.87
   4   4 -15   45.07    6.19
   4   4 -15   47.33    6.29
   4  -8 -15   38.28    5.80
   4   4 -15   57.51    7.15
  -4   8  15   43.20    8.01
   8  -4  15   54.21    7.34
  -4  -4  15   35.09    6.03
   1  -8 -15   35.09    5.94
   1  -8 -15   45.16    6.50
   7   1 -15   38.71    5.92
   7   1 -15   38.53    5.63
   8  -7  15   37.41    5.87
  -1   8  15   29.12    6.44
   1  -1 -16   -0.82    0.70
   0   1 -16   -0.10    0.76
  -1   0 -16    1.92    0.97
   1  -1 -16   -0.70    0.81
   1  -1 -16   -0.13    0.61
   0   1 -16   -0.12    0.55
  -1   0 -16    0.48    1.02
   1   0  16    0.08    0.68
  -1   1  16   -1.15    0.63
   1   0  16    1.48    1.32
  -1   1  16   -0.71    0.68
   0  -1  16    0.80    1.16
  -1   3 -16    0.78    0.66
  -2  -1 -16    1.44    1.09
  -2  -1 -16    1.35    1.15
  -1   3 -16    1.58    1.09
   3  -2 -16    1.10    1.03
   3  -2 -16    0.94    0.82
   3  -2 -16    2.53    1.30
   2   1  16   -0.43    1.06
  -3   2  16    2.86    0.95
   1  -3  16    3.01    1.91
  -3   2  16    0.44    1.38
   2   1  16    2.43    1.26
  -3   2  16    3.50    1.21
  -3   2  16    1.25    0.77
  -2   2 -16    6.66    1.45
   2   0 -16    5.53    1.82
  -2   2 -16    3.94    1.03
   0  -2 -16    3.08    1.42
   2   0 -16    5.91    1.69
  -2   2 -16    5.55    1.75
   2   0 -16    6.11    1.91
   0  -2 -16    6.71    2.12
   0  -2 -16    3.78    1.50
  -2   0  16    5.05    1.70
   0   2  16    7.67    2.20
   2  -2  16    9.58    2.70
   0   2  16    6.94    2.28
   5  -3 -16    6.74    1.53
  -3  -2 -16    4.60    1.91
  -2   5 -16   10.04    2.34
  -2   5 -16   10.31    1.87
  -2   5 -16    8.48    2.30
  -3  -2 -16    4.42    1.90
   5  -3 -16    5.99    1.81
   5  -3 -16    8.60    2.60
   2  -5  16    3.54    2.30
   3   2  16    5.89    2.26
   3   2  16    7.83    2.37
   1   2 -16    0.79    1.01
   1   2 -16    0.77    0.87
   2  -3 -16   -0.35    0.97
   2  -3 -16    0.58    0.96
  -3   1 -16   -0.06    0.92
   2  -3 -16    0.48    0.99
  -2   3  16    1.63    1.37
   3  -1  16    0.62    0.65
  -1  -2  16    1.27    1.40
  -2   3  16    1.50    0.94
  -1  -2  16    1.52    1.51
  -2   3  16    0.97    1.30
   3  -1  16    0.17    1.26
  -3   4 -16    0.93    1.03
  -3   4 -16    0.74    0.53
  -1  -3 -16    0.26    1.13
  -1  -3 -16    2.39    1.54
   4  -1 -16    2.60    1.45
   4  -1 -16   -0.42    0.88
  -4   1  16   -0.68    0.54
   1   3  16    0.65    1.25
   1   3  16    5.17    2.03
   3  -4  16   -1.02    1.18
  -3   7 -16    1.29    1.21
  -4  -3 -16    5.00    2.23
   7  -4 -16    5.24    2.36
  -4  -3 -16    2.81    1.81
   4   3  16    4.43    2.26
   3  -7  16    0.46    1.93
   3  -7  16    7.32    3.10
   4   3  16    7.99    2.95
  -4   0 -16    2.32    1.54
   0   4 -16    2.07    1.26
   0   4 -16    1.34    0.92
   4  -4 -16    3.27    1.30
  -4   0 -16    3.11    1.55
   0   4 -16    1.23    1.11
   4  -4 -16    0.54    0.95
   0  -4  16    2.81    1.97
   0  -4  16    1.26    1.86
   4   0  16    3.39    1.47
   4   0  16    2.36    1.57
  -4   4  16    1.95    1.67
   3   1 -16    1.96    1.37
   1  -4 -16    1.44    1.27
   1  -4 -16    0.34    0.97
  -4   3 -16    0.98    1.02
   3   1 -16    0.88    0.95
  -3  -1  16   -0.12    0.89
  -1   4  16    0.18    1.10
   4  -3  16    3.11    1.83
   6  -2 -16   -0.52    0.92
  -2  -4 -16    0.10    1.17
  -4   6 -16    0.19    1.01
   6  -2 -16   -0.92    0.67
  -2  -4 -16   -1.66    1.01
   2   4  16    1.14    1.62
   4  -6  16    1.50    1.51
  -5  -1 -16    4.45    1.89
  -5  -1 -16    3.12    1.76
   6  -5 -16    5.19    1.80
  -1   6 -16    5.23    1.95
  -1   6 -16    4.12    1.77
   5   1  16    3.05    1.87
   1  -6  16    4.99    2.57
   5   1  16   -0.34    1.36
   1  -6  16    5.00    2.63
   3  -5 -16    8.26    2.24
   2   3 -16    9.32    2.48
   3  -5 -16    6.08    1.96
   2   3 -16    7.64    2.13
  -5   2 -16    7.23    2.21
   2   3 -16    7.36    2.12
  -3   5  16    7.10    2.81
  -2  -3  16    7.00    2.43
  -2  -3  16   14.16    3.63
   5  -2  16   11.25    3.09
  -5   5 -16    9.33    2.08
   5   0 -16   11.93    2.70
   0  -5 -16   13.61    3.24
   0  -5 -16    7.77    2.48
   5   0 -16   17.71    3.23
   5   0 -16    8.16    2.20
   5  -5  16   13.42    3.41
  -5   0  16    8.06    1.59
   0   5  16   10.24    3.23
   8  -3 -16   10.44    3.25
   8  -3 -16   10.25    2.25
  -3  -5 -16    6.82    2.71
  -3  -5 -16    8.47    3.26
   3   5  16    5.87    3.23
   5  -8  16    9.61    3.83
   5  -8  16   14.43    4.20
  -6  -2 -16    3.28    2.47
   8  -6 -16    3.67    2.54
  -6  -2 -16    1.40    1.99
   8  -6 -16    3.06    0.84
   6   2  16    1.16    2.41
   2  -8  16    1.59    2.44
   2  -8  16    2.98    2.76
   1   5 -16   -0.49    1.12
   1   5 -16    0.99    1.52
   1   5 -16   -0.11    1.05
   5  -6 -16    0.87    1.36
  -6   1 -16    0.59    1.40
   6  -1  16   -0.56    1.28
  -5   6  16    4.42    2.48
  -1  -5  16    1.43    1.72
  -6   4 -16    0.30    0.90
   2  -6 -16   -1.49    1.07
   4   2 -16    1.36    1.36
   2  -6 -16    0.38    1.28
   4   2 -16   -0.39    0.96
   4   2 -16   -0.27    1.10
  -2   6  16    0.17    1.09
  -4  -2  16   -0.67    1.09
   6  -4  16   -2.32    1.10
   7  -1 -16    3.28    1.89
   7  -1 -16    1.22    1.31
  -1  -6 -16    0.87    1.71
  -1  -6 -16    1.27    1.72
   6  -7  16    2.09    2.17
   1   6  16    6.01    3.21
  -7   0 -16    1.05    1.77
   0   7 -16    0.70    1.37
   0   7 -16    0.76    1.57
   7  -7 -16    6.17    2.50
   7   0  16   -0.80    1.82
   0  -7  16    2.82    2.59
  -7   7  16    1.69    2.95
   3   4 -16    1.36    1.54
   3   4 -16   -0.50    1.36
   4  -7 -16    1.79    1.60
   3   4 -16   -0.36    1.07
  -7   3 -16    0.79    1.22
  -4   7  16    1.74    2.37
   7  -3  16    5.52    2.56
  -3  -4  16    2.55    1.94
   6   1 -16   -0.07    1.17
   1  -7 -16    1.41    1.75
   6   1 -16    1.33    1.25
   6   1 -16    1.21    1.49
   1  -7 -16    0.74    1.84
   7  -6  16   -0.30    1.56
  -1   7  16   -0.88    1.54
   2   6 -16    9.69    2.86
   2   6 -16    2.48    2.04
   6  -8 -16    4.78    2.42
  -2  -6  16    6.30    3.11
   8  -2  16    6.34    3.02
  -6   8  16   10.89    4.58
   5   3 -16   12.04    3.25
   3  -8 -16   10.22    3.10
   5   3 -16    9.86    3.23
   5   3 -16    8.47    2.75
   8  -5  16    9.78    3.32
  -5  -3  16    4.10    2.21
  -3   8  16    7.16    3.60
   1   0 -17   -0.03    0.97
   1   0 -17    0.54    0.76
   1   0 -17    0.26    0.69
   0  -1 -17    0.57    1.25
  -1   1 -17    1.66    1.09
   1   0 -17    0.16    0.67
   0  -1 -17   -0.33    0.68
   0  -1 -17    0.00    0.91
   0   1  17    0.62    0.95
   0   1  17    0.46    1.30
   1  -1  17   -1.19    1.00
  -1   0  17    1.88    1.33
  -2   0 -17    3.62    1.37
   2  -2 -17    5.31    1.68
  -2   0 -17    3.00    1.66
   0   2 -17    5.96    1.56
   0   2 -17    5.24    1.77
   2  -2 -17    2.49    1.30
   2  -2 -17    6.42    2.06
   0  -2  17    5.82    2.26
   2   0  17    7.19    1.91
   2   0  17    6.40    2.16
  -2   2  17    6.34    1.89
  -2   2  17    5.90    2.20
  -1  -2 -17    1.61    1.20
   3  -1 -17    3.67    1.89
  -2   3 -17    8.77    2.17
   3  -1 -17    1.45    0.86
  -1  -2 -17    2.98    1.57
   3  -1 -17    5.76    1.75
  -2   3 -17    4.33    1.05
   3  -1 -17    5.08    1.71
  -3   1  17    5.33    1.40
   1   2  17    5.15    2.01
   1   2  17    5.63    2.12
   2  -3  17    3.65    2.03
  -3  -1 -17    2.27    1.43
  -3  -1 -17    1.62    1.31
  -1   4 -17    1.96    1.30
   4  -3 -17    1.24    1.20
  -1   4 -17    2.32    1.12
   4  -3 -17    0.75    0.95
   1  -4  17    0.01    0.86
  -4   3  17    3.11    2.10
   1  -4  17    4.19    2.33
   3   1  17    0.56    1.30
   3   1  17    0.14    0.98
   1  -3 -17    0.87    1.00
  -3   2 -17   -0.59    0.80
   2   1 -17    0.92    0.90
   2   1 -17   -0.61    0.69
  -3   2 -17    0.63    0.53
   1  -3 -17   -0.99    0.56
  -2  -1  17    1.70    1.40
  -2  -1  17   -0.21    1.17
  -1   3  17   -0.13    0.94
   3  -2  17    1.89    1.58
  -1   3  17   -2.35    0.78
  -2  -3 -17    5.15    1.91
   5  -2 -17    3.77    1.62
  -3   5 -17    4.85    1.75
  -2  -3 -17    4.64    2.00
   5  -2 -17    2.81    1.54
   3  -5  17    4.86    2.44
   2   3  17    4.31    2.00
   2   3  17    2.27    1.74
   6  -4 -17    2.63    1.89
  -4  -2 -17    0.03    1.30
  -4  -2 -17    2.67    1.68
  -2   6 -17    1.50    1.29
  -2   6 -17    2.82    1.42
   2  -6  17    3.39    2.45
   2  -6  17    0.81    2.14
   4   2  17   -0.89    1.32
   4   2  17    0.62    1.46
   1   3 -17    0.84    0.98
   1   3 -17   -1.18    0.74
   3  -4 -17    3.14    1.52
   1   3 -17    1.34    1.05
  -4   1 -17    1.09    1.15
   3  -4 -17   -1.40    0.76
   4  -1  17    0.55    0.83
  -3   4  17   -0.93    1.28
  -1  -3  17    1.21    1.44
   4  -1  17   -0.52    1.32
  -1  -3  17    0.15    1.39
  -4   4 -17    0.38    1.04
   4   0 -17   -0.29    0.85
   0  -4 -17    0.07    1.17
   4   0 -17   -0.45    0.95
   0  -4 -17    0.05    0.89
   4  -4  17   -0.91    1.35
   0   4  17    1.28    1.63
  -4   0  17    1.25    0.96
  -3  -4 -17    2.26    1.99
   7  -3 -17    2.34    1.12
  -3  -4 -17    2.50    2.07
   7  -3 -17   -0.41    1.48
  -4   7 -17    3.28    1.55
   4  -7  17    2.85    2.22
   4  -7  17    2.06    2.50
   3   4  17    2.60    2.12
   8  -5 -17    7.19    1.51
  -5  -3 -17    4.93    2.43
  -5  -3 -17    2.89    2.10
   8  -5 -17    3.99    2.56
  -3   8 -17    6.76    2.41
   5   3  17    8.75    3.28
   3  -8  17    2.68    2.71
   3  -8  17    5.11    3.15
   0   5 -17    8.48    2.28
   0   5 -17    9.24    2.61
   0   5 -17    6.46    2.19
  -5   0 -17   10.30    2.79
   5  -5 -17    5.74    2.02
  -5   5  17    5.84    2.86
   0  -5  17   10.33    3.43
   0  -5  17   10.40    3.48
   5   0  17    8.16    2.68
   2  -5 -17    7.12    2.31
   3   2 -17    7.29    2.20
   3   2 -17    6.39    2.07
  -5   3 -17    8.59    2.26
   2  -5 -17    6.92    2.23
   3   2 -17    7.89    2.30
   5  -3  17    7.78    2.92
  -3  -2  17   10.01    2.70
  -2   5  17    6.83    2.91
  -5   6 -17    5.80    1.82
  -1  -5 -17    3.84    2.27
   6  -1 -17    3.57    1.67
  -1  -5 -17    4.38    2.18
   6  -1 -17    2.61    1.75
   6  -1 -17    2.95    1.75
   1   5  17    3.30    2.72
   5  -6  17    5.19    2.61
  -6  -1 -17   -0.27    1.43
  -1   7 -17    3.68    2.07
  -1   7 -17    2.67    1.66
   1  -7  17    2.24    2.60
   1  -7  17    5.35    3.00
   6   1  17    2.97    2.60
   4  -6 -17   -0.74    1.05
  -6   2 -17    0.84    1.33
   2   4 -17    0.83    1.15
   2   4 -17    0.48    1.36
   2   4 -17    0.93    1.41
  -4   6  17   -0.43    1.66
   6  -2  17    0.73    1.64
  -2  -4  17    3.49    1.93
   1  -6 -17    2.20    1.78
   5   1 -17   -0.65    1.24
   5   1 -17    0.24    1.16
  -6   5 -17    0.42    0.93
   5   1 -17    0.31    1.17
   1  -6 -17   -0.03    1.44
  -1   6  17    1.76    2.09
  -5  -1  17    0.63    1.28
   6  -5  17   -0.98    1.36
  -2  -6 -17    1.86    2.32
   8  -2 -17    3.81    2.26
   8  -2 -17    2.54    1.39
  -2  -6 -17    9.64    3.39
   2   6  17   -0.88    2.07
   6  -8  17    0.90    2.11
   6  -7 -17    0.83    1.53
  -7   1 -17    0.07    1.49
   1   6 -17    0.41    1.20
   1   6 -17   -0.36    1.33
   7  -1  17    0.14    1.62
  -6   7  17    0.15    1.90
  -1  -6  17   -1.76    1.42
   3  -7 -17   -0.15    1.47
   3  -7 -17    0.44    1.69
   4   3 -17    0.24    1.24
   4   3 -17    1.09    1.64
   4   3 -17    1.01    1.47
  -3   7  17   -0.10    1.82
   7  -4  17    0.69    1.91
  -4  -3  17   -0.65    1.24
   0  -7 -17   -1.81    1.66
   0  -7 -17    0.34    1.84
   7   0 -17    3.97    1.92
   7   0 -17   -0.03    1.62
   7  -7  17    0.63    1.89
   0   7  17    0.32    2.15
   3   5 -17   10.64    3.02
   3   5 -17    3.02    2.08
   5  -8 -17    5.84    2.40
   3   5 -17    9.13    3.08
  -3  -5  17    5.85    2.86
   8  -3  17    2.74    2.35
  -5   8  17    5.62    3.26
   6   2 -17    7.11    2.70
   6   2 -17    1.00    2.24
   2  -8 -17    6.93    2.88
   2  -8 -17    5.60    2.63
   6   2 -17    3.12    1.95
  -2   8  17    4.31    3.24
   8  -6  17   -0.33    2.01
   0   0 -18  253.49   13.92
   0   0 -18  234.89   14.42
   0   0  18  258.07   15.45
   2  -1 -18   24.00    3.07
   2  -1 -18   39.05    4.66
   2  -1 -18   27.51    4.37
  -1  -1 -18   28.23    3.83
  -1  -1 -18   32.42    4.52
  -1   2 -18   31.25    3.27
  -1   2 -18   28.22    4.03
  -2   1  18   22.79    3.78
   1  -2  18   20.60    4.29
   1   1  18   39.15    4.81
   1   1  18   32.16    4.67
   1  -2 -18  239.36   14.87
   1  -2 -18  188.86   11.43
   1   1 -18  191.27   11.94
  -2   1 -18  198.61   12.07
   1   1 -18  182.37   11.29
   1  -2 -18  197.42   11.90
  -1   2  18  194.04   12.35
  -1  -1  18  203.24   12.89
  -1   2  18  182.39   12.55
   2  -1  18  170.52   12.50
  -2   4 -18  128.11    9.09
  -2   4 -18  130.04    7.90
   4  -2 -18  143.07    9.19
   4  -2 -18  149.05    8.14
  -2  -2 -18  132.22    9.57
  -2  -2 -18  118.99    9.11
   4  -2 -18  129.25    9.45
   2  -4  18  133.25   10.67
   2   2  18  130.21    9.79
   2   2  18  159.84   10.17
   0   3 -18  159.33   11.02
   0   3 -18  181.99   10.46
   3  -3 -18  177.98   10.64
  -3   0 -18  167.32   11.09
  -3   0 -18  182.32   11.53
   3  -3 -18  178.74   10.93
   3   0  18  184.05   12.23
   0  -3  18  187.48   12.80
   3   0  18  197.82   10.97
  -3   3  18  155.25   12.14
  -3   3  18  176.13    9.59
   0  -3  18  160.28   11.99
  -3   3 -18  178.23   10.97
   0  -3 -18  153.18   10.87
   3   0 -18  163.52   10.87
   3   0 -18  182.44   11.13
  -3   3 -18  178.45    9.05
   0  -3 -18  156.73   10.81
   0   3  18  188.67   11.85
   3  -3  18  157.93   11.94
   0   3  18  176.56   12.09
  -3  -3 -18  102.34    8.23
  -3  -3 -18  112.02    8.77
  -3   6 -18  103.17    7.72
   6  -3 -18   86.93    9.35
   3  -6  18  110.50   11.65
   3  -6  18   97.39   10.92
   3   3  18  104.00    8.74
  -1   5 -18   21.18    3.85
  -4  -1 -18   15.40    3.18
   5  -4 -18   20.47    3.01
  -1   5 -18   18.16    3.48
  -4  -1 -18   14.04    3.35
  -1   5 -18   21.57    3.25
   4   1  18   16.89    3.31
   1  -5  18   16.14    4.22
   4   1  18   17.61    4.03
   1  -5  18   17.61    4.53
   2   2 -18   19.14    3.57
  -4   2 -18   19.71    3.58
   2  -4 -18   30.38    4.19
   2  -4 -18   16.46    3.12
   2   2 -18   24.46    3.67
  -2   4  18   19.71    4.36
  -2  -2  18   24.65    4.18
   4  -2  18   19.25    4.10
  -1  -4 -18   16.55    3.52
   5  -1 -18   28.76    4.33
   5  -1 -18   18.37    3.63
  -1  -4 -18   15.90    3.68
  -4   5 -18   25.09    3.76
   4  -5  18   21.34    4.65
   1   4  18   13.57    3.80
  -4  -4 -18    8.41    3.11
  -4  -4 -18   10.83    3.35
   8  -4 -18   10.68    2.17
  -4   8 -18    6.45    2.28
   8  -4 -18    8.24    3.19
   4  -8  18   14.29    4.62
   4  -8  18    6.42    3.59
   4   4  18   14.15    4.21
  -5  -2 -18   69.13    7.86
  -2   7 -18   60.19    6.92
   7  -5 -18   50.59    7.12
  -5  -2 -18   70.60    8.08
   2  -7  18   51.92    8.19
   2  -7  18   93.79   10.80
   5   2  18   52.37    7.47
   1   4 -18  102.92    8.14
   4  -5 -18  112.91    8.00
   1   4 -18  101.67    8.29
  -5   1 -18  113.03    8.27
   1   4 -18  102.54    7.59
   4  -5 -18  108.21    7.79
   5  -1  18  118.51    9.31
  -4   5  18  113.13   10.01
  -1  -4  18  102.27    8.84
   1  -5 -18  111.81    8.44
  -5   4 -18  119.41    7.78
   4   1 -18   96.15    7.78
   1  -5 -18   99.75    8.03
   4   1 -18   96.42    7.88
   4   1 -18  114.81    8.24
   5  -4  18   94.42   10.27
  -4  -1  18  101.50    7.41
  -1   5  18  108.46    9.48
  -2  -5 -18   59.41    7.99
   7  -2 -18   47.29    5.61
  -5   7 -18   62.14    5.20
  -2  -5 -18   66.58    7.63
   7  -2 -18   48.94    6.80
   2   5  18   48.54    7.70
   5  -7  18   61.46    8.21
   6  -6 -18   90.46    7.08
   0   6 -18   93.01    7.18
   0   6 -18   78.10    8.47
  -6   0 -18   84.14    7.37
   0  -6  18   79.21    9.91
   6   0  18   83.03    9.79
  -6   6  18   82.26   10.76
  -6   3 -18  117.87    7.92
   3  -6 -18   91.76    7.72
   3   3 -18   91.60    7.70
   3   3 -18  115.71    8.74
   3  -6 -18  103.83    8.28
   3   3 -18  100.07    8.19
   6  -3  18  110.18   11.14
  -3  -3  18  107.32    8.52
  -3   6  18  110.18   12.26
   0  -6 -18   91.15    9.33
   6   0 -18   82.91    8.54
  -6   6 -18   89.32    7.36
   0  -6 -18   81.97    8.99
   6   0 -18   70.36    7.80
   6   0 -18   75.76    8.54
   0   6  18   89.79   10.71
   6  -6  18   78.21    9.34
   2   5 -18    7.44    2.55
  -7   2 -18    7.47    2.41
   2   5 -18   14.12    3.31
   2   5 -18    9.82    3.05
   5  -7 -18   10.38    2.89
  -5   7  18    6.93    3.44
  -2  -5  18   10.54    3.63
   7  -2  18   15.90    4.26
   2  -7 -18    6.52    2.78
   5   2 -18    7.45    2.56
   5   2 -18   13.12    3.32
   2  -7 -18   13.57    3.40
   5   2 -18    9.28    2.91
  -2   7  18   12.91    4.40
  -5  -2  18   11.74    2.86
   7  -5  18    3.23    2.43
   4   4 -18   48.89    6.60
   4   4 -18   39.89    6.18
   4  -8 -18   42.70    6.28
   4   4 -18   46.21    6.57
  -4  -4  18   49.45    7.04
  -4   8  18   50.11    8.99
   8  -4  18   34.77    6.61
   0   1 -19    3.36    1.36
   1  -1 -19    3.37    1.34
  -1   0 -19    4.16    1.54
  -1   0 -19    1.50    1.32
   1  -1 -19    3.15    1.66
   0   1 -19    2.85    1.45
   1   0  19    2.57    1.24
   0  -1  19    3.71    1.97
  -1   1  19    1.08    1.34
   1   0  19   -0.18    1.16
  -1   1  19    1.33    1.41
  -1   3 -19   -0.36    0.65
   3  -2 -19   -0.08    0.70
   3  -2 -19    0.16    0.97
  -1   3 -19    0.51    0.75
  -2  -1 -19    0.07    0.96
  -2  -1 -19    1.47    1.41
   1  -3  19    1.84    1.78
   2   1  19   -0.24    1.18
  -3   2  19    0.01    0.85
   2   1  19    1.39    1.53
  -2   2 -19    2.88    1.47
  -2   2 -19    1.31    0.80
   0  -2 -19    2.65    1.53
   0  -2 -19    1.58    1.25
   2   0 -19    2.17    1.22
   2   0 -19    3.77    1.69
   0   2  19    1.56    1.66
  -2   0  19    3.09    1.70
   2  -2  19    1.55    1.88
   0   2  19    1.64    1.60
  -3  -2 -19    3.59    1.99
  -2   5 -19    5.15    1.51
  -2   5 -19    7.85    2.26
   5  -3 -19    2.10    1.79
  -3  -2 -19    4.58    2.09
   3   2  19    8.07    2.53
   2  -5  19    5.14    2.76
   3   2  19    5.15    2.33
   2  -3 -19    6.74    1.92
   2  -3 -19    7.95    2.12
   1   2 -19    5.73    1.71
  -3   1 -19    7.98    2.34
   1   2 -19   13.97    3.05
  -2   3  19   13.34    3.51
  -1  -2  19   10.88    3.20
   3  -1  19    7.90    1.58
  -1  -2  19   13.40    3.26
   3  -1  19    6.34    2.46
  -1  -3 -19    6.34    2.23
   4  -1 -19    4.67    1.94
  -1  -3 -19    6.33    2.23
  -3   4 -19    9.49    2.45
   4  -1 -19    9.14    2.63
   1   3  19    8.55    2.77
  -4   1  19    6.71    1.41
   3  -4  19    8.78    3.17
  -3   7 -19    6.42    2.38
  -4  -3 -19    3.03    2.11
   7  -4 -19    0.67    1.85
  -4  -3 -19    4.22    2.10
   3  -7  19    0.18    2.06
   3  -7  19    3.45    2.82
   4   3  19    3.02    2.37
   4  -4 -19    1.01    1.17
   0   4 -19    0.04    0.89
  -4   0 -19    2.67    1.71
   0   4 -19   -0.43    1.00
   4  -4 -19    0.29    1.11
  -4   0 -19   -0.32    1.04
   0   4 -19    2.73    1.59
   0  -4  19    1.64    2.00
  -4   4  19    1.63    1.99
   4   0  19    0.84    1.37
   0  -4  19   -0.08    1.62
   1  -4 -19   -0.63    0.95
   3   1 -19   -0.69    0.93
  -4   3 -19    0.75    1.09
   3   1 -19   -0.36    1.06
   1  -4 -19   -0.45    1.10
  -3  -1  19    1.09    1.32
   4  -3  19   -0.08    1.44
  -1   4  19    1.27    1.88
  -2  -4 -19    1.01    1.92
  -4   6 -19    1.93    1.39
   6  -2 -19    1.44    1.71
  -2  -4 -19    0.54    1.15
   2   4  19    1.98    2.14
   4  -6  19    1.56    2.22
  -5  -1 -19    2.74    1.88
  -1   6 -19    1.61    1.53
  -1   6 -19    4.21    2.02
  -5  -1 -19    4.29    2.29
   5   1  19    2.50    2.32
   1  -6  19    0.24    2.01
   1  -6  19    0.27    1.96
   2   3 -19    0.57    1.25
   2   3 -19    0.28    0.97
  -5   2 -19    0.75    1.40
   2   3 -19   -0.07    1.08
   3  -5 -19    2.08    1.44
   3  -5 -19    0.32    0.93
   5  -2  19    1.48    1.66
  -2  -3  19   -1.38    1.19
  -3   5  19   -0.04    1.55
  -5   5 -19    2.58    1.40
   5   0 -19    2.72    1.63
   0  -5 -19    0.29    1.69
   5   0 -19    1.97    1.67
   5   0 -19    1.37    1.78
   0  -5 -19    1.30    1.71
   5  -5  19    0.54    1.67
   0   5  19   -0.26    1.44
  -3  -5 -19    5.32    2.95
  -3  -5 -19    3.93    2.47
   8  -3 -19    1.01    1.28
   8  -3 -19    1.52    2.06
   3   5  19   -0.83    2.11
   5  -8  19    4.80    2.86
   5  -8  19    0.36    3.18
  -6  -2 -19    6.25    3.14
   1   5 -19    6.44    2.12
   1   5 -19    2.95    1.99
   1   5 -19   10.33    3.05
   5  -6 -19   14.59    3.18
  -6   1 -19    7.99    2.51
  -1  -5  19    6.00    2.88
  -5   6  19    9.70    3.97
   6  -1  19    7.70    3.10
   2  -6 -19    4.97    2.21
   2  -6 -19    7.01    2.59
  -6   4 -19   11.85    2.69
   4   2 -19   16.84    3.70
   4   2 -19   11.79    3.03
   4   2 -19   10.32    2.75
   6  -4  19    6.31    3.10
  -4  -2  19   14.16    3.34
  -2   6  19   11.18    3.87
  -1  -6 -19   12.10    3.57
   7  -1 -19    5.35    1.99
   7  -1 -19    4.54    2.29
  -1  -6 -19    3.48    2.42
   1   6  19   13.92    4.25
   6  -7  19    8.34    3.19
  -7   0 -19    1.30    1.96
   0   7 -19    0.51    1.74
   0   7 -19    0.34    1.76
   0  -7  19    1.61    2.32
  -7   7  19    0.97    2.83
   7   0  19   -0.36    1.90
   3   4 -19    0.80    1.65
   3   4 -19   -0.95    1.13
  -7   3 -19    0.41    1.35
   3   4 -19    0.23    1.25
   4  -7 -19   -0.81    1.45
   7  -3  19    1.14    2.04
  -3  -4  19   -0.94    1.63
  -4   7  19    0.32    2.29
   6   1 -19    3.12    1.96
   1  -7 -19    0.96    1.62
   1  -7 -19    1.43    1.72
   6   1 -19    1.47    1.90
   6   1 -19    2.54    2.28
  -1   7  19    2.60    2.19
   7  -6  19    0.24    2.00
   6  -8 -19    2.46    2.13
   5   3 -19    1.75    1.88
   5   3 -19    0.13    1.57
   3  -8 -19   -1.05    1.87
   5   3 -19   -0.99    1.45
   8  -5  19    1.48    2.26
  -3   8  19   -0.48    2.51
  -5  -3  19   -0.77    2.34
   0  -1 -20    0.70    1.11
   1   0 -20    1.00    1.05
   0  -1 -20    0.56    1.04
   1   0 -20    1.44    1.16
  -1   1 -20    1.11    0.90
   1   0 -20    0.02    0.81
  -1   1 -20    2.95    1.67
  -1   0  20    1.62    1.70
   0   1  20    1.72    1.76
   0   1  20    0.84    1.32
   1  -1  20   -0.04    1.27
  -2   0 -20    4.50    1.77
   0   2 -20    3.13    1.20
  -2   0 -20    0.83    1.34
   2  -2 -20    4.46    1.83
   0   2 -20    3.47    1.91
   2  -2 -20    3.02    1.37
   0  -2  20    0.13    1.72
  -2   2  20    4.14    2.14
   2   0  20    7.21    2.66
   2   0  20    1.95    1.33
   3  -1 -20   -0.70    0.81
   3  -1 -20    0.20    1.21
  -1  -2 -20   -0.14    1.08
  -2   3 -20   -1.29    0.74
  -1  -2 -20    1.26    1.26
  -2   3 -20   -0.39    0.59
   3  -1 -20   -0.37    0.60
   1   2  20   -0.62    1.34
   1   2  20   -0.69    1.24
   2  -3  20    2.30    1.99
  -3   1  20   -0.23    0.96
  -1   4 -20    5.23    1.66
   4  -3 -20    4.49    1.54
  -1   4 -20    2.45    1.49
  -3  -1 -20    1.45    1.43
  -3  -1 -20    2.38    1.70
   4  -3 -20    3.57    1.76
   3   1  20    4.05    2.07
   1  -4  20    2.88    2.39
   1  -4  20    2.26    2.35
   3   1  20    0.79    1.40
   1  -3 -20    2.53    1.56
   2   1 -20    8.13    2.15
  -3   2 -20    1.75    1.46
   2   1 -20    6.98    2.32
   1  -3 -20    7.72    2.38
  -3   2 -20    4.13    1.08
   3  -2  20    6.02    2.62
  -2  -1  20    4.75    2.05
  -1   3  20    5.80    2.68
   5  -2 -20    7.06    2.46
   5  -2 -20    6.77    2.52
  -2  -3 -20    8.22    2.60
  -2  -3 -20    5.65    2.11
  -3   5 -20    5.36    1.97
   3  -5  20    5.82    2.88
   2   3  20    8.19    2.99
  -4  -2 -20    0.50    1.32
  -2   6 -20    2.42    1.59
  -4  -2 -20    2.01    1.87
   6  -4 -20    0.84    1.47
   4   2  20    1.96    2.06
   2  -6  20    4.49    3.01
   2  -6  20   -0.87    2.27
   4   2  20   -0.37    1.69
  -4   1 -20   -0.74    0.90
   1   3 -20    1.00    1.04
   3  -4 -20    0.63    1.29
   1   3 -20   -0.22    0.95
   3  -4 -20    2.65    1.57
  -3   4  20    0.86    1.77
  -1  -3  20    0.37    1.64
   4  -1  20   -1.34    1.35
   4   0 -20    0.75    1.24
   4   0 -20   -0.21    1.16
   0  -4 -20    1.45    1.61
   0  -4 -20    0.25    1.27
  -4   4 -20   -0.53    0.87
   4  -4  20   -1.48    1.58
   0   4  20    1.01    1.55
  -4   0  20    0.82    1.13
  -3  -4 -20    5.01    2.42
   7  -3 -20    1.41    1.33
  -3  -4 -20    1.09    1.97
   7  -3 -20    1.44    1.95
  -4   7 -20    0.66    1.47
   4  -7  20   -0.03    1.98
   3   4  20    1.40    2.15
   4  -7  20    5.73    3.29
   0   5 -20    2.34    1.79
   5  -5 -20    4.91    1.90
  -5   0 -20    4.86    2.28
   0   5 -20    7.74    2.33
  -5   5  20    3.98    2.84
   0  -5  20    4.92    2.86
   5   0  20    8.48    3.26
   2  -5 -20   -0.33    1.33
   3   2 -20    0.65    1.06
   3   2 -20    0.86    1.29
  -5   3 -20    2.17    1.54
   2  -5 -20   -0.08    1.35
   3   2 -20    1.03    1.39
   5  -3  20    4.81    2.65
  -2   5  20    3.60    2.60
  -3  -2  20    0.59    1.69
  -5   6 -20    0.58    1.12
   6  -1 -20   -0.22    1.10
  -1  -5 -20    1.86    2.00
  -1  -5 -20    3.08    2.16
   6  -1 -20    1.44    1.80
   1   5  20    0.66    1.48
   5  -6  20   -1.61    1.53
   7  -6 -20    3.32    2.38
  -6  -1 -20    1.44    1.94
  -1   7 -20    4.43    2.20
   6   1  20    1.73    2.41
   1  -7  20    0.34    2.43
   4  -6 -20    6.59    2.43
   2   4 -20    2.82    1.92
  -6   2 -20    2.77    1.76
   2   4 -20    4.26    2.38
   2   4 -20    4.85    2.02
   6  -2  20    6.23    2.90
  -2  -4  20    1.99    2.15
  -4   6  20    2.82    2.70
   1  -6 -20    3.36    2.29
   5   1 -20    2.42    1.75
   5   1 -20    5.78    2.24
   5   1 -20    8.72    3.10
   1  -6 -20    6.92    2.72
  -6   5 -20    4.57    1.82
   6  -5  20    7.26    3.28
  -1   6  20    5.10    3.21
   6  -7 -20    4.11    2.13
   1   6 -20    4.02    2.07
  -7   1 -20   -0.39    1.46
   1   6 -20    2.23    1.98
  -6   7  20    2.27    2.57
   7  -1  20    1.49    2.14
  -1  -6  20    8.72    3.74
   4   3 -20    1.39    1.52
   4   3 -20   -1.55    1.29
   4   3 -20    2.67    1.93
   3  -7 -20   -0.72    1.52
  -4  -3  20   -1.64    1.90
   7  -4  20    3.72    2.71
  -3   7  20   -0.33    1.53
   0   0 -21   41.34    4.66
   0   0 -21   31.36    4.72
   0   0  21   43.78    6.10
  -1   2 -21  173.63   10.26
   2  -1 -21  168.61   11.32
  -1  -1 -21  190.42   11.84
   2  -1 -21  152.58   10.92
  -1   2 -21  175.18   11.56
   2  -1 -21  181.30   10.46
  -1  -1 -21  175.99   11.18
   1  -2  21  168.53   12.69
   1   1  21  179.53   11.69
   1   1  21  186.21   12.59
   1   1 -21   96.46    7.26
   1   1 -21  113.75    8.23
  -2   1 -21  100.95    7.93
   1  -2 -21  108.75    8.00
   1  -2 -21  103.14    7.42
   2  -1  21  104.28    8.97
  -1   2  21  104.11    8.55
  -2  -2 -21   90.14    8.41
   4  -2 -21   90.17    7.03
  -2  -2 -21   82.96    7.21
  -2   4 -21   84.83    5.64
   4  -2 -21   69.83    7.84
  -2   4 -21   76.46    6.72
   2  -4  21   74.60    9.45
   2   2  21   81.53    7.25
   3  -3 -21   22.82    3.61
   3  -3 -21   37.52    4.93
  -3   0 -21   33.74    4.94
   0   3 -21   32.88    4.05
  -3   0 -21   32.30    4.66
   0   3 -21   29.35    4.66
  -3   3  21   37.59    6.17
   3   0  21   30.67    4.02
   0  -3  21   36.43    6.15
   3   0  21   23.53    4.89
   0  -3  21   28.46    5.58
   0  -3 -21   25.08    4.41
   0  -3 -21   32.48    4.61
  -3   3 -21   25.01    4.20
   3   0 -21   31.70    4.72
   3   0 -21   29.86    4.44
   0   3  21   26.01    4.89
   3  -3  21   26.54    5.24
  -3   0  21   29.25    4.08
  -3   6 -21   15.74    3.32
  -3  -3 -21   14.45    3.56
  -3  -3 -21   12.04    3.54
   6  -3 -21   11.54    3.44
   3  -6  21   13.59    4.57
   3   3  21   14.40    3.69
   3  -6  21   16.09    4.68
  -4  -1 -21  100.30    8.25
  -1   5 -21  108.79    8.41
   5  -4 -21   98.10    7.78
  -1   5 -21  107.21    7.35
  -4  -1 -21   98.20    8.44
   4   1  21  109.24    9.37
   1  -5  21   92.72   11.23
   1  -5  21  106.74   11.85
  -4   2 -21  113.06    9.05
   2  -4 -21  128.41    9.18
   2   2 -21  139.35    9.78
   2   2 -21  130.96    9.00
   2  -4 -21  129.26    9.34
  -2   4  21  135.85   11.01
  -2  -2  21  125.62    9.79
   4  -2  21  137.91   10.96
  -1  -4 -21   99.46    8.52
   5  -1 -21   84.11    9.11
  -1  -4 -21   96.56    9.54
   5  -1 -21  105.96    8.35
  -4   5 -21  115.92    8.15
   1   4  21  116.08    9.59
   4  -5  21   86.45   10.57
  -5  -2 -21   38.15    5.87
  -5  -2 -21   46.09    6.75
  -2   7 -21   45.85    6.31
   7  -5 -21   41.57    6.32
   2  -7  21   37.84    7.36
   2  -7  21   33.58    7.13
  -5   1 -21   70.40    7.71
   1   4 -21   65.96    6.86
   1   4 -21   73.72    7.92
   4  -5 -21   74.50    7.42
   1   4 -21   66.97    7.72
  -1  -4  21   59.17    8.33
   5  -1  21   61.16    8.52
  -4   5  21   75.57    9.94
  -5   4 -21   58.64    6.41
   4   1 -21   61.65    7.33
   4   1 -21   54.71    6.69
   4   1 -21   55.92    6.77
   1  -5 -21   62.25    7.37
   1  -5 -21   61.62    7.30
  -1   5  21   46.83    7.62
  -4  -1  21   66.58    6.70
   5  -4  21   62.98    8.53
  -2  -5 -21   38.04    6.08
   7  -2 -21   48.86    7.02
   7  -2 -21   30.15    4.65
  -5   7 -21   35.75    4.92
  -2  -5 -21   35.35    6.45
   5  -7  21   57.39    8.32
   2   5  21   47.95    7.59
  -6   0 -21   14.03    3.40
   0   6 -21   10.96    2.76
   0   6 -21   10.73    3.08
   6   0  21    9.33    3.69
  -6   6  21   17.23    5.20
   0  -6  21    8.77    3.69
   3  -6 -21   22.89    4.31
   3   3 -21   13.05    3.48
   3   3 -21   14.37    3.32
   3   3 -21   16.50    3.94
   3  -6 -21   16.37    3.68
   6  -3  21   16.30    4.59
  -3  -3  21   14.35    3.84
  -3   6  21   17.86    4.96
   6   0 -21    9.51    2.78
   0  -6 -21   10.37    3.34
   0  -6 -21   14.41    4.00
  -6   6 -21   13.07    3.72
   6   0 -21    9.97    3.24
   0   6  21   15.62    4.64
   6  -6  21    6.97    3.29
  -7   2 -21   53.89    6.55
   2   5 -21   53.55    7.20
   2   5 -21   62.49    7.16
   5  -7 -21   53.12    6.97
  -2  -5  21   57.24    8.61
   7  -2  21   66.93    9.13
  -5   7  21   55.37    9.16
   2  -7 -21   65.43    7.84
   5   2 -21   60.34    7.58
   5   2 -21   55.29    7.45
   2  -7 -21   63.77    8.15
   5   2 -21   62.66    7.98
   7  -5  21   52.96    8.23
  -2   7  21   51.00    8.72
   1  -1 -22    0.32    1.25
  -1   0 -22   -1.51    0.82
   0   1 -22    2.08    1.42
   1  -1 -22    0.56    0.89
  -1   0 -22    1.64    1.16
   0   1 -22    1.39    1.10
   0  -1  22    6.04    2.69
   1   0  22    2.13    1.80
  -1   3 -22   -0.57    0.73
   3  -2 -22   -0.01    0.95
  -1   3 -22    0.73    1.19
  -2  -1 -22   -0.61    0.72
   3  -2 -22    0.12    1.23
  -2  -1 -22    0.38    1.10
  -3   2  22    0.40    1.04
   2   1  22    0.02    1.16
   1  -3  22   -1.06    1.54
   2   1  22    0.09    1.24
   0  -2 -22    3.32    1.76
  -2   2 -22   -0.52    1.08
   0  -2 -22    0.31    1.26
   2   0 -22    1.55    1.44
  -2   2 -22   -0.99    0.56
   2   0 -22    0.50    1.13
   0   2  22   -0.24    1.17
   2  -2  22    1.46    1.67
  -2   0  22    1.43    1.52
   5  -3 -22    0.58    1.26
  -2   5 -22    0.47    1.22
  -3  -2 -22    1.99    1.37
  -3  -2 -22    2.11    1.84
   3   2  22   -0.63    1.41
   2  -5  22    0.14    1.81
   2  -5  22    3.56    2.92
  -3   1 -22    0.92    1.28
   2  -3 -22   -0.25    1.30
   2  -3 -22   -1.32    0.88
   1   2 -22    0.23    0.91
   1   2 -22    0.48    1.30
   3  -1  22   -0.85    1.70
  -2   3  22    0.98    1.70
  -1  -2  22   -1.33    1.28
   4  -1 -22    4.11    1.88
  -3   4 -22    2.95    1.91
  -1  -3 -22    5.96    2.31
  -1  -3 -22    3.61    1.95
   4  -1 -22    3.93    1.93
   3  -4  22    3.18    2.51
   1   3  22    3.16    2.41
   7  -4 -22    4.84    2.48
  -4  -3 -22    7.40    2.81
  -3   7 -22    5.74    2.44
  -4  -3 -22    3.99    2.55
   3  -7  22    3.44    3.05
   3  -7  22    5.51    3.60
   4  -4 -22    3.70    2.07
   4  -4 -22    6.51    2.09
   0   4 -22    6.51    1.96
   0   4 -22    7.55    2.47
   0   4 -22    5.85    2.25
  -4   0 -22    1.80    1.69
   4   0  22    5.35    2.58
   0  -4  22    4.63    2.98
  -4   4  22    3.43    2.49
   3   1 -22    3.83    2.16
   1  -4 -22    5.34    2.10
   1  -4 -22    3.80    2.18
   3   1 -22    3.67    1.81
  -4   3 -22    4.08    1.91
  -3  -1  22    3.47    2.02
  -1   4  22    3.62    2.27
   4  -3  22    2.43    2.49
   6  -2 -22    0.07    1.46
  -2  -4 -22    2.80    2.25
  -4   6 -22    0.02    1.47
  -2  -4 -22   -0.31    1.09
   2   4  22    2.63    2.20
   4  -6  22    4.34    2.94
   6  -5 -22    0.31    1.55
  -5  -1 -22   -1.17    1.45
  -5  -1 -22   -1.01    1.21
  -1   6 -22    2.10    1.68
   1  -6  22    2.99    2.95
   5   1  22    0.70    2.42
   2   3 -22    1.29    1.33
   2   3 -22    2.30    1.77
   3  -5 -22    1.20    1.60
   2   3 -22   -0.36    0.89
   3  -5 -22    2.11    1.90
  -5   2 -22   -0.03    1.55
  -3   5  22    1.16    1.87
   5  -2  22    3.40    2.53
  -2  -3  22    1.92    2.19
   5   0 -22    2.50    1.85
   5   0 -22    1.82    1.87
   5   0 -22    3.43    1.88
  -5   5 -22    1.83    1.48
   0  -5 -22    3.27    2.17
   0  -5 -22    3.93    2.29
   5  -5  22    0.04    1.95
   0   5  22    1.62    2.28
   1   5 -22   -1.46    1.38
  -6   1 -22    0.42    1.47
   5  -6 -22    0.54    1.65
   1   5 -22   -0.71    1.41
   6  -1  22   -0.59    1.90
  -5   6  22    0.91    2.18
  -1  -5  22    0.66    2.31
   2  -6 -22   -0.49    1.61
  -6   4 -22    0.08    1.42
   4   2 -22    0.77    1.44
   4   2 -22   -1.28    1.57
   4   2 -22   -0.32    1.32
   2  -6 -22    3.94    2.34
  -4  -2  22   -1.44    1.36
   6  -4  22    0.49    2.33
  -2   6  22    0.01    2.03
  -7   3 -22    3.29    2.02
   3   4 -22    6.93    3.08
   3   4 -22    4.54    2.13
   4  -7 -22    5.28    2.26
   3   4 -22   10.15    3.51
   7  -3  22    4.78    3.38
  -4   7  22    5.92    3.49
  -3  -4  22    2.27    2.76
   0  -1 -23    0.60    1.26
  -1   1 -23   -0.75    0.65
   1   0 -23   -0.89    1.09
  -1   1 -23    0.15    0.89
   0  -1 -23    0.17    1.05
   1   0 -23    1.35    1.14
   1  -1  23    3.19    2.23
   0   1  23    0.32    1.14
  -2   0 -23    0.74    1.45
   0   2 -23    1.85    1.29
  -2   0 -23    0.37    1.07
   2  -2 -23   -0.69    0.98
   2  -2 -23   -0.30    1.27
   0   2 -23    0.81    1.49
  -2   2  23    3.40    2.11
   2   0  23    0.39    1.17
   2   0  23   -1.99    1.42
  -1  -2 -23   -0.44    1.15
  -1  -2 -23    0.01    1.36
  -2   3 -23   -0.19    1.12
   3  -1 -23    0.61    1.40
   3  -1 -23   -0.62    1.03
   3  -1 -23    0.18    1.07
   2  -3  23    2.15    2.17
   1   2  23   -0.84    1.13
  -3   1  23   -0.32    1.23
  -3  -1 -23    4.57    1.99
  -3  -1 -23    3.08    2.08
  -1   4 -23    4.65    2.22
   4  -3 -23   -0.89    0.83
   4  -3 -23    4.59    1.65
  -1   4 -23    2.35    1.36
   4  -3 -23    1.93    1.67
   1  -4  23    2.91    2.74
   1  -4  23    0.06    2.27
   2   1 -23    1.37    1.18
   1  -3 -23   -0.46    1.07
   1  -3 -23    0.52    1.49
   2   1 -23    1.92    1.63
  -3   2 -23    0.38    1.28
  -1   3  23   -1.46    1.27
  -2  -1  23    0.21    1.60
   3  -2  23   -0.08    1.41
  -2  -3 -23   -0.72    0.85
  -3   5 -23   -0.15    1.30
  -2  -3 -23    1.90    1.67
   5  -2 -23    0.78    1.23
   3  -5  23    1.19    1.92
   2   3  23    0.45    1.93
  -2   6 -23   -0.98    1.43
  -4  -2 -23   -1.58    1.19
  -4  -2 -23    0.69    1.60
   6  -4 -23   -1.71    1.39
   2  -6  23    2.86    4.85
   2  -6  23   -1.84    2.02
   3  -4 -23   -2.15    1.51
  -4   1 -23   -0.46    1.20
   3  -4 -23   -1.86    1.10
   1   3 -23   -2.77    0.89
   1   3 -23    3.44    1.66
  -1  -3  23    4.48    2.56
  -3   4  23    2.85    2.30
   4  -1  23   -0.87    1.67
  -4   4 -23    3.37    1.84
   0  -4 -23    3.61    2.16
   4   0 -23    0.34    1.50
   4   0 -23    0.83    1.32
   0  -4 -23    3.93    2.00
  -4   0  23    1.65    1.59
   4  -4  23    1.98    2.11
   0   4  23    2.74    2.36
  -3  -4 -23    4.46    2.64
   7  -3 -23    7.32    2.98
  -4   7 -23    3.04    2.00
  -3  -4 -23    7.79    3.43
   4  -7  23    3.66    3.43
   3   4  23    5.64    3.08
   4  -7  23    1.03    2.59
  -5   0 -23    1.00    1.80
   0   5 -23    1.04    1.63
   0   5 -23    1.83    1.57
   5  -5 -23    3.36    2.58
  -5   5  23    2.16    2.29
   0  -5  23    3.05    2.86
   5   0  23    2.11    2.83
   3   2 -23    1.83    1.40
   2  -5 -23   -0.34    1.77
   3   2 -23    0.04    1.52
   2  -5 -23    0.43    1.74
   3   2 -23    1.70    1.55
  -5   3 -23    2.48    1.93
  -3  -2  23    0.09    1.56
   5  -3  23    0.39    2.12
  -2   5  23    3.39    2.77
  -1  -5 -23    0.55    1.60
   6  -1 -23   -1.63    1.15
  -1  -5 -23    0.94    1.39
  -5   6 -23   -0.04    1.33
   6  -1 -23   -0.31    1.52
   5  -6  23    1.38    2.51
   1   5  23   -1.64    1.81
   2   4 -23    2.73    2.03
   2   4 -23    2.99    1.95
  -6   2 -23    0.18    1.62
   2   4 -23    0.48    1.30
   4  -6 -23    1.01    1.83
   6  -2  23    3.49    3.07
  -4   6  23    1.00    2.34
  -2  -4  23    5.19    3.11
   5   1 -23   -1.01    1.31
   5   1 -23   -1.11    1.36
  -6   5 -23   -0.06    1.45
   5   1 -23    0.24    1.97
   1  -6 -23    0.46    1.82
   1  -6 -23    1.19    1.85
  -1   6  23   -1.65    1.87
   6  -5  23   -0.63    1.76
   3  -7 -23    0.73    2.03
   4   3 -23   -0.55    1.46
   4   3 -23    0.60    1.96
   4   3 -23    2.07    2.15
  -4  -3  23    0.54    2.58
   7  -4  23    0.50    2.67
  -3   7  23    1.76    3.09
   0   0 -24  130.91    8.86
   0   0 -24  139.05    9.10
   0   0 -24  122.34    9.49
   2  -1 -24    4.42    2.09
  -1   2 -24    3.94    1.95
  -1  -1 -24    2.76    1.87
  -1   2 -24    6.75    1.80
   2  -1 -24    5.01    1.94
   2  -1 -24    3.77    1.54
  -1  -1 -24    6.33    2.06
   1   1  24    7.74    2.48
   1  -2  24    0.13    1.69
   1   1 -24  102.06    8.21
   1  -2 -24  103.47    8.16
   1  -2 -24  109.77    7.69
   1   1 -24   89.47    7.19
  -2   1 -24   86.47    6.48
  -2   1 -24   97.65    8.09
  -1   2  24  101.27    8.74
   2  -1  24   99.10   10.84
  -2  -2 -24   79.07    8.72
  -2   4 -24   73.43    8.06
   4  -2 -24   60.30    7.44
  -2  -2 -24   78.99    8.19
   4  -2 -24   73.19    8.11
   2   2  24   75.72    8.48
   2  -4  24   75.01   10.05
   0   3 -24  112.32    8.77
   3  -3 -24   93.14    7.98
   0   3 -24  104.12    7.46
   3  -3 -24  109.91    7.69
  -3   0 -24   98.80    9.54
  -3   0 -24   94.19    8.32
  -3   3  24  115.83    9.94
   3   0  24  108.54   11.45
   0  -3  24   90.85   10.64
   3   0 -24  108.83    8.48
   0  -3 -24  103.49    8.65
   3   0 -24  106.82    8.72
  -3   3 -24  110.79    8.62
   0  -3 -24  101.54    8.29
   3  -3  24   93.07   11.07
   0   3  24  120.31    9.77
  -3  -3 -24   71.12    8.50
  -3  -3 -24   72.41    8.04
  -3   6 -24   56.24    7.05
   6  -3 -24   55.09    7.42
   3  -6  24   55.21    8.49
   3  -6  24   58.12    9.36
  -4  -1 -24    1.61    1.61
  -1   5 -24    2.81    1.98
   5  -4 -24    1.98    1.83
  -4  -1 -24    0.90    1.53
   1  -5  24    2.15    2.72
   2   2 -24    2.16    1.50
  -4   2 -24    3.14    1.93
   2  -4 -24    3.80    1.99
   2  -4 -24    4.43    2.38
   2   2 -24    5.06    2.62
   4  -2  24    0.24    1.86
  -2   4  24    5.44    2.88
  -2  -2  24    1.00    1.76
  -1  -4 -24    3.94    2.35
   5  -1 -24    0.28    1.90
   5  -1 -24    3.96    2.18
  -4   5 -24    4.16    2.26
  -1  -4 -24   -0.13    1.54
   1   4  24    0.51    2.18
   4  -5  24    3.03    3.10
   1   4 -24   62.75    7.78
   1   4 -24   57.53    7.62
   4  -5 -24   48.99    6.31
   1   4 -24   56.46    6.53
  -5   1 -24   50.88    6.95
   5  -1  24   58.16    8.63
  -4   5  24   66.40    9.60
  -1  -4  24   73.70    9.67
   4   1 -24   45.62    6.40
   1  -5 -24   49.81    6.70
   1  -5 -24   54.39    7.24
  -5   4 -24   53.44    6.50
   4   1 -24   50.19    6.81
   4   1 -24   75.36    8.56
   5  -4  24   51.68    8.06
  -1   5  24   55.03    8.37
   3   3 -24   54.87    7.68
   3   3 -24   59.76    7.89
  -6   3 -24   68.91    7.52
   3   3 -24   54.88    7.11
   3  -6 -24   75.02    8.18
  -3   6  24   61.30    9.27
   6  -3  24   57.39    9.16
   0   1 -25    2.18    1.21
   1  -1 -25    1.74    1.43
  -1   0 -25    0.48    1.15
   1  -1 -25    0.58    1.10
   0   1 -25    1.63    1.54
  -1   0 -25   -0.45    1.16
  -2  -1 -25    1.33    1.69
  -1   3 -25   -0.90    0.85
  -1   3 -25   -0.17    1.28
   3  -2 -25    0.26    1.16
  -2  -1 -25   -1.35    1.04
   3  -2 -25    1.96    1.51
  -3   2  25   -1.26    1.93
   2   0 -25   -1.14    1.42
  -2   2 -25   -0.12    1.38
   0  -2 -25   -1.28    1.28
   0  -2 -25   -0.43    1.31
   2   0 -25   -0.89    0.99
   2  -2  25   -0.44    2.03
  -2   0  25    3.39    2.30
   0   2  25    0.78    1.59
  -2   5 -25    1.65    1.55
   5  -3 -25   -0.44    0.88
  -3  -2 -25    0.82    1.81
  -3  -2 -25    1.86    1.68
   2  -5  25    0.71    2.66
   1   2 -25    3.56    1.66
   2  -3 -25    2.59    2.02
  -3   1 -25    2.99    1.98
   1   2 -25    1.23    1.78
   2  -3 -25    2.41    1.68
  -2   3  25    0.86    1.85
  -1  -2  25    4.62    2.58
   3  -1  25    3.44    2.23
  -1  -3 -25    3.05    2.01
  -1  -3 -25    5.46    2.32
   4  -1 -25    5.63    2.45
  -3   4 -25   -0.58    1.23
   4  -1 -25   -0.51    1.23
   1   3  25    1.23    2.19
   3  -4  25    3.25    2.89
  -4   0 -25   -0.86    1.36
   0   4 -25   -0.15    1.13
   0   4 -25    1.70    1.89
   4  -4 -25    0.48    1.40
   0  -4  25   -0.17    2.41
  -4   4  25    0.13    1.56
   3   1 -25   -1.21    1.45
   1  -4 -25   -0.02    1.43
   1  -4 -25    0.11    1.53
   3   1 -25   -0.43    1.25
  -4   3 -25    0.01    1.32
  -3  -1  25    0.20    2.02
  -1   4  25    0.16    1.83
   4  -3  25   -0.89    2.10
  -2  -4 -25    0.60    1.76
  -2  -4 -25    0.17    1.64
  -4   6 -25    4.31    2.25
   6  -2 -25    1.95    1.95
   2   4  25    0.03    2.28
   4  -6  25    1.77    3.05
  -1   6 -25    2.78    2.15
  -5  -1 -25    3.13    2.56
   1  -6  25    1.95    2.92
   2   3 -25    1.72    1.63
  -5   2 -25    0.94    1.76
   3  -5 -25    1.31    1.98
   3  -5 -25    0.85    1.71
   2   3 -25    0.76    1.89
   2   3 -25    1.59    1.97
  -2  -3  25    1.84    2.39
   5  -2  25    1.20    2.90
  -3   5  25    4.23    2.77
  -5   5 -25    2.01    1.76
   5   0 -25    1.56    1.74
   5   0 -25   -2.87    2.01
   0  -5 -25   -1.48    1.48
   0  -5 -25    4.91    2.09
   5   0 -25   -1.06    1.30
   5  -5  25    1.23    2.48
   0   5  25    0.34    2.42
  -6   1 -25    2.42    2.49
   1   5 -25    2.91    2.64
  -1  -5  25    1.15    3.10
  -5   6  25   -1.33    1.28
   6  -1  25    8.71    4.23
   2  -6 -25    3.82    2.63
   4   2 -25    1.62    2.39
  -6   4 -25    1.94    2.19
   4   2 -25    3.31    2.48
   4   2 -25    4.04    2.35
   2  -6 -25    4.95    2.82
  -2   6  25    7.36    3.40
   6  -4  25    4.45    3.47
  -1   1 -26    0.72    1.52
   0  -1 -26    0.53    1.41
   0  -1 -26    1.49    1.40
   1   0 -26    0.68    1.57
   1   0 -26    0.73    1.28
  -1   1 -26    1.17    1.20
   2  -2 -26    0.15    1.62
   0   2 -26    1.11    1.72
   0   2 -26   -0.18    1.04
  -2   0 -26    1.28    1.78
   2  -2 -26    2.37    1.61
  -2   3 -26   -2.06    0.92
  -1  -2 -26   -0.66    1.35
   3  -1 -26    1.73    1.71
   3  -1 -26    0.63    1.41
  -1  -2 -26   -0.43    0.99
  -3   1  26    0.21    1.41
   1   2  26    0.29    1.91
   4  -3 -26    1.65    3.12
  -3  -1 -26    1.69    1.84
   4  -3 -26    2.14    1.73
  -3  -1 -26   -0.54    1.65
  -1   4 -26    1.49    1.87
   1  -4  26   -2.70    1.78
   1  -3 -26    3.74    2.00
   2   1 -26    0.58    1.52
  -3   2 -26    7.33    2.71
   2   1 -26   -0.23    1.40
   1  -3 -26    2.29    2.04
   3  -2  26    0.90    2.11
  -1   3  26    0.74    1.96
  -2  -1  26    0.88    2.10
  -2  -3 -26    1.20    1.74
  -2  -3 -26    1.32    2.02
   5  -2 -26    2.53    2.14
  -3   5 -26    2.94    1.97
   2   3  26    1.45    2.84
  -4   1 -26   -0.46    1.46
   3  -4 -26    1.01    1.69
   3  -4 -26    0.23    2.07
   1   3 -26    0.01    1.33
   1   3 -26   -0.65    1.51
  -3   4  26    2.15    2.27
  -1  -3  26    0.61    2.02
  -4   4 -26   -0.02    1.59
   4   0 -26   -0.94    1.31
   0  -4 -26   -1.40    1.03
   4   0 -26   -1.27    1.69
   0  -4 -26   -0.81    1.75
   0   4  26    0.62    2.19
   4  -4  26   -1.35    2.33
  -5   0 -26    1.40    1.95
   0   5 -26    2.95    2.25
   0  -5  26    3.58    3.46
   3   2 -26   -1.00    1.59
   3   2 -26   -0.43    1.26
   3   2 -26   -1.35    1.71
   2  -5 -26    0.63    2.00
   2  -5 -26    0.37    1.66
  -5   3 -26   -0.86    1.32
   5  -3  26   -1.03    2.56
  -3  -2  26    1.51    2.47
  -2   5  26    0.13    2.32
   0   0 -27   29.98    5.17
   0   0 -27   31.43    4.50
  -1   2 -27   94.55    7.15
  -1  -1 -27   86.78    9.62
   2  -1 -27   68.33    7.98
  -1  -1 -27   84.22    8.54
   2  -1 -27  101.26    8.36
  -1   2 -27   97.18    9.86
   1   1  27   96.09   11.68
  -2   1  27   96.33    9.53
   1   1 -27   36.60    5.94
  -2   1 -27   39.23    6.07
   1  -2 -27   42.77    6.32
   1   1 -27   50.54    5.90
   1  -2 -27   44.88    5.67
  -1  -1  27   39.35    6.60
  -1   2  27   50.26    7.19
   4  -2 -27   42.02    6.19
  -2  -2 -27   45.08    6.17
   4  -2 -27   25.44    4.83
  -2  -2 -27   40.93    6.39
  -2   4 -27   39.15    5.93
   0   3 -27   26.46    5.07
  -3   0 -27   26.56    5.02
   0   3 -27   26.51    4.11
   3  -3 -27   26.76    4.26
   3  -3 -27   35.14    5.53
   0  -3  27   28.44    6.26
   3   0 -27   20.37    4.17
   0  -3 -27   18.29    4.33
   3   0 -27   27.92    5.35
  -3   3 -27   24.08    4.71
   0  -3 -27   33.30    5.14
   0   3  27   23.72    5.18
  -3   0  27   21.39    4.28
  -1   5 -27   46.78    6.72
   5  -4 -27   35.98    5.90
  -4  -1 -27   43.95    6.81
   1  -5  27   37.76    7.28
   2   2 -27   69.68    8.49
   2  -4 -27   67.14    7.51
   2  -4 -27   66.50    8.29
  -4   2 -27   79.92    8.81
   2   2 -27   53.31    6.70
  -2   4  27   72.95    9.63
  -2  -2  27   67.48    8.82
  -1  -4 -27   61.25    7.81
  -4   5 -27   49.91    6.86
   5  -1 -27   40.47    6.30
  -1  -4 -27   47.40    7.11
   1   4  27   70.15    9.06
   4  -5  27   53.93   10.68
   1   4 -27   23.19    5.02
  -5   1 -27   22.94    4.76
   4  -5 -27   36.13    5.89
   1   4 -27   34.22    5.09
  -4   5  27   21.80    5.68
  -1  -4  27   20.01    5.33
   4   1 -27   30.05    5.44
   4   1 -27   18.93    4.22
   1  -5 -27   26.84    5.06
  -5   4 -27   27.53    4.83
   4   1 -27   35.29    6.27
   1  -5 -27   19.33    4.60
   5  -4  27   26.78    6.87
  -1   5  27   30.24    6.29
   0   1 -28    0.73    1.70
  -1   0 -28    1.83    1.89
  -1   0 -28    2.25    1.48
   1  -1 -28    2.49    1.75
   1  -1 -28    2.23    2.11
   1  -1 -28    1.20    1.46
   0   1 -28   -0.61    1.13
  -2  -1 -28    1.16    2.13
   3  -2 -28    0.99    1.54
  -1   3 -28    1.31    2.12
   3  -2 -28    2.08    2.28
  -2  -1 -28    0.28    1.46
   2   0 -28    0.85    1.74
   2   0 -28   -1.50    1.32
  -2   2 -28   -0.69    1.48
   0  -2 -28    2.77    2.11
   0  -2 -28    0.69    1.49
   0   2  28    1.56    2.09
  -2   0  28   -2.24    2.06
  -3  -2 -28    1.93    2.21
   2  -3 -28    0.95    2.01
   1   2 -28   -0.59    1.34
   2  -3 -28   -1.83    1.22
  -3   1 -28    0.33    1.64
   1   2 -28    0.25    1.65
  -2   3  28    0.23    2.03
  -1  -2  28    1.72    2.69
  -3   4 -28    1.78    2.00
  -1  -3 -28    3.39    2.15
   4  -1 -28    1.40    1.69
   4  -1 -28    4.08    2.70
  -1  -3 -28    3.30    2.69
   1   3  28   -2.36    2.15
   0   4 -28    3.01    2.50
  -4   0 -28    6.85    3.01
   0  -4  28    4.59    3.43
  -4   3 -28    1.58    1.85
   1  -4 -28    4.47    2.57
   3   1 -28    3.11    1.91
   1  -4 -28    1.59    1.92
   3   1 -28    6.52    2.97
  -3  -1  28    4.77    3.08
  -1   4  28    3.16    2.57
   3  -5 -28    0.69    1.85
  -3   5  28    0.76    2.17
   1   0 -29    2.76    1.61
   1   0 -29    2.40    1.94
  -1   1 -29    0.61    1.56
   0  -1 -29    2.81    2.12
   0  -1 -29    2.36    2.09
   0   2 -29   -0.15    1.41
   2  -2 -29   -0.03    1.49
   2  -2 -29   -1.47    1.36
   2  -2 -29   -0.21    1.64
  -2   0 -29    1.36    1.90
   0   2 -29   -1.81    1.42
   3  -1 -29    1.01    1.60
  -2   3 -29    0.65    1.83
  -1  -2 -29   -0.26    1.71
  -1  -2 -29   -1.45    1.46
   3  -1 -29    0.60    1.94
   4  -3 -29    0.58    1.60
  -3  -1 -29    2.30    1.69
  -3  -1 -29   -0.61    1.69
  -1   4 -29    2.56    2.22
   1  -4  29    1.70    2.81
   1  -3 -29    2.10    2.20
   1  -3 -29    4.29    2.18
  -3   2 -29   -0.15    1.52
   2   1 -29   -1.28    1.81
   2   1 -29   -1.11    1.26
  -2  -1  29    2.39    2.93
  -1   3  29    2.94    2.65
   3  -4 -29    3.62    3.85
   3  -4 -29   -0.62    1.93
   1   3 -29    2.17    2.19
   1   3 -29    1.02    1.85
  -4   1 -29    1.01    1.84
  -3   4  29    1.13    2.40
  -1  -3  29    1.09    3.20
   0   0 -30   68.78    7.20
   0   0 -30   67.21    8.58
   2  -1 -30    0.36    1.89
  -1   2 -30    1.32    1.82
   2  -1 -30   -0.16    1.46
  -1  -1 -30   -2.18    1.27
  -1  -1 -30    6.07    2.90
  -2   1  30    0.66    2.44
   1   1 -30   36.17    5.39
   1  -2 -30   47.89    7.04
  -2   1 -30   43.82    6.85
   1  -2 -30   46.75    5.90
   1   1 -30   34.66    6.05
  -1  -1  30   33.87    6.60
   3  -3 -30   52.02    7.58
   3  -3 -30   37.44    5.99
   0   3 -30   45.95    7.10
  -3   0 -30   50.54    7.11
   0  -3  30   78.17   10.65
   0  -3 -30   60.49    8.14
   3   0 -30   51.15    7.58
  -3   3 -30   57.11    7.73
   0  -3 -30   73.59    8.21
   3   0 -30   43.96    6.49
   0   3  30   58.76    8.40
   1  -1 -31    0.96    1.42
   0   1 -31    3.37    2.32
  -1   0 -31   -0.66    1.90
   1  -1 -31    0.14    1.85
   2   0 -31    3.96    2.44
   2   0 -31    3.46    2.09
   0  -2 -31    0.42    2.02
   0  -2 -31    5.13    2.12
  -2   2 -31   -0.27    1.61
  -2   0  31   -1.75    2.37
   0   0   0    0.00    0.00
;
_shelx_hkl_checksum              9589
loop_
_space_group_symop_operation_xyz
'x, y, z'
'-y, x-y, z'
'-x+y, -x, z'
'x+2/3, y+1/3, z+1/3'
'-y+2/3, x-y+1/3, z+1/3'
'-x+y+2/3, -x+1/3, z+1/3'
'x+1/3, y+2/3, z+2/3'
'-y+1/3, x-y+2/3, z+2/3'
'-x+y+1/3, -x+2/3, z+2/3'
'-x, -y, -z'
'y, -x+y, -z'
'x-y, x, -z'
'-x+2/3, -y+1/3, -z+1/3'
'y+2/3, -x+y+1/3, -z+1/3'
'x-y+2/3, x+1/3, -z+1/3'
'-x+1/3, -y+2/3, -z+2/3'
'y+1/3, -x+y+2/3, -z+2/3'
'x-y+1/3, x+2/3, -z+2/3'
loop_
_atom_site_type_symbol
_atom_site_label
_atom_site_fract_x
_atom_site_fract_y
_atom_site_fract_z
_atom_site_U_iso_or_equiv
_atom_site_adp_type
_atom_site_calc_flag
_atom_site_refinement_flags_adp
_atom_site_refinement_flags_occupancy
_atom_site_refinement_flags_posn
_atom_site_occupancy
I I1 0.33906(5) 0.32774(5) 0.41930(2) 0.01378(15) Uani d . . . 1
Si Si1 0.6667 0.3333 0.38599(11) 0.0097(5) Uani d T P S 1
loop_
_atom_site_aniso_label
_atom_site_aniso_U_11
_atom_site_aniso_U_22
_atom_site_aniso_U_33
_atom_site_aniso_U_12
_atom_site_aniso_U_13
_atom_site_aniso_U_23
I1 0.0104(2) 0.0155(2) 0.0169(2) 0.00754(14) 0.00250(11) -0.00046(12)
Si1 0.0102(7) 0.0102(7) 0.0088(12) 0.0051(3) 0 0
loop_
_atom_type_symbol
_atom_type_description
_atom_type_scat_dispersion_real
_atom_type_scat_dispersion_imag
_atom_type_scat_source
Si Si 0.0817 0.0704 'International Tables Vol C Tables 4.2.6.8 and 6.1.1.4'
I I -0.4742 1.8119 'International Tables Vol C Tables 4.2.6.8 and 6.1.1.4'
loop_
_geom_angle_atom_site_label_1
_geom_angle_atom_site_label_2
_geom_angle_atom_site_label_3
_geom_angle_site_symmetry_1
_geom_angle_site_symmetry_3
_geom_angle
Si1 Si1 I1 16_655 . 107.63(5)
Si1 Si1 I1 16_655 2_655 107.63(5)
I1 Si1 I1 . 2_655 111.25(5)
Si1 Si1 I1 16_655 3_665 107.63(5)
I1 Si1 I1 . 3_665 111.25(5)
I1 Si1 I1 2_655 3_665 111.25(5)
loop_
_geom_bond_atom_site_label_1
_geom_bond_atom_site_label_2
_geom_bond_site_symmetry_2
_geom_bond_distance
I1 Si1 . 2.4301(9)
Si1 Si1 16_655 2.328(5)
Si1 I1 2_655 2.4301(9)
Si1 I1 3_665 2.4301(9)
