#------------------------------------------------------------------------------
#$Date: 2017-06-05 03:10:41 +0300 (Mon, 05 Jun 2017) $
#$Revision: 197401 $
#$URL: file:///home/coder/svn-repositories/cod/cif/4/34/57/4345762.cif $
#------------------------------------------------------------------------------
#
# This file is available in the Crystallography Open Database (COD),
# http://www.crystallography.net/
#
# All data on this site have been placed in the public domain by the
# contributors.
#
data_4345762
loop_
_publ_author_name
'Str\"obele, Markus'
'Meyer, Hans-J\"urgen'
_publ_section_title
;
 A Reaction Cycle for Octahedral Tungsten Iodide Clusters.
;
_journal_issue                   10
_journal_name_full               'Inorganic chemistry'
_journal_page_first              5880
_journal_page_last               5884
_journal_paper_doi               10.1021/acs.inorgchem.7b00537
_journal_volume                  56
_journal_year                    2017
_chemical_formula_sum            'I12 W6'
_chemical_formula_weight         2625.90
_space_group_crystal_system      monoclinic
_space_group_IT_number           14
_space_group_name_Hall           '-P 2yn'
_space_group_name_H-M_alt        'P 1 21/n 1'
_symmetry_space_group_name_Hall  '-P 2yn'
_symmetry_space_group_name_H-M   'P 1 21/n 1'
_audit_creation_method           SHELXL-2014/7
_cell_angle_alpha                90
_cell_angle_beta                 111.397(6)
_cell_angle_gamma                90
_cell_formula_units_Z            2
_cell_length_a                   10.0514(8)
_cell_length_b                   10.8396(8)
_cell_length_c                   12.8043(11)
_cell_measurement_reflns_used    9479
_cell_measurement_temperature    293(2)
_cell_measurement_theta_max      25.234
_cell_measurement_theta_min      2.223
_cell_volume                     1298.91(19)
_computing_cell_refinement       'STOE IPDS-Software'
_computing_data_collection       'STOE IPDS-Software'
_computing_data_reduction        'STOE IPDS-Software'
_computing_molecular_graphics    'Diamond 3.1'
_computing_structure_refinement  'SHELXL-2014/7 (Sheldrick, 2014)'
_computing_structure_solution    'SHELXL-2014/7 (Sheldrick, 2014)'
_diffrn_ambient_temperature      293(2)
_diffrn_measured_fraction_theta_full 0.997
_diffrn_measured_fraction_theta_max 0.997
_diffrn_measurement_device_type  'STOE IPDSIIT'
_diffrn_measurement_method       Oscillation
_diffrn_radiation_type           MoK\a
_diffrn_radiation_wavelength     0.71073
_diffrn_reflns_av_R_equivalents  0.0749
_diffrn_reflns_av_unetI/netI     0.0463
_diffrn_reflns_Laue_measured_fraction_full 0.997
_diffrn_reflns_Laue_measured_fraction_max 0.997
_diffrn_reflns_limit_h_max       12
_diffrn_reflns_limit_h_min       -11
_diffrn_reflns_limit_k_max       12
_diffrn_reflns_limit_k_min       -12
_diffrn_reflns_limit_l_max       15
_diffrn_reflns_limit_l_min       -15
_diffrn_reflns_number            9479
_diffrn_reflns_point_group_measured_fraction_full 0.997
_diffrn_reflns_point_group_measured_fraction_max 0.997
_diffrn_reflns_theta_full        25.234
_diffrn_reflns_theta_max         25.234
_diffrn_reflns_theta_min         2.223
_exptl_absorpt_coefficient_mu    40.705
_exptl_absorpt_correction_T_max  0.6265
_exptl_absorpt_correction_T_min  0.1244
_exptl_absorpt_correction_type   numerical
_exptl_absorpt_process_details   'STOE X-Red/X-Shape/Lana'
_exptl_crystal_colour            red
_exptl_crystal_density_diffrn    6.714
_exptl_crystal_description       Plate
_exptl_crystal_F_000             2160
_exptl_crystal_size_max          0.06
_exptl_crystal_size_mid          0.04
_exptl_crystal_size_min          0.02
_refine_diff_density_max         1.595
_refine_diff_density_min         -1.595
_refine_diff_density_rms         0.387
_refine_ls_extinction_method     none
_refine_ls_goodness_of_fit_ref   1.054
_refine_ls_hydrogen_treatment    undef
_refine_ls_matrix_type           full
_refine_ls_number_parameters     82
_refine_ls_number_reflns         2335
_refine_ls_number_restraints     0
_refine_ls_restrained_S_all      1.054
_refine_ls_R_factor_all          0.0562
_refine_ls_R_factor_gt           0.0444
_refine_ls_shift/su_max          0.000
_refine_ls_shift/su_mean         0.000
_refine_ls_structure_factor_coef Fsqd
_refine_ls_weighting_details
'w=1/[\s^2^(Fo^2^)+(0.0044P)^2^+61.5829P] where P=(Fo^2^+2Fc^2^)/3'
_refine_ls_weighting_scheme      calc
_refine_ls_wR_factor_gt          0.0642
_refine_ls_wR_factor_ref         0.0675
_reflns_Friedel_coverage         0.000
_reflns_number_gt                1999
_reflns_number_total             2335
_reflns_threshold_expression     'I > 2\s(I)'
_cod_data_source_file            ic7b00537_si_002.cif
_cod_data_source_block           D:\NurXRED\W6I12M
_cod_depositor_comments
'Adding full bibliography for 4345762--4345763.cif.'
_cod_database_code               4345762
_shelx_shelxl_version_number     2014/7
_shelx_space_group_comment
;
The symmetry employed for this shelxl refinement is uniquely defined
by the following loop, which should always be used as a source of
symmetry information in preference to the above space-group names.
They are only intended as comments.
;
_shelx_res_file
;

    D:\NurXRED\W6I12M.res created by SHELXL-2014/7

TITL
CELL  0.71073 10.05140 10.83960 12.80430 90.00000 111.39700 90.00000
ZERR 2  0.00080  0.00080  0.00110  0.00000  0.00600  0.00000
LATT 1
SYMM -X+ 0.50000, Y+ 0.50000, -Z+ 0.50000
SFAC W I
UNIT 12 24
PLAN 30
FMAP 2
L.S. 10
ACTA
WGHT    0.004400   61.582901
FVAR       0.09282
W1    1    0.352557    0.579337    0.032267    11.00000    0.02643    0.02008 =
         0.02445   -0.00139    0.00397    0.00063
W2    1    0.619420    0.638658    0.053087    11.00000    0.02821    0.01732 =
         0.02338   -0.00077    0.00350   -0.00064
W3    1    0.571437    0.432009    0.145858    11.00000    0.02659    0.01748 =
         0.02382   -0.00038    0.00270   -0.00123
I1    2    0.537178    0.657613    0.240716    11.00000    0.03635    0.02564 =
         0.02500   -0.00633    0.00412   -0.00026
I2    2    0.404684    0.802055   -0.060872    11.00000    0.03372    0.02053 =
         0.03287    0.00081    0.00261    0.00142
I3    2    0.297820    0.365126    0.133703    11.00000    0.03593    0.03069 =
         0.03050   -0.00023    0.00985   -0.00349
I4    2    0.146455    0.506560   -0.172080    11.00000    0.03123    0.02273 =
         0.03021    0.00084    0.00342    0.00050
I5    2    0.807790    0.849597    0.124227    11.00000    0.03768    0.02247 =
         0.02784   -0.00443    0.00597   -0.00634
I6    2    0.131670    0.700448    0.074398    11.00000    0.04067    0.04500 =
         0.04870   -0.00956    0.01510    0.00601
HKLF 4

REM
REM R1 =  0.0444 for    1999 Fo > 4sig(Fo)  and  0.0562 for all    2335 data
REM     82 parameters refined using      0 restraints

END

WGHT      0.0044     61.5708

REM Highest difference peak  1.595,  deepest hole -1.595,  1-sigma level  0.387
Q1    1   0.7145  0.5981  0.2352  11.00000  0.05    1.60
Q2    1   0.2920  0.6821  0.2817  11.00000  0.05    1.52
Q3    1   0.0136  0.6344  0.0903  11.00000  0.05    1.45
Q4    1   0.3462  0.3592  0.2846  11.00000  0.05    1.43
Q5    1   0.2371  0.5185 -0.1893  11.00000  0.05    1.38
Q6    1   0.1869  0.5401  0.1777  11.00000  0.05    1.37
Q7    1   0.0048  0.4199 -0.1399  11.00000  0.05    1.28
Q8    1  -0.0615  0.5800 -0.2767  11.00000  0.05    1.26
Q9    1   0.5401  0.6606  0.0632  11.00000  0.05    1.26
Q10   1   0.7666  0.8625  0.2199  11.00000  0.05    1.21
Q11   1   0.5006  0.7541  0.1632  11.00000  0.05    1.21
Q12   1   0.3867  0.7268  0.0049  11.00000  0.05    1.19
Q13   1   1.0443  0.9413  0.1339  11.00000  0.05    1.19
Q14   1   0.3348  0.8129 -0.0279  11.00000  0.05    1.17
Q15   1   0.1801  0.6609 -0.1501  11.00000  0.05    1.15
Q16   1   0.3859  0.5355  0.0832  11.00000  0.05    1.12
Q17   1   0.6199  0.7326  0.2638  11.00000  0.05    1.12
Q18   1   0.1571  0.3432 -0.0767  11.00000  0.05    1.10
Q19   1   0.1339  0.9346  0.0475  11.00000  0.05    1.10
Q20   1   0.2100  0.7548  0.0666  11.00000  0.05    1.10
Q21   1   0.3262  0.2388  0.1820  11.00000  0.05    1.10
Q22   1   0.4068  0.9526  0.1033  11.00000  0.05    1.09
Q23   1   0.3011  0.5863  0.0611  11.00000  0.05    1.09
Q24   1   0.6274  0.4636  0.0647  11.00000  0.05    1.09
Q25   1   0.2458  0.3970  0.2447  11.00000  0.05    1.08
Q26   1   0.0845  1.0004  0.0589  11.00000  0.05    1.08
Q27   1   0.2697  0.8216  0.1348  11.00000  0.05    1.08
Q28   1   0.2129  0.3774  0.1531  11.00000  0.05    1.07
Q29   1   0.6155  0.9291  0.0682  11.00000  0.05    1.07
Q30   1  -0.0835  0.7658 -0.0622  11.00000  0.05    1.06
;
_shelx_res_checksum              993
_shelx_hkl_file
;
  -2   0   0   12.42    5.10   0
   2   0   0    1.55    4.82   0
   2   0   0   14.18    5.32   0
   4   0   0 3811.78   10.80   0
  -4   0   0 3812.44   11.10   0
   4   0   0 3812.84   11.37   0
   6   0   0   31.90    4.52   0
   6   0   0   20.42    4.88   0
   8   0   0   17.29    4.70   0
   8   0   0    6.95    4.68   0
  10   0   0    8.47    4.91   0
  10   0   0   22.79    5.38   0
  -1   1   0 2006.10    7.82   0
   1   1   0 2006.27    8.14   0
  -2   1   0   21.87    5.18   0
   2   1   0   39.15    4.95   0
   2   1   0   32.77    4.84   0
   2  -1   0   35.10    5.25   0
   3   1   0  188.39    4.70   0
   3   1   0  172.08    5.17   0
  -3   1   0  183.82    4.58   0
   3  -1   0  202.38    4.78   0
  -4   1   0    8.03    4.62   0
   4   1   0   11.90    5.27   0
   4   1   0    7.19    5.34   0
   4   1   0   10.83    5.00   0
   4  -1   0    4.95    5.00   0
   5   1   0   11.84    5.02   0
   5   1   0    2.24    5.37   0
   5   1   0   -4.84    4.74   0
  -5   1   0    6.19    5.35   0
   5  -1   0   16.69    5.01   0
   6   1   0   27.84    5.19   0
  -6   1   0   22.06    5.19   0
   6   1   0   30.15    8.23   0
   6  -1   0   30.21    7.25   0
   6  -1   0   30.51    8.10   0
  -7   1   0  159.44    6.37   0
   7   1   0  152.65    5.57   0
   7   1   0  164.88    9.11   0
   7  -1   0  151.04    8.80   0
   7  -1   0  157.35    7.58   0
   8   1   0   48.01    6.10   0
   8   1   0   35.12    8.99   0
   8  -1   0   49.11    8.09   0
   8  -1   0   47.62    8.06   0
   9   1   0   18.68    5.39   0
   9   1   0   12.82    7.17   0
   9  -1   0   11.51    6.50   0
   9  -1   0   18.21    7.22   0
  10   1   0  273.95    6.27   0
  10   1   0  304.43    8.55   0
  10  -1   0  293.98    7.95   0
  10  -1   0  289.67    7.60   0
  11   1   0    8.84    7.50   0
  11   1   0    7.24    5.63   0
  11  -1   0    7.47    6.08   0
  11  -1   0    8.32    6.83   0
   0   2   0    6.77    7.16   0
   0  -2   0    7.37    7.17   0
   1   2   0   45.89    7.16   0
  -1   2   0   28.01    7.40   0
  -1  -2   0   39.29    7.36   0
   1  -2   0   36.19    7.14   0
  -2   2   0    2.38    7.56   0
   2   2   0    7.74    6.96   0
   2  -2   0    4.18    6.94   0
  -2  -2   0   17.79    7.30   0
   3   2   0   15.45    2.25   0
   3   2   0   14.89    1.99   0
  -3   2   0   14.95    1.79   0
  -3  -2   0   15.08    1.63   0
   3  -2   0   15.48    1.53   0
   4   2   0   46.06    4.53   0
   4   2   0   45.72    4.54   0
  -4   2   0   45.86    4.52   0
   4  -2   0   46.22    5.36   0
  -4  -2   0   45.78    4.84   0
   5   2   0  186.84    5.76   0
  -5   2   0  227.45    4.52   0
   5   2   0  196.24    7.24   0
   5   2   0  183.98    6.63   0
   5  -2   0  136.36    6.35   0
   6   2   0   46.95    4.87   0
  -6   2   0   43.21    5.39   0
   6   2   0   38.32    6.24   0
   6   2   0   37.39    4.94   0
   6  -2   0   49.88    4.56   0
  -7   2   0  102.20    5.32   0
   7   2   0   95.60    7.07   0
   7   2   0  105.51    5.28   0
   7  -2   0   81.15    5.83   0
   8   2   0   20.31    7.59   0
   8   2   0   23.56    4.76   0
   8  -2   0   14.61    4.58   0
   8  -2   0   17.96    6.46   0
   9   2   0   -9.59    7.23   0
   9   2   0    4.60    4.40   0
   9  -2   0   -0.55    4.68   0
   9  -2   0   -5.44    6.01   0
  10   2   0  193.48    9.33   0
  10   2   0  165.39    5.35   0
  10  -2   0  175.95    8.50   0
  10  -2   0  145.45    6.81   0
  11   2   0  345.93    6.65   0
  11   2   0  312.96    8.37   0
  11  -2   0  327.15    9.31   0
  11  -2   0  310.06    8.67   0
   1   3   0  505.54    4.66   0
  -1   3   0  505.74    4.71   0
   1  -3   0  505.85    4.67   0
  -1  -3   0  506.43    4.69   0
  -2   3   0  532.67    5.09   0
   2   3   0  533.38    4.89   0
  -2  -3   0  532.84    4.56   0
   2  -3   0  532.84    4.70   0
   3   3   0  556.11    5.01   0
  -3   3   0  555.72    5.48   0
  -3  -3   0  555.76    5.17   0
   3  -3   0  555.65    4.72   0
   4   3   0    7.92    1.57   0
  -4   3   0    7.90    2.47   0
   4   3   0    7.70    2.21   0
  -4  -3   0    7.98    1.52   0
   4  -3   0    8.42    1.95   0
   5   3   0  667.89    6.23   0
  -5   3   0  668.10    5.89   0
   5   3   0  667.70    5.93   0
   5  -3   0  668.19    6.05   0
  -5  -3   0  667.95    5.66   0
   6   3   0   10.79    5.02   0
   6   3   0    9.14    4.32   0
  -6   3   0    3.69    5.45   0
   6   3   0   11.20    6.23   0
   6  -3   0    5.13    4.58   0
   7   3   0   38.73    5.38   0
   7   3   0   25.58    4.52   0
  -7   3   0    2.39    4.74   0
   7   3   0   28.09    6.58   0
   7  -3   0   21.46    6.19   0
   8   3   0  143.93    6.16   0
  -8   3   0  111.28    5.07   0
   8   3   0  140.39    4.74   0
   8   3   0  138.36    7.15   0
   8  -3   0  121.08    6.33   0
   9   3   0   -6.46    5.06   0
   9   3   0    1.38    5.97   0
   9  -3   0   -0.46    5.68   0
   9  -3   0  -20.37    4.67   0
  10   3   0   94.37    7.46   0
  10   3   0   65.55    4.79   0
  10  -3   0   72.17    9.13   0
  10  -3   0   64.96    6.39   0
   0   4   0 2193.88    6.32   0
   0  -4   0 2194.05    6.02   0
   1   4   0  799.01    7.44   0
  -1   4   0  798.86    7.24   0
   1  -4   0  799.35    7.20   0
  -1  -4   0  798.82    7.49   0
   2   4   0   53.73    5.44   0
  -2   4   0   53.94    2.68   0
  -2  -4   0   53.67    2.63   0
   2  -4   0   54.25    3.40   0
   3   4   0 1923.69    5.60   0
  -3   4   0 1923.62    5.56   0
  -3  -4   0 1923.98    5.90   0
   3  -4   0 1923.98    6.31   0
   4   4   0    7.51    1.66   0
  -4   4   0    8.36    1.84   0
  -4  -4   0    7.77    1.95   0
   4  -4   0    7.53    1.77   0
   5   4   0  105.54    4.65   0
  -5   4   0   86.73    6.13   0
   5   4   0  131.82    6.76   0
  -5  -4   0  109.82    5.36   0
   5  -4   0   64.22    4.65   0
  -6   4   0   -6.44    8.21   0
   6   4   0   -3.91    4.70   0
   6   4   0   -1.87    3.11   0
  -6  -4   0   -0.53    3.52   0
   6  -4   0    4.07    4.75   0
   7   4   0    3.18    4.57   0
   7   4   0    3.30    4.76   0
  -7   4   0    3.11    4.63   0
   7   4   0    2.77    4.66   0
   7  -4   0    2.72    5.07   0
  -8   4   0   28.95    4.66   0
   8   4   0   17.33    6.39   0
   8   4   0   26.52    4.92   0
  -8   4   0   12.14    5.30   0
   8   4   0   23.15    5.08   0
   8  -4   0   23.09    5.23   0
   9   4   0    6.39    4.72   0
  -9   4   0    4.88    4.86   0
   9   4   0    6.05    4.70   0
   9   4   0   -3.88    4.61   0
  -9   4   0    5.42    4.89   0
   9  -4   0   -3.02    5.42   0
  10   4   0   55.70    4.52   0
  10   4   0   67.91    6.91   0
  10  -4   0   49.49    4.79   0
  10  -4   0   68.16    4.71   0
  -1   5   0 2445.59    3.22   0
   1   5   0 2445.91    3.31   0
   1  -5   0 2446.49    2.96   0
  -1  -5   0 2446.14    3.19   0
   2   5   0 1811.56    2.69   0
  -2   5   0 1811.98    3.43   0
  -2  -5   0 1811.68    3.12   0
   2  -5   0 1811.97    3.35   0
   3   5   0 1873.61    3.03   0
  -3   5   0 1873.81    2.57   0
  -3  -5   0 1874.48    3.26   0
   3  -5   0 1874.49    3.19   0
   4   5   0  485.90    2.89   0
  -4   5   0  486.02    2.75   0
  -4  -5   0  485.97    3.45   0
   4  -5   0  486.13    2.83   0
   5   5   0  483.81    4.79   0
   5   5   0  484.07    5.13   0
  -5   5   0  484.23    5.15   0
  -5  -5   0  483.81    4.65   0
   5  -5   0  484.28    4.75   0
   6   5   0   21.53    4.60   0
   6   5   0   13.53    4.99   0
  -6   5   0   20.24    6.69   0
   6  -5   0   15.60    4.60   0
  -6  -5   0   19.06    3.50   0
   7   5   0  109.84    4.68   0
   7   5   0  103.89    5.03   0
  -7   5   0   78.43    8.68   0
   7  -5   0   90.92    5.33   0
  -7  -5   0  106.35    5.25   0
  -8   5   0    3.14    5.12   0
   8   5   0    2.91    4.20   0
   8   5   0    3.48    5.25   0
  -8   5   0    2.97    5.10   0
   8   5   0    2.73    4.67   0
   8  -5   0    2.86    4.17   0
  -9   5   0    6.87    4.87   0
  -9   5   0    0.70    4.80   0
   9   5   0    6.96    4.93   0
   9   5   0    9.58    4.43   0
   9   5   0    6.79    4.81   0
   9  -5   0   10.18    4.94   0
  10   5   0   38.51    4.63   0
  10   5   0   26.83    5.80   0
  10  -5   0   29.54    5.34   0
   0   6   0  419.01    3.97   0
   0  -6   0  418.73    3.87   0
  -1   6   0  659.18    4.91   0
   1   6   0  658.96    5.10   0
  -1  -6   0  659.22    5.27   0
   1  -6   0  659.23    4.93   0
  -2   6   0   36.75    2.41   0
   2   6   0   37.35    2.41   0
  -2  -6   0   36.94    2.16   0
   2  -6   0   37.16    2.32   0
  -3   6   0  298.00    5.16   0
   3   6   0  298.02    4.74   0
  -3  -6   0  297.64    5.44   0
   3  -6   0  297.87    4.60   0
  -4   6   0    8.98    4.68   0
   4   6   0    4.51    3.15   0
   4  -6   0   -0.09    4.12   0
  -4  -6   0    4.67    4.58   0
  -5   6   0   73.11    5.97   0
   5   6   0   74.48    4.41   0
   5   6   0   73.76    7.22   0
  -5  -6   0   79.72    4.71   0
   5  -6   0   49.21    4.63   0
  -6   6   0   44.50    5.77   0
   6   6   0   64.32    4.54   0
   6   6   0   42.04    5.17   0
   6  -6   0   37.47    4.67   0
  -6  -6   0   50.47    4.52   0
   7   6   0   18.45    6.14   0
   7   6   0    7.79    4.44   0
  -7   6   0   18.43    6.49   0
   7  -6   0    8.96    5.04   0
  -7  -6   0   -0.58    3.40   0
   8   6   0    6.79    6.92   0
   8   6   0   15.78    4.36   0
  -8   6   0   45.65   10.13   0
   8  -6   0    9.55    5.10   0
   9   6   0   61.82    4.48   0
  -9   6   0   38.11    4.96   0
  -9   6   0   45.22   10.16   0
   9   6   0   74.85    4.62   0
   9   6   0   62.11    5.46   0
   9  -6   0   62.16    5.31   0
   1   7   0   75.62    4.18   0
  -1   7   0   43.80    3.13   0
  -1  -7   0   58.88    4.06   0
   1  -7   0   38.62    3.02   0
   2   7   0    0.07    2.11   0
  -2   7   0    0.11    2.26   0
   2  -7   0    0.11    2.40   0
  -2  -7   0    0.05    2.07   0
   3   7   0   49.08    3.35   0
  -3   7   0   49.45    3.29   0
  -3  -7   0   48.62    2.54   0
   3  -7   0   49.00    3.45   0
   4   7   0  -11.56    4.56   0
  -4   7   0    9.36    4.48   0
  -4  -7   0   -5.90    4.42   0
   4  -7   0    3.65    3.99   0
   5   7   0   80.22    6.94   0
   5   7   0   65.45    4.62   0
  -5   7   0   43.88    4.93   0
   5  -7   0   24.75    4.16   0
  -5  -7   0   39.31    3.32   0
  -6   7   0   13.08    4.98   0
   6   7   0   29.53    6.25   0
   6   7   0    5.84    4.03   0
   6  -7   0   15.20    4.21   0
  -6  -7   0    8.67    4.48   0
   7   7   0   36.95    3.14   0
   7   7   0   45.53    6.87   0
  -7   7   0   42.72    5.67   0
   7  -7   0   46.40    4.90   0
  -7  -7   0   46.62    4.63   0
   8   7   0  167.71    4.68   0
  -8   7   0  153.83    4.94   0
   8   7   0  167.12    4.84   0
  -8  -7   0  137.10    4.70   0
   8  -7   0  147.39    5.19   0
   9   7   0  348.44    8.15   0
  -9   7   0  283.23    6.66   0
   9   7   0  323.16    5.55   0
  -9   7   0  344.54    5.20   0
   9   7   0  359.36    5.70   0
   9  -7   0  312.60    6.25   0
   0   8   0   88.21    4.36   0
   0  -8   0   70.24    4.14   0
   1   8   0  161.95    3.23   0
  -1   8   0  161.61    4.74   0
  -1  -8   0  161.85    3.22   0
   1  -8   0  162.17    4.62   0
  -2   8   0  375.12    4.85   0
   2   8   0  401.60    5.01   0
  -2  -8   0  367.72    4.95   0
   2  -8   0  358.05    4.71   0
  -3   8   0  337.93    3.91   0
   3   8   0  338.11    3.80   0
  -3  -8   0  338.40    3.72   0
   3  -8   0  337.52    4.45   0
  -4   8   0   52.52    4.25   0
   4   8   0   39.65    3.18   0
  -4  -8   0   58.40    4.52   0
   4  -8   0   26.97    3.05   0
  -5   8   0   17.67    2.46   0
   5   8   0   18.17    1.98   0
  -5  -8   0   17.64    2.20   0
   5  -8   0   18.20    2.16   0
   6   8   0  165.54    4.20   0
   6   8   0  142.27    5.48   0
  -6   8   0  152.73    5.15   0
  -6  -8   0  161.01    4.15   0
   6  -8   0  181.43    5.03   0
   7   8   0    0.44    2.09   0
  -7   8   0    0.40    2.20   0
   7   8   0    0.41    2.28   0
  -7  -8   0    0.40    2.23   0
   7  -8   0    0.38    1.79   0
   8   8   0   45.83    7.76   0
   8   8   0   63.49    4.66   0
  -8   8   0   59.27    7.74   0
  -8  -8   0   77.79    4.88   0
   8  -8   0   56.39    4.96   0
  -1   9   0  733.62    3.98   0
   1   9   0  734.05    4.49   0
  -1  -9   0  733.62    4.40   0
   1  -9   0  734.28    3.94   0
  -2   9   0 1561.92    6.25   0
   2   9   0 1561.59    6.43   0
  -2  -9   0 1562.18    6.22   0
   2  -9   0 1562.34    6.22   0
  -3   9   0   53.95    4.66   0
   3   9   0   33.65    3.02   0
  -3  -9   0   63.77    4.13   0
   3  -9   0   44.02    4.48   0
   4   9   0   71.61    3.04   0
  -4   9   0   92.82    4.45   0
   4  -9   0   87.12    4.32   0
  -4  -9   0  116.33    4.17   0
  -5   9   0   14.99    4.50   0
   5   9   0   18.26    3.79   0
   5  -9   0    4.26    4.22   0
  -5  -9   0   18.28    2.87   0
   6   9   0  110.94    2.57   0
   6   9   0  111.55    2.98   0
  -6   9   0  111.10    2.93   0
  -6  -9   0  112.68    3.49   0
   6  -9   0  112.32    3.18   0
   7   9   0   -4.07    3.89   0
  -7   9   0   18.10    5.00   0
   7   9   0   -9.59    6.43   0
  -7  -9   0   -6.67    4.32   0
   7  -9   0   -1.43    4.19   0
  -8   9   0    0.95    1.66   0
   8   9   0    0.96    2.20   0
   8   9   0    1.01    1.58   0
   8  -9   0    0.92    1.54   0
  -8  -9   0    0.93    2.30   0
   0  10   0  124.65    4.26   0
   0 -10   0  100.45    4.16   0
  -1  10   0  429.83    4.73   0
   1  10   0  429.87    5.43   0
   1 -10   0  430.36    4.59   0
  -1 -10   0  429.90    4.64   0
   2  10   0    8.77    2.82   0
  -2  10   0    4.12    3.98   0
   2 -10   0    5.31    3.67   0
  -2 -10   0   -2.09    3.94   0
   3  10   0  202.92    4.37   0
  -3  10   0  164.51    4.17   0
   3 -10   0  193.04    4.30   0
  -3 -10   0  191.73    4.25   0
   4  10   0  101.70    3.12   0
  -4  10   0  145.39    4.38   0
   4 -10   0   81.15    3.05   0
  -4 -10   0  125.68    3.92   0
  -5  10   0   51.48    4.28   0
   5  10   0   43.71    3.94   0
   5  10   0   55.16    6.30   0
  -5 -10   0   23.31    3.85   0
   5 -10   0   30.94    3.82   0
  -6  10   0    3.77    2.14   0
   6  10   0    3.98    1.85   0
   6  10   0    4.46    2.20   0
   6 -10   0    4.05    1.84   0
  -6 -10   0    4.45    2.17   0
   7  10   0    9.24    3.18   0
   7  10   0   10.43    7.59   0
  -7  10   0   10.25    5.19   0
   7 -10   0    9.87    4.56   0
  -7 -10   0    9.96    4.05   0
  -1  11   0  224.54    4.22   0
   1  11   0  216.03    4.08   0
  -1 -11   0  148.45    3.11   0
   1 -11   0  126.58    3.08   0
  -2  11   0  145.34    3.20   0
   2  11   0  279.60    4.41   0
  -2 -11   0  193.55    4.04   0
   2 -11   0  249.12    4.12   0
   3  11   0  179.60    4.27   0
  -3  11   0   97.09    3.21   0
  -3 -11   0  153.69    4.19   0
   3 -11   0  155.85    4.03   0
   4  11   0   85.46    4.02   0
  -4  11   0   90.65    4.05   0
   4 -11   0   51.55    3.08   0
  -4 -11   0   49.31    3.09   0
   5  11   0   -0.62    6.17   0
  -5  11   0   26.28    4.18   0
   5  11   0   23.59    4.23   0
  -5 -11   0   10.49    3.81   0
   5 -11   0   17.41    4.02   0
   0  12   0  101.12    4.16   0
   0 -12   0   79.72    4.04   0
   1  12   0   14.14    4.00   0
  -1  12   0    8.42    4.16   0
  -1 -12   0   -6.58    2.82   0
   1 -12   0    7.04    3.96   0
   2  12   0    6.57    2.84   0
  -2  12   0   -4.85    4.14   0
  -2 -12   0    9.24    3.75   0
   2 -12   0   19.92    4.02   0
  -3  12   0    4.53    1.83   0
   3  12   0    4.83    1.81   0
  -3 -12   0    4.87    2.36   0
   3 -12   0    4.81    1.88   0
   4  12   0   10.54    3.98   0
  -4  12   0   20.39    4.35   0
   4 -12   0   -3.74    3.81   0
  -4 -12   0    5.31    2.78   0
  11   0  -1   12.17    6.61   0
  11   0  -1   19.24    6.92   0
   9   0  -1   13.70    2.17   0
   9   0  -1   14.37    2.15   0
   7   0  -1    2.27    2.49   0
   7   0  -1    2.24    2.11   0
   5   0  -1  174.80    5.40   0
  -3   0   1  580.87    5.09   0
   3   0  -1  495.41    5.11   0
   3   0  -1  678.99    5.13   0
  -1   0   1 4967.31    9.12   0
   1   0   1  426.90    4.74   0
  -3   0  -1 2838.82    7.72   0
   3   0   1 2838.69    7.91   0
   3   0   1 2839.24    8.22   0
  -5   0  -1 1606.46    8.06   0
   5   0   1 1606.34    8.49   0
   5   0   1 1605.55    8.09   0
   7   0   1   77.03    5.09   0
   7   0   1   99.69    5.35   0
  -7   0  -1   99.46    5.05   0
   9   0   1   14.49    5.72   0
   9   0   1   17.78    8.28   0
  11   1  -1  246.19    6.61   0
  11   1  -1  231.19    7.83   0
  11  -1  -1  194.45    7.29   0
  11  -1  -1  269.69    8.94   0
  10   1  -1  209.42    6.04   0
  10   1  -1  195.65    7.54   0
  10  -1  -1  225.14    8.88   0
  10  -1  -1  212.17    8.29   0
   9   1  -1   -1.32    5.24   0
   9   1  -1   16.57    7.20   0
   9  -1  -1   22.69    7.73   0
   9  -1  -1   10.48    7.70   0
   8   1  -1   12.47    8.66   0
   8   1  -1    4.64    5.81   0
   8  -1  -1   10.61    7.59   0
   8  -1  -1    4.54    9.33   0
   7   1  -1   54.92    8.40   0
   7   1  -1   47.26    5.96   0
   7  -1  -1   50.74    7.79   0
   6   1  -1  338.33    5.31   0
   6   1  -1  337.81    4.63   0
   6   1  -1  338.30    5.16   0
  -6   1   1  337.54    4.60   0
   6  -1  -1  338.31    4.59   0
   5   1  -1   40.77    9.18   0
   5   1  -1   29.56    7.09   0
   5   1  -1   24.97    7.50   0
  -5   1   1   36.33   14.60   0
   5  -1  -1   43.61   10.02   0
   4   1  -1   28.27    7.31   0
   4   1  -1   34.77    8.37   0
  -4   1   1   49.89   15.85   0
   4   1  -1   34.88    7.26   0
   4  -1  -1   36.85   10.08   0
   3   1  -1 2420.51    6.92   0
  -3   1   1 2421.37    7.44   0
  -3   1   1 2420.72    7.21   0
   3   1  -1 2421.17    7.32   0
   3  -1  -1 2421.41    7.17   0
   2   1  -1   16.31    2.83   0
  -2   1   1   25.57    3.28   0
   2   1  -1   20.19    2.95   0
   2  -1  -1   27.57    3.20   0
  -1   1   1    3.26    3.15   0
   1   1  -1    8.53    3.37   0
  -1   1   1    0.88    2.92   0
   0   1   1 3890.19   10.21   0
  -1   1  -1   13.54    3.16   0
   1   1   1   22.27    3.03   0
   1   1   1   34.67    3.22   0
   1  -1   1   10.26    3.13   0
  -1  -1  -1   26.30    2.69   0
   2   1   1   34.66    3.00   0
   2   1   1   63.74    3.04   0
  -2   1  -1   39.45    2.64   0
   2  -1   1   25.30    3.42   0
  -2  -1  -1   52.92    2.89   0
   3   1   1    8.54    1.58   0
  -3   1  -1    8.87    2.17   0
   3   1   1    9.41    1.66   0
   3  -1   1    8.70    1.82   0
  -3  -1  -1    8.96    2.09   0
   4   1   1 3571.22    6.83   0
   4   1   1 3570.52    7.39   0
   4  -1   1 3571.23    6.88   0
  -4  -1  -1 3570.65    6.93   0
   5   1   1    7.34    8.33   0
  -5   1  -1    1.15    5.55   0
   5   1   1    5.07    5.77   0
   5  -1   1    4.34    9.37   0
  -5  -1  -1    2.10    5.81   0
   5  -1   1   -5.00    7.98   0
   6   1   1   37.42    9.34   0
  -6   1  -1   40.13    5.08   0
   6   1   1   48.22    5.35   0
   6  -1   1   40.37    7.65   0
   6  -1   1   41.99    6.52   0
  -7   1  -1  307.70    4.32   0
   7   1   1  307.51    3.50   0
   7   1   1  307.58    4.17   0
   7  -1   1  307.90    4.10   0
   7  -1   1  308.45    4.24   0
  -8   1  -1  159.04    5.25   0
   8   1   1  200.20    5.94   0
   8   1   1  184.48    9.68   0
   8  -1   1  159.08    6.65   0
   8  -1   1  151.27    7.69   0
   9   1   1   43.85    9.13   0
   9   1   1   30.70    5.15   0
   9  -1   1   29.68    6.90   0
   9  -1   1   29.22    6.01   0
  10   1   1   38.74    9.09   0
  10   1   1   28.75    5.55   0
  10  -1   1   37.87    7.14   0
  10  -1   1   28.69    6.71   0
  11   2  -1  138.30    7.85   0
  11   2  -1   93.80    5.68   0
  11  -2  -1  109.42    6.99   0
  11  -2  -1  110.63    9.10   0
  10   2  -1  294.15    4.31   0
  10   2  -1  293.69    4.25   0
 -10   2   1  293.68    3.82   0
  10  -2  -1  293.94    3.77   0
   9   2  -1   30.98    7.27   0
   9   2  -1   50.99    5.49   0
   9  -2  -1   17.53    5.65   0
   9  -2  -1   55.68    5.28   0
   8   2  -1 1168.27    8.04   0
  -8   2   1 1168.23    8.08   0
   8   2  -1 1168.03    8.14   0
   8   2  -1 1167.66    7.71   0
   8  -2  -1 1168.34    7.62   0
   7   2  -1   21.26    6.28   0
   7   2  -1    8.86    4.86   0
   7   2  -1   10.97    6.39   0
  -7   2   1   17.47   12.27   0
   7  -2  -1    8.20    7.19   0
   6   2  -1   57.02    6.36   0
  -6   2   1   68.65   10.86   0
  -6   2   1   44.58    5.98   0
   6   2  -1   53.25    6.92   0
   6   2  -1   43.20    3.94   0
   6  -2  -1   58.13    6.27   0
   5   2  -1   21.03    5.91   0
   5   2  -1   33.95    7.28   0
  -5   2   1   26.17   12.03   0
   5   2  -1   17.24    6.78   0
  -5   2   1   16.89    7.20   0
   5  -2  -1   27.06    6.97   0
   4   2  -1    3.39    2.47   0
  -4   2   1    2.90    1.96   0
   4  -2  -1    3.07    1.64   0
   3   2  -1    1.94    4.79   0
  -3   2   1    2.32    5.01   0
  -3  -2   1    1.63    5.41   0
   3  -2  -1    1.53    5.04   0
   2   2  -1   22.16    7.68   0
  -2   2   1   13.36    7.96   0
  -2  -2   1   13.64    8.02   0
   2  -2  -1    2.83    5.44   0
   1   2  -1  403.55    4.68   0
  -1   2   1  404.41    5.47   0
   1  -2  -1  403.86    4.55   0
  -1  -2   1  403.74    4.65   0
   0   2   1   11.66    5.09   0
   0   2  -1   17.30    7.33   0
   0  -2  -1   25.04    7.29   0
   0  -2   1   17.65    7.34   0
  -1   2  -1   38.25    9.09   0
   1   2   1   54.63    9.36   0
   1   2   1   24.20    5.04   0
   1  -2   1   21.21    7.17   0
  -1  -2  -1   39.25    7.26   0
   2   2   1 2197.34    9.59   0
  -2   2  -1 2196.97    9.88   0
   2   2   1 2197.30   10.36   0
  -2  -2  -1 2196.96   10.47   0
   2  -2   1 2196.55    9.95   0
  -3   2  -1  332.25    5.35   0
   3   2   1  331.52    4.76   0
   3   2   1  331.83    5.09   0
   3  -2   1  332.44    4.68   0
  -3  -2  -1  331.55    5.33   0
  -4   2  -1  281.77    5.55   0
   4   2   1  280.02    6.15   0
   4   2   1  280.37    6.48   0
   4  -2   1  279.23    8.36   0
  -4  -2  -1  281.28    7.17   0
   5   2   1   96.61    4.96   0
  -5   2  -1   93.83    4.98   0
   5   2   1  112.92    6.73   0
   5  -2   1   69.25    6.13   0
  -5  -2  -1  112.00    6.24   0
   6   2   1    1.82    4.37   0
  -6   2  -1    1.56    5.65   0
   6   2   1    2.92    5.56   0
   6  -2   1    6.83    5.96   0
  -7   2  -1   28.94    5.37   0
   7   2   1   32.64    4.91   0
   7   2   1   33.21    6.91   0
   7  -2   1   26.60    7.97   0
   7  -2   1   33.37    6.65   0
   8   2   1    8.67    7.64   0
  -8   2  -1    8.67    4.77   0
   8   2   1    7.34    4.44   0
   8  -2   1    2.40    5.69   0
   8  -2   1    0.49    6.41   0
   9   2   1   55.26    4.29   0
   9   2   1   61.08    8.05   0
  -9   2  -1   64.78    5.34   0
   9  -2   1   56.21    7.29   0
   9  -2   1   50.67    6.77   0
  10   2   1   -0.30    9.29   0
  10   2   1   16.50    4.33   0
  10  -2   1   20.34    7.70   0
  10  -2   1   14.07    7.08   0
 -11  -3   1  357.25    4.59   0
  11   3  -1  357.35    5.39   0
  11  -3  -1  357.26    4.62   0
  11  -3  -1  357.06    4.75   0
  10   3  -1   74.08    4.69   0
  10   3  -1   71.49    6.96   0
  10  -3  -1   66.21    6.44   0
  10  -3  -1   95.18    4.78   0
   9   3  -1   85.65    4.67   0
   9   3  -1   83.32    4.82   0
  -9   3   1   45.86    4.62   0
   9   3  -1   83.85    6.91   0
   9  -3  -1   60.23    5.11   0
   8   3  -1  908.74    8.47   0
  -8   3   1  908.66    7.68   0
   8   3  -1  909.39    8.14   0
   8   3  -1  909.37    7.76   0
   8  -3  -1  908.63    7.50   0
   7   3  -1  920.89    4.99   0
   7   3  -1  921.27    5.42   0
  -7   3   1  921.04    5.32   0
  -7   3   1  921.46    4.98   0
   7   3  -1  921.08    5.30   0
   7  -3  -1  921.05    5.41   0
   6   3  -1   23.04    6.59   0
  -6   3   1   15.54    5.84   0
   6   3  -1   20.63    5.18   0
  -6   3   1   16.16    9.32   0
   6   3  -1   14.81    5.74   0
   6  -3  -1   14.18    4.96   0
   5   3  -1   25.86    5.40   0
   5   3  -1   23.16    5.34   0
  -5   3   1   29.57    9.67   0
   5  -3  -1   22.41    5.20   0
   4   3  -1  114.42    4.06   0
  -4   3   1  142.35    7.26   0
  -4  -3   1  168.51    5.85   0
   4  -3  -1  127.46    6.09   0
  -3   3   1    0.88    5.98   0
   3   3  -1    7.62    4.44   0
   3  -3  -1   -1.74    5.54   0
  -3  -3   1    2.24    4.68   0
   2   3  -1  535.81    5.10   0
  -2   3   1  536.01    5.24   0
   2  -3  -1  536.33    5.15   0
  -2  -3   1  536.08    4.87   0
   1   3  -1   46.23    7.02   0
  -1   3   1   32.59    4.97   0
  -1  -3   1   50.90    7.00   0
   1  -3  -1   32.98    4.89   0
   0   3   1   10.98    4.83   0
   0   3  -1   11.19    6.81   0
   0  -3  -1   11.41    4.89   0
   0  -3   1   10.41    4.74   0
   1   3   1    9.18    6.43   0
  -1   3  -1    8.94    6.35   0
   1  -3   1    7.46    6.15   0
  -1  -3  -1    4.36    6.44   0
   2   3   1  670.18    5.96   0
   2   3   1  670.05    5.90   0
  -2   3  -1  669.83    5.95   0
   2  -3   1  669.53    5.56   0
  -2  -3  -1  669.95    6.33   0
   3   3   1  140.61    4.59   0
  -3   3  -1  140.72    4.51   0
   3   3   1  141.12    4.94   0
  -3  -3  -1  141.33    4.56   0
   3  -3   1  141.02    4.62   0
   4   3   1   18.24    5.07   0
   4   3   1   17.62    5.24   0
  -4   3  -1   18.41    5.42   0
  -4  -3  -1   18.07    5.26   0
   4  -3   1   18.02    5.49   0
   5   3   1    7.54    5.36   0
  -5   3  -1    8.11    4.74   0
   5   3   1    7.93    4.26   0
  -5  -3  -1    7.77    5.19   0
   5  -3   1    8.16    5.43   0
   6   3   1   47.54    6.23   0
  -6   3  -1   24.63    5.29   0
   6   3   1   30.76    4.44   0
   6  -3   1   22.70    5.54   0
  -6  -3  -1   39.68    5.40   0
   7   3   1   65.70    4.74   0
  -7   3  -1   45.82    5.49   0
   7   3   1   84.59    5.66   0
  -7   3  -1   46.30    5.23   0
   7  -3   1   48.78    5.88   0
   8   3   1    7.30    4.18   0
   8   3   1    9.52    5.68   0
  -8   3  -1   10.70    5.49   0
   8  -3   1    8.90    9.25   0
   8  -3   1   10.81    6.28   0
   9   3   1   -1.40    4.04   0
  -9   3  -1   -6.20    4.44   0
   9   3   1  -11.07    6.76   0
   9  -3   1    3.25    6.96   0
   9  -3   1    0.37    8.34   0
  10   3   1   54.27    5.25   0
  10   3   1   44.53    8.54   0
  10  -3   1   33.43    8.10   0
  10  -3   1   31.62    8.17   0
  10   4  -1    7.70    4.23   0
 -10   4   1   21.83    4.81   0
  10   4  -1   -0.93    6.19   0
  10  -4  -1   19.99    5.53   0
   9   4  -1   24.55    5.83   0
   9   4  -1   29.76    4.85   0
   9   4  -1   21.19    6.24   0
  -9   4   1   27.87    4.69   0
   9  -4  -1   13.54    4.83   0
  -8   4   1    6.45    2.28   0
   8   4  -1    6.03    2.33   0
   8   4  -1    5.90    1.88   0
  -8   4   1    6.09    1.79   0
   8   4  -1    5.89    2.03   0
   8  -4  -1    5.90    1.62   0
  -7   4   1  236.80    4.49   0
  -7   4   1  236.74    3.76   0
   7   4  -1  237.07    3.65   0
   7   4  -1  237.20    3.70   0
   7   4  -1  236.76    4.04   0
   7  -4  -1  237.43    4.11   0
   6   4  -1    2.04    4.69   0
  -6   4   1   13.93    6.91   0
   6   4  -1   -0.43    6.75   0
   6  -4  -1    4.39    4.65   0
  -5   4   1   -4.48    5.91   0
   5   4  -1    7.93    4.56   0
   5  -4  -1    4.80    4.77   0
  -5  -4   1   -1.48    5.28   0
  -4   4   1   88.41    5.99   0
   4   4  -1   78.91    3.48   0
   4  -4  -1   94.13    5.49   0
  -4  -4   1  111.34    5.11   0
  -3   4   1  262.69    4.04   0
   3   4  -1  262.73    4.29   0
  -3  -4   1  262.85    4.08   0
   3  -4  -1  263.01    3.78   0
   2   4  -1 1181.48    6.14   0
  -2   4   1 1180.85    5.72   0
  -2  -4   1 1181.00    6.22   0
   2  -4  -1 1181.44    6.49   0
  -1   4   1  422.06    4.74   0
   1   4  -1  421.78    4.81   0
  -1  -4   1  422.06    4.92   0
   1  -4  -1  422.01    4.94   0
   0   4   1 1012.04    7.59   0
   0   4  -1 1009.02    7.29   0
   0  -4  -1 1017.88    7.61   0
   0  -4   1 1015.83    7.61   0
   1   4   1  887.91    5.38   0
  -1   4  -1  887.72    4.86   0
  -1  -4  -1  887.72    5.28   0
   1  -4   1  888.05    4.68   0
  -3   4  -1 1162.06    7.39   0
   3   4   1 1162.00    7.03   0
   3   4   1 1162.13    6.83   0
  -3  -4  -1 1162.26    6.58   0
   3  -4   1 1161.61    6.93   0
   4   4   1   16.25    4.36   0
   4   4   1   15.56    4.67   0
  -4   4  -1   16.14    5.42   0
   4  -4   1   15.66    4.48   0
  -4  -4  -1   15.83    4.86   0
  -5   4  -1  514.97    4.94   0
   5   4   1  515.28    5.15   0
   5   4   1  514.92    5.09   0
  -5  -4  -1  515.36    4.94   0
   5  -4   1  514.70    5.26   0
   6   4   1  798.04    5.03   0
  -6   4  -1  797.61    4.94   0
   6   4   1  797.88    5.07   0
  -6  -4  -1  798.37    5.30   0
   6  -4   1  798.45    5.24   0
  -7   4  -1  129.04    5.45   0
   7   4   1  156.65    4.85   0
   7   4   1  164.67    6.51   0
   7  -4   1  110.48    5.85   0
   8   4   1   24.51    5.03   0
  -8   4  -1    7.52    4.57   0
   8   4   1   10.85    4.34   0
   8  -4   1   10.21    5.09   0
   9   4   1   23.10    5.55   0
   9   4   1   32.54    4.24   0
   9  -4   1   25.95    4.59   0
   9  -4   1   18.14    6.59   0
  10   4   1   14.12    5.08   0
  10   4   1   24.35    7.45   0
  10  -4   1   13.32    4.97   0
  10  -4   1    6.71    9.86   0
  10   5  -1    6.40    5.36   0
 -10   5   1   11.58    9.19   0
  10   5  -1    2.76    5.55   0
  10   5  -1   10.49    4.63   0
  10  -5  -1    8.93    5.44   0
  -9   5   1    7.43    9.17   0
   9   5  -1   25.37    4.60   0
   9   5  -1   18.24    4.64   0
   9   5  -1   29.05    6.66   0
   9  -5  -1   21.90    5.28   0
   8   5  -1   45.45    7.23   0
  -8   5   1   30.16    8.20   0
   8   5  -1   24.61    5.09   0
  -8   5   1   13.79    5.71   0
   8   5  -1   25.36    4.47   0
   8  -5  -1   34.84    5.03   0
   7   5  -1    6.44    2.48   0
  -7   5   1    5.68    1.68   0
   7   5  -1    6.43    1.90   0
   7  -5  -1    6.24    1.98   0
   6   5  -1  156.63    2.78   0
   6   5  -1  157.06    3.01   0
  -6   5   1  156.53    2.56   0
  -6  -5   1  157.08    2.79   0
   6  -5  -1  157.36    3.13   0
  -5   5   1   16.98    5.27   0
   5   5  -1   38.67    4.84   0
   5  -5  -1   26.93    4.56   0
  -5  -5   1   29.12    5.13   0
   4   5  -1   10.49    4.27   0
  -4   5   1   27.67    5.07   0
  -4  -5   1   -0.15    3.26   0
   4  -5  -1    7.81    4.61   0
   3   5  -1   49.72    3.26   0
  -3   5   1   55.51    5.07   0
   3  -5  -1   50.10    4.68   0
  -3  -5   1   47.39    3.30   0
  -2   5   1  216.71    2.74   0
   2   5  -1  217.35    3.14   0
   2  -5  -1  217.18    3.20   0
  -2  -5   1  216.80    2.90   0
  -1   5   1  544.63    3.63   0
   1   5  -1  544.76    3.84   0
   1  -5  -1  544.79    3.75   0
  -1  -5   1  545.03    3.87   0
   0   5  -1  821.30    4.69   0
   0   5   1  821.37    5.32   0
   0  -5  -1  821.28    5.26   0
   0  -5   1  820.74    5.26   0
  -1   5  -1 3965.37    5.56   0
   1   5   1 3965.32    6.47   0
   1  -5   1 3965.27    6.28   0
  -1  -5  -1 3964.88    5.93   0
  -2   5  -1   38.13    3.65   0
   2   5   1   89.68    4.46   0
  -2  -5  -1   74.35    4.59   0
   2  -5   1   65.67    4.81   0
   3   5   1 1763.30    6.41   0
   3   5   1 1762.62    5.92   0
  -3   5  -1 1763.38    6.39   0
  -3  -5  -1 1763.02    6.37   0
   3  -5   1 1763.04    5.90   0
   4   5   1  419.18    3.85   0
  -4   5  -1  419.30    3.59   0
   4   5   1  419.19    4.16   0
   4  -5   1  418.97    4.03   0
  -4  -5  -1  418.95    4.35   0
  -5   5  -1  858.98    5.38   0
   5   5   1  858.73    5.95   0
   5   5   1  859.22    6.29   0
  -5  -5  -1  858.95    5.98   0
   5  -5   1  859.11    5.89   0
  -6   5  -1    6.30    2.39   0
   6   5   1    5.52    2.16   0
   6   5   1    6.27    1.84   0
  -6  -5  -1    6.01    1.62   0
   6  -5   1    6.47    1.66   0
   7   5   1   12.45    4.57   0
   7   5   1   12.39    4.59   0
  -7   5  -1   11.53    4.52   0
   7  -5   1   12.04    5.21   0
  -7  -5  -1   12.22    5.02   0
   8   5   1    0.72    2.46   0
  -8   5  -1    0.67    2.11   0
   8   5   1    0.70    1.96   0
   8   5   1    0.75    2.20   0
   8  -5   1    0.74    2.42   0
   9   5   1    7.79    1.95   0
   9   5   1   19.25    4.66   0
   9  -5   1    7.30    6.06   0
  10   5   1   30.70    4.80   0
 -10   5  -1   29.19    5.06   0
  10   5   1   28.18    6.06   0
  10  -5   1   18.31    7.65   0
  10  -5   1   28.60    4.67   0
  10   6  -1  111.29    8.07   0
  10   6  -1   51.22    5.48   0
 -10   6   1   71.96    9.47   0
  10   6  -1   42.96    4.59   0
  10  -6  -1   61.67    5.48   0
   9   6  -1  504.58    5.52   0
  -9   6   1  504.91    5.54   0
   9   6  -1  505.24    5.98   0
   9   6  -1  505.44    6.12   0
  -9   6   1  504.62    6.29   0
   9  -6  -1  504.52    5.55   0
  -8   6   1    8.17    5.25   0
   8   6  -1   17.66    3.23   0
   8   6  -1   19.59    7.24   0
   8   6  -1    2.42    4.43   0
  -8   6   1   15.14    7.36   0
   8  -6  -1   21.84    4.37   0
  -7   6   1    7.88    6.01   0
   7   6  -1    0.57    7.27   0
   7   6  -1   -0.05    4.20   0
   7  -6  -1   -1.41    4.37   0
  -7  -6   1   -0.18    4.91   0
   6   6  -1  135.83    4.63   0
   6   6  -1  135.64    4.94   0
  -6   6   1  136.23    4.90   0
  -6  -6   1  135.95    4.77   0
   6  -6  -1  136.48    4.81   0
  -5   6   1  228.78    4.18   0
   5   6  -1  229.06    4.07   0
   5  -6  -1  228.54    3.64   0
  -5  -6   1  228.74    3.77   0
   4   6  -1   31.02    2.50   0
  -4   6   1   30.69    2.86   0
  -4  -6   1   30.68    2.66   0
   4  -6  -1   30.61    2.55   0
   3   6  -1  383.14    5.15   0
  -3   6   1  382.51    4.64   0
  -3  -6   1  382.76    5.19   0
   3  -6  -1  383.01    5.55   0
  -2   6   1   58.82    4.70   0
   2   6  -1   41.91    3.22   0
  -2  -6   1   68.14    4.53   0
   2  -6  -1   62.38    4.62   0
   1   6  -1   18.66    4.26   0
  -1   6   1    3.60    3.05   0
  -1  -6   1    2.32    4.27   0
   1  -6  -1   10.33    4.30   0
   0   6  -1    5.80    3.12   0
   0   6   1    5.70    4.40   0
   0  -6  -1    5.53    4.18   0
   0  -6   1    5.64    4.39   0
  -1   6  -1  783.74    4.81   0
   1   6   1  783.56    4.56   0
   1  -6   1  784.21    5.32   0
  -1  -6  -1  784.27    4.51   0
  -2   6  -1  686.23    5.41   0
   2   6   1  685.89    5.33   0
   2  -6   1  686.03    5.12   0
  -2  -6  -1  686.00    5.34   0
  -3   6  -1  235.62    3.71   0
   3   6   1  236.26    3.53   0
   3  -6   1  236.29    4.29   0
  -3  -6  -1  236.21    3.84   0
   4   6   1  104.68    4.57   0
  -4   6  -1  105.25    4.67   0
   4   6   1  104.82    5.35   0
   4  -6   1  104.84    5.22   0
  -4  -6  -1  104.62    5.39   0
   5   6   1   73.62    4.57   0
  -5   6  -1   57.37    5.40   0
   5   6   1  102.09    5.13   0
   5  -6   1   50.87    4.65   0
  -5  -6  -1   59.71    4.67   0
   6   6   1   19.82    5.99   0
  -6   6  -1   -4.27    6.66   0
   6   6   1    6.33    4.49   0
   6  -6   1    3.07    5.09   0
  -6  -6  -1    6.16    4.65   0
  -7   6  -1  180.71    9.04   0
   7   6   1  170.17    4.91   0
   7   6   1  225.85    4.81   0
   7  -6   1  176.69    5.42   0
  -7  -6  -1  206.64    4.90   0
  -8   6  -1    1.14    4.54   0
   8   6   1    1.38    4.35   0
   8   6   1    1.15    4.54   0
   8  -6   1    1.48    5.03   0
   9   6   1   -1.13    4.27   0
  -9   6  -1    1.12    4.59   0
   9   6   1   -5.36    4.39   0
   9   6   1  -15.24    6.83   0
   9  -6   1   -1.65    5.28   0
  -9   7   1    9.39    6.16   0
   9   7  -1    6.21    5.13   0
  -9   7   1   17.98    9.71   0
   9   7  -1   12.03    4.41   0
   9   7  -1   12.26    7.49   0
   9  -7  -1    9.19    4.57   0
   8   7  -1  129.15    5.88   0
  -8   7   1  165.90    8.08   0
   8   7  -1  149.15    4.89   0
   8  -7  -1  120.60    4.62   0
   7   7  -1   36.63    3.26   0
  -7   7   1   37.10    5.77   0
   7   7  -1   75.67    6.94   0
   7  -7  -1   68.46    4.94   0
  -7  -7   1   35.80    3.39   0
   6   7  -1   63.18    3.20   0
  -6   7   1   62.64    4.90   0
   6  -7  -1   63.06    4.43   0
  -6  -7   1   62.54    3.29   0
   5   7  -1   78.68    4.75   0
  -5   7   1   70.05    4.90   0
  -5  -7   1   82.00    4.59   0
   5  -7  -1   61.62    4.52   0
   4   7  -1    9.38    1.60   0
  -4   7   1    9.30    1.75   0
  -4  -7   1    8.81    1.90   0
   4  -7  -1    8.64    2.39   0
   3   7  -1  225.87    3.40   0
  -3   7   1  225.87    4.62   0
   3  -7  -1  226.42    4.68   0
  -3  -7   1  225.98    4.62   0
   2   7  -1   22.80    2.95   0
  -2   7   1   16.01    4.57   0
   2  -7  -1   27.28    3.17   0
  -2  -7   1   25.68    2.90   0
   1   7  -1   51.33    4.05   0
  -1   7   1   48.03    4.37   0
  -1  -7   1   40.42    4.06   0
   1  -7  -1   34.18    3.05   0
   0   7   1   15.49    2.93   0
   0   7  -1   15.87    3.12   0
   0  -7   1   26.99    4.30   0
   0  -7  -1   15.59    4.10   0
  -1   7  -1   16.61    3.20   0
   1   7   1   27.46    4.09   0
   1  -7   1   28.93    3.11   0
  -1  -7  -1   29.86    4.08   0
  -2   7  -1   48.94    4.67   0
   2   7   1   63.44    4.30   0
  -2  -7  -1   66.21    4.34   0
   2  -7   1   62.08    4.49   0
  -3   7  -1   26.07    4.16   0
   3   7   1    8.73    3.07   0
   3  -7   1   14.23    3.87   0
  -3  -7  -1    8.23    3.12   0
   4   7   1    1.48    2.20   0
  -4   7  -1    1.52    1.66   0
   4   7   1    1.41    2.32   0
  -4  -7  -1    1.54    2.38   0
   4  -7   1   11.33    4.07   0
   5   7   1   35.25    4.33   0
   5   7   1   18.77    4.83   0
  -5   7  -1   15.11    4.91   0
   5  -7   1   18.52    4.25   0
  -5  -7  -1   10.74    4.09   0
   6   7   1   68.22    4.70   0
  -6   7  -1   89.15    5.79   0
   6   7   1   70.06    4.19   0
   6  -7   1   54.12    4.26   0
  -6  -7  -1   52.12    3.34   0
   7   7   1   82.04    6.22   0
   7   7   1   54.89    4.09   0
  -7   7  -1   55.62    7.18   0
   7  -7   1   57.31    4.78   0
  -7  -7  -1   63.73    4.57   0
   8   7   1   29.79    6.81   0
  -8   7  -1   52.62   10.19   0
   8   7   1   38.94    4.05   0
   8  -7   1   37.19    5.12   0
  -8  -7  -1   45.01    4.77   0
   9   7   1   -8.19    7.22   0
  -9   7  -1    4.84    4.90   0
   9   7   1    5.19    4.10   0
   9   7   1    7.46    3.81   0
  -9   7  -1    0.36    9.64   0
   9  -7   1    7.08    5.81   0
  -9   8   1  473.44    5.30   0
   9   8  -1  472.55    4.90   0
  -9   8   1  473.38    5.08   0
   9   8  -1  472.87    5.16   0
   9   8  -1  472.92    4.87   0
   9  -8  -1  472.99    4.79   0
  -8   8   1   12.75    6.07   0
   8   8  -1   21.21    4.27   0
   8   8  -1   -7.36    5.97   0
   8  -8  -1   14.85    4.74   0
  -8  -8   1   -5.05    3.41   0
   7   8  -1    0.75    4.45   0
   7   8  -1   30.88    7.66   0
  -7   8   1   -2.58    5.20   0
   7  -8  -1    6.23    4.27   0
  -7  -8   1   -1.18    4.56   0
  -6   8   1   22.16    4.45   0
   6   8  -1   27.38    3.93   0
   6  -8  -1   24.47    3.93   0
  -6  -8   1   22.61    4.30   0
  -5   8   1  249.56    4.93   0
   5   8  -1  261.08    4.76   0
  -5  -8   1  227.93    4.43   0
   5  -8  -1  232.77    4.58   0
  -4   8   1  308.58    4.59   0
   4   8  -1  308.68    5.12   0
  -4  -8   1  308.83    4.74   0
   4  -8  -1  309.49    4.74   0
  -3   8   1   25.64    3.21   0
   3   8  -1   49.45    4.84   0
   3  -8  -1   23.38    3.16   0
  -3  -8   1   46.42    4.67   0
   2   8  -1   18.93    4.54   0
  -2   8   1   22.23    4.45   0
  -2  -8   1    6.90    4.44   0
   2  -8  -1   14.58    4.03   0
   1   8  -1   55.92    3.08   0
  -1   8   1   57.36    3.16   0
   1  -8  -1   63.79    4.15   0
  -1  -8   1   81.43    4.31   0
   0   8   1   15.80    4.21   0
   0   8  -1   11.86    4.31   0
   0  -8   1    3.13    3.08   0
   0  -8  -1   -0.40    2.94   0
   1   8   1  137.51    3.42   0
  -1   8  -1  138.31    3.32   0
   1  -8   1  137.51    3.26   0
  -1  -8  -1  138.13    3.43   0
   2   8   1 1432.41    5.95   0
  -2   8  -1 1432.24    6.34   0
  -2  -8  -1 1432.07    6.28   0
   2  -8   1 1432.14    5.68   0
   3   8   1   34.82    4.57   0
  -3   8  -1    3.58    3.08   0
   3  -8   1   20.47    3.89   0
  -3  -8  -1   20.63    4.53   0
   4   8   1   10.71    6.67   0
   4   8   1   20.11    4.30   0
  -4   8  -1   21.18    4.36   0
   4  -8   1   19.50    4.14   0
  -4  -8  -1   33.09    4.27   0
   5   8   1  499.65    4.93   0
  -5   8  -1  499.68    5.42   0
   5   8   1  500.48    4.92   0
  -5  -8  -1  499.58    4.90   0
   5  -8   1  499.70    4.90   0
   6   8   1   82.74    2.78   0
  -6   8  -1   82.57    2.58   0
   6   8   1   82.91    2.99   0
   6  -8   1   82.79    3.36   0
  -6  -8  -1   83.08    3.07   0
   7   8   1   31.85    3.99   0
   7   8   1   32.80    4.84   0
  -7   8  -1   46.11    6.59   0
   7  -8   1   33.85    4.75   0
  -7  -8  -1   19.26    4.38   0
  -8   8  -1   10.74    8.01   0
   8   8   1   20.13    5.22   0
   8   8   1   40.64    4.50   0
  -8  -8  -1   47.59    4.36   0
   8  -8   1   30.14    5.01   0
  -8   9   1    7.75    5.55   0
   8   9  -1   -0.29    4.47   0
   8   9  -1   17.22    8.20   0
  -8  -9   1    3.46    4.20   0
   8  -9  -1    9.68    4.05   0
   7   9  -1   80.59    4.76   0
  -7   9   1   81.14    4.87   0
   7   9  -1   80.57    3.43   0
   7  -9  -1   81.40    4.68   0
  -7  -9   1   81.43    4.73   0
  -6   9   1    3.39    4.21   0
   6   9  -1   -4.90    3.91   0
   6  -9  -1    3.92    4.16   0
  -6  -9   1    4.94    3.03   0
   5   9  -1    6.18    3.05   0
  -5   9   1   11.16    4.36   0
  -5  -9   1    2.38    3.91   0
   5  -9  -1    7.39    4.11   0
   4   9  -1   38.03    3.03   0
  -4   9   1   38.28    3.38   0
   4  -9  -1   38.18    3.30   0
  -4  -9   1   38.14    3.15   0
   3   9  -1  267.67    3.52   0
  -3   9   1  267.82    4.43   0
  -3  -9   1  268.29    4.42   0
   3  -9  -1  267.64    3.65   0
  -2   9   1  694.81    5.30   0
   2   9  -1  695.26    5.48   0
   2  -9  -1  695.21    4.79   0
  -2  -9   1  695.20    5.03   0
  -1   9   1  514.87    3.94   0
   1   9  -1  515.10    3.82   0
   1  -9  -1  515.25    3.79   0
  -1  -9   1  514.83    4.14   0
   0   9   1   11.91    4.30   0
   0   9  -1    5.50    3.18   0
   0  -9  -1    1.15    4.47   0
   0  -9   1   29.80    4.39   0
   1   9   1 2630.41    5.28   0
  -1   9  -1 2630.02    4.53   0
  -1  -9  -1 2629.89    4.78   0
   1  -9   1 2630.13    5.29   0
  -2   9  -1   84.85    4.52   0
   2   9   1   89.91    4.17   0
  -2  -9  -1   74.87    4.09   0
   2  -9   1   88.27    4.38   0
  -3   9  -1  828.68    4.74   0
   3   9   1  829.10    5.00   0
   3  -9   1  828.90    4.58   0
  -3  -9  -1  828.75    5.29   0
   4   9   1   40.72    3.90   0
  -4   9  -1   42.12    4.08   0
   4   9   1   16.15    5.67   0
   4  -9   1   47.42    4.10   0
  -4  -9  -1   32.16    2.96   0
   5   9   1  872.12    6.41   0
  -5   9  -1  871.59    5.96   0
   5   9   1  872.36    5.70   0
  -5  -9  -1  872.32    5.57   0
   5  -9   1  871.58    5.74   0
   6   9   1  187.39    6.93   0
   6   9   1  220.87    4.71   0
  -6   9  -1  182.26    5.25   0
   6  -9   1  162.75    4.61   0
  -6  -9  -1  193.37    4.68   0
  -7   9  -1   38.86    2.52   0
   7   9   1   38.71    3.06   0
   7   9   1   39.05    3.49   0
  -7  -9  -1   39.43    3.49   0
   7  -9   1   38.73    2.58   0
   7  10  -1   97.56    4.62   0
   7  10  -1   86.37    8.29   0
  -7  10   1   58.39    4.78   0
   7 -10  -1   84.96    4.59   0
  -7 -10   1  101.36    4.18   0
  -6  10   1    6.79    4.38   0
   6  10  -1    4.31    4.27   0
   6 -10  -1   10.05    4.14   0
  -6 -10   1    5.82    4.29   0
  -5  10   1   14.15    4.30   0
   5  10  -1   14.90    3.92   0
  -5 -10   1    3.56    3.83   0
   5 -10  -1    0.47    4.08   0
  -4  10   1    0.39    1.85   0
   4  10  -1    0.37    2.18   0
  -4 -10   1    0.42    1.85   0
   4 -10  -1    0.37    2.09   0
   3  10  -1   17.55    3.89   0
  -3  10   1   -5.50    4.12   0
   3 -10  -1    0.16    3.71   0
  -3 -10   1   -1.56    3.90   0
   2  10  -1  368.73    4.53   0
  -2  10   1  294.29    4.26   0
  -2 -10   1  252.85    3.24   0
   2 -10  -1  291.58    4.37   0
   1  10  -1   97.50    4.27   0
  -1  10   1   92.90    4.28   0
  -1 -10   1   70.42    2.99   0
   1 -10  -1   72.52    3.86   0
   0  10  -1    0.65    4.02   0
   0  10   1    0.59    4.01   0
   0 -10   1    0.58    3.67   0
   0 -10  -1    0.63    3.72   0
   1  10   1   27.90    3.82   0
  -1  10  -1    4.98    2.84   0
  -1 -10  -1    9.40    2.78   0
   1 -10   1    9.44    3.76   0
  -2  10  -1  991.29    5.24   0
   2  10   1 1185.09    5.59   0
   2 -10   1 1086.75    5.56   0
  -2 -10  -1 1098.45    5.42   0
  -3  10  -1   74.61    4.29   0
   3  10   1   93.56    4.11   0
   3 -10   1   95.48    3.91   0
  -3 -10  -1  111.41    4.10   0
   4  10   1   15.52    6.26   0
  -4  10  -1   52.66    3.89   0
   4  10   1   58.42    4.23   0
  -4 -10  -1   62.89    4.11   0
   4 -10   1   21.80    3.79   0
  -5  10  -1  154.42    4.60   0
   5  10   1  117.54    4.75   0
   5  10   1  159.26    4.56   0
   5 -10   1  157.59    4.40   0
  -5 -10  -1  119.72    3.25   0
   6  10   1  251.38    4.36   0
  -6  10  -1  265.12    5.65   0
   6  10   1  177.91    7.03   0
   6 -10   1  222.91    4.85   0
  -6 -10  -1  222.32    4.76   0
   6  11  -1  153.63    6.46   0
  -6  11   1  196.48    4.70   0
   6  11  -1  243.81    5.00   0
   6 -11  -1  202.93    4.76   0
  -6 -11   1  206.38    4.45   0
   5  11  -1   19.39    4.13   0
  -5  11   1   15.05    4.36   0
   5 -11  -1   17.23    2.96   0
  -5 -11   1   20.07    2.93   0
   4  11  -1    7.53    4.15   0
  -4  11   1    7.56    4.29   0
  -4 -11   1    8.13    3.89   0
   4 -11  -1    8.25    2.93   0
  -3  11   1   10.61    3.01   0
   3  11  -1   29.90    3.82   0
  -3 -11   1   23.73    4.06   0
   3 -11  -1   25.45    4.01   0
   2  11  -1  192.86    4.35   0
  -2  11   1  163.35    4.10   0
   2 -11  -1  165.16    3.98   0
  -2 -11   1  163.93    3.94   0
   1  11  -1    8.91    3.96   0
  -1  11   1    2.06    2.84   0
   1 -11  -1   13.05    3.91   0
  -1 -11   1   20.93    4.02   0
   0  11   1   36.02    4.01   0
   0  11  -1   18.94    3.72   0
   0 -11   1    6.28    2.86   0
   0 -11  -1    2.68    2.91   0
  -1  11  -1   -2.40    3.12   0
   1  11   1    3.86    3.74   0
   1 -11   1    4.13    3.85   0
  -1 -11  -1    8.05    2.86   0
   2  11   1   43.57    4.10   0
  -2  11  -1   42.01    3.91   0
   2 -11   1   24.69    3.00   0
  -2 -11  -1   20.66    4.00   0
  -3  11  -1   11.40    2.06   0
   3  11   1   10.57    2.10   0
  -3 -11  -1   11.09    1.72   0
   3 -11   1   10.56    2.06   0
   4  11   1   13.96    3.77   0
   4  11   1    6.30    4.41   0
  -4  11  -1    7.18    4.13   0
  -4 -11  -1    6.21    3.84   0
   4 -11   1    3.99    3.84   0
   5  11   1   13.27    4.55   0
   5  11   1    6.15    3.82   0
  -5  11  -1    2.34    4.25   0
   5 -11   1    9.12    4.11   0
  -5 -11  -1    4.67    3.77   0
   4  12  -1   77.82    4.17   0
  -4  12   1   56.95    3.12   0
  -4 -12   1   65.36    3.85   0
   4 -12  -1   51.39    3.94   0
   3  12  -1    2.41    3.75   0
  -3  12   1    2.48    2.99   0
  -3 -12   1    1.92    3.77   0
   3 -12  -1    2.39    3.95   0
   2  12  -1   12.34    2.06   0
  -2  12   1   12.45    2.01   0
  -2 -12   1   12.36    1.77   0
   2 -12  -1   12.27    1.98   0
   1  12  -1   53.22    2.81   0
  -1  12   1   77.67    4.17   0
   1 -12  -1   46.45    2.97   0
  -1 -12   1   43.01    2.87   0
   0  12  -1   32.47    3.94   0
   0  12   1   57.01    3.80   0
   0 -12  -1   47.09    3.94   0
   0 -12   1   59.35    3.73   0
   1  12   1   50.91    3.79   0
  -1  12  -1   50.36    3.80   0
   1 -12   1   53.48    3.79   0
  -1 -12  -1   46.62    3.51   0
  -2  12  -1    6.96    4.05   0
   2  12   1    0.23    2.81   0
   2 -12   1   -3.04    4.07   0
  -2 -12  -1    8.36    2.62   0
   3  12   1    8.77    4.31   0
  -3  12  -1   23.98    4.28   0
   3  12   1    0.32    2.80   0
   3 -12   1   -1.42    3.96   0
  -3 -12  -1   10.64    3.65   0
 -10   0   2    5.80    2.40   0
  10   0  -2    6.49    1.57   0
   8   0  -2   59.92    2.52   0
   8   0  -2   74.09    3.08   0
   6   0  -2  387.02    4.06   0
   6   0  -2  329.66    3.72   0
  -6   0   2  279.26    3.79   0
   4   0  -2  293.81    4.34   0
   4   0  -2  149.78    4.14   0
  -4   0   2  228.71    4.16   0
   2   0  -2    2.37    2.30   0
  -2   0   2    2.30    1.93   0
   0   0   2  945.41   14.10   0
   2   0   2  888.56    7.74   0
  -2   0  -2  888.72    8.25   0
  -6   0  -2  191.72    4.08   0
   6   0   2  367.69    5.06   0
   6   0   2  288.52    7.05   0
  -8   0  -2 1007.75    6.45   0
   8   0   2 1006.56    6.28   0
   8   0   2 1004.03    5.79   0
  10   0   2   -0.73    7.33   0
  10   0   2    8.51    8.03   0
  11   1  -2  215.80    7.05   0
  11   1  -2  249.45    7.78   0
  11  -1  -2  192.91    7.39   0
  11  -1  -2  247.30    6.29   0
  10   1  -2   81.52    6.33   0
  10   1  -2   70.71    6.90   0
  10  -1  -2   62.84    6.56   0
  10  -1  -2   89.20    9.61   0
   9   1  -2   14.56    6.49   0
   9   1  -2   19.99    7.09   0
   9  -1  -2   17.06    9.05   0
   9  -1  -2   17.88    6.84   0
   8   1  -2  414.42    9.14   0
   8   1  -2  477.29    8.35   0
   8  -1  -2  405.98    8.89   0
   7   1  -2  292.89    8.15   0
   7   1  -2  247.71    8.89   0
   7   1  -2  188.04    7.32   0
  -7   1   2  195.88    5.87   0
   7  -1  -2  242.67    8.40   0
  -6   1   2 1067.37    6.55   0
   6   1  -2 1067.93    6.88   0
   6   1  -2 1067.59    7.05   0
   6   1  -2 1067.68    6.61   0
   6  -1  -2 1067.81    6.58   0
   5   1  -2    7.86    2.25   0
   5   1  -2    7.66    2.06   0
  -5   1   2    8.30    1.92   0
   5   1  -2    8.23    1.59   0
   5  -1  -2    7.75    2.36   0
   4   1  -2  125.81    4.91   0
  -4   1   2   95.43    4.55   0
   4   1  -2   80.45    5.21   0
   4  -1  -2   91.29    3.49   0
  -3   1   2   10.05    3.33   0
   3   1  -2   26.03    2.57   0
   3  -1  -2    6.75    3.18   0
   2   1  -2   57.90    3.15   0
  -2   1   2   58.19    3.15   0
  -2  -1   2   57.89    3.10   0
   2  -1  -2   57.74    3.11   0
  -1   1   2    7.92    1.99   0
   1   1  -2   12.46    1.57   0
  -1  -1   2   14.72    1.67   0
   1  -1  -2    6.29    6.49   0
   0   1   2  134.63    8.17   0
   0   1  -2  126.72    7.97   0
   0  -1  -2  129.36    8.35   0
   0  -1  -2  103.01    7.04   0
   1   1   2  118.90    7.74   0
  -1   1  -2   80.53    5.54   0
  -1   1  -2  161.20    5.55   0
  -1  -1  -2  162.20    4.30   0
   2   1   2  125.50    3.12   0
  -2  -1  -2  125.62    3.44   0
   3   1   2 4077.50    6.87   0
  -3  -1  -2 4078.13    6.73   0
   4   1   2  349.41    4.16   0
  -4  -1  -2  349.39    4.19   0
   4  -1   2  349.14    4.44   0
   4  -1   2  349.46    4.11   0
   5   1   2  193.88    4.61   0
  -5   1  -2  192.18    5.77   0
   5   1   2  194.67    6.73   0
  -5  -1  -2  195.82    4.14   0
   5  -1   2  192.83    7.56   0
   5  -1   2  193.11    8.96   0
  -6   1  -2    5.99    1.58   0
   6   1   2    5.85    2.09   0
   6   1   2    4.94    1.59   0
   6  -1   2    6.01    2.08   0
   6  -1   2    5.61    1.90   0
  -6  -1  -2    6.03    2.03   0
   7   1   2  825.22    5.42   0
  -7   1  -2  825.31    4.53   0
   7   1   2  824.67    4.70   0
   7  -1   2  825.45    4.58   0
   7  -1   2  825.45    4.77   0
  -7  -1  -2  825.02    4.88   0
   8   1   2   41.19    4.88   0
   8   1   2   27.22    4.93   0
  -8   1  -2   28.01    4.47   0
   8  -1   2   27.14    4.67   0
   8  -1   2   25.58    5.01   0
   9   1   2    6.24    2.47   0
   9   1   2    6.23    2.49   0
  -9   1  -2    5.77    1.82   0
   9  -1   2    6.17    1.61   0
   9  -1   2    5.89    2.15   0
  10   1   2   10.90    8.82   0
  10   1   2    2.64    5.60   0
  11   2  -2   37.47    5.90   0
  11   2  -2   38.33    5.71   0
  11  -2  -2   24.18    5.26   0
  11  -2  -2   34.33    5.04   0
  10   2  -2  203.28    6.06   0
  10   2  -2  201.23    7.23   0
  10  -2  -2  279.77    6.92   0
  10  -2  -2  230.30    7.61   0
  -9   2   2  269.75    6.52   0
   9   2  -2  326.45    8.26   0
   9   2  -2  294.79    7.60   0
   9   2  -2  318.13    6.57   0
   9  -2  -2  256.80    7.13   0
   8   2  -2  174.33    6.04   0
  -8   2   2  128.32    6.59   0
   8   2  -2  147.27    6.88   0
   8   2  -2  179.33    7.81   0
   8  -2  -2  140.49    7.40   0
   7   2  -2 1450.08    5.50   0
   7   2  -2 1449.94    5.58   0
   7   2  -2 1449.75    6.22   0
  -7   2   2 1450.29    5.58   0
   7  -2  -2 1450.49    5.80   0
   6   2  -2 1214.87    6.48   0
   6   2  -2 1214.82    5.54   0
   6   2  -2 1215.22    6.49   0
  -6   2   2 1215.03    5.93   0
   6  -2  -2 1214.92    6.17   0
  -5   2   2   50.53    4.45   0
   5   2  -2   55.48    6.35   0
   5   2  -2   38.20    4.38   0
   5  -2  -2   20.74    7.03   0
  -4   2   2  688.44    6.19   0
   4   2  -2  687.92    5.61   0
   4   2  -2  688.22    5.58   0
   4  -2  -2  688.13    5.94   0
   3   2  -2  530.88    4.96   0
  -3   2   2  531.39    4.00   0
   3   2  -2  530.97    4.29   0
   3  -2  -2  531.49    5.45   0
  -2   2   2  550.01    5.05   0
  -2   2   2  550.19    4.60   0
   2   2  -2  550.30    4.56   0
  -2  -2   2  550.07    5.15   0
   2  -2  -2  550.22    4.66   0
   1   2  -2   59.18    6.03   0
  -1   2   2   62.47    9.14   0
  -1   2   2   91.14    7.79   0
  -1  -2   2   94.33    8.60   0
   1  -2  -2   91.54    7.88   0
   0   2  -2  229.50    8.36   0
   0   2   2  209.62    6.81   0
   0   2   2  277.04    7.80   0
   0  -2  -2  289.69    9.95   0
   0  -2  -2  258.93    7.94   0
   0  -2   2  257.88    8.72   0
  -1   2  -2    5.64    8.04   0
   1   2   2    4.63    8.62   0
   1   2   2    1.47    4.67   0
  -1  -2  -2    6.53    8.70   0
  -1  -2  -2    6.71    6.84   0
   1  -2   2    2.99    6.90   0
  -2   2  -2  389.56    4.62   0
   2   2   2  390.31    4.96   0
   2   2   2  390.37    5.27   0
  -2  -2  -2  389.80    4.77   0
  -2  -2  -2  389.60    5.47   0
   2  -2   2  389.95    4.61   0
   3   2   2   59.59    4.99   0
   3   2   2   59.67    6.40   0
  -3   2  -2   60.09    4.52   0
  -3  -2  -2   60.11    4.71   0
  -3  -2  -2   60.44    4.65   0
   3  -2   2  122.01    5.42   0
  -4   2  -2   16.26    5.25   0
   4   2   2   16.18    4.99   0
   4  -2   2   15.67    5.33   0
  -4  -2  -2   16.15    4.70   0
   5   2   2    4.29    4.28   0
   5  -2   2    5.59    8.00   0
  -5  -2  -2   11.88    3.83   0
   5  -2   2    5.87    9.64   0
  -6   2  -2  182.05    3.40   0
   6   2   2  181.88    3.34   0
   6   2   2  182.04    2.67   0
   6  -2   2  181.94    2.56   0
   6  -2   2  182.47    3.20   0
   7   2   2   15.36    5.65   0
   7   2   2   12.89    6.82   0
  -7   2  -2    7.63    5.05   0
   7  -2   2   11.26    8.97   0
   7  -2   2    8.07    9.70   0
   8   2   2   42.35    7.67   0
   8   2   2   38.86    5.02   0
  -8   2  -2   29.57    5.23   0
  -9   2  -2   29.48    5.17   0
   9   2   2   31.56    4.83   0
   9   2   2   37.21    5.14   0
  10   2   2   28.54    9.05   0
  10   2   2   12.75    4.99   0
  11   3  -2    5.35    6.96   0
  11   3  -2   -1.63    4.92   0
  11  -3  -2   10.03    5.13   0
  11  -3  -2    8.32    5.63   0
 -10   3   2   10.05    4.72   0
  10   3  -2   31.08    4.66   0
  10   3  -2   26.38    5.32   0
  10  -3  -2   11.32    4.97   0
   9   3  -2  247.69    5.08   0
  -9   3   2  216.80    9.70   0
   9   3  -2  269.70    7.57   0
   9   3  -2  260.33    6.07   0
   9  -3  -2  217.57    6.17   0
   8   3  -2  932.56    6.83   0
   8   3  -2  932.67    7.14   0
  -8   3   2  933.49    6.50   0
   8   3  -2  932.75    7.15   0
   8  -3  -2  932.85    7.06   0
  -7   3   2  111.01    6.26   0
   7   3  -2  110.87    6.25   0
   7   3  -2  111.27    6.36   0
   7   3  -2  111.21    5.59   0
   7  -3  -2  111.45    5.94   0
   6   3  -2   62.64    6.07   0
   6   3  -2   54.93    5.65   0
  -6   3   2   37.68    8.90   0
   6  -3  -2   57.12    5.62   0
  -5   3   2    4.84    2.27   0
  -5   3   2    4.68    1.67   0
   5   3  -2    5.21    1.61   0
   5   3  -2    5.38    2.49   0
   5  -3  -2    5.47    2.35   0
  -4   3   2  687.77    5.08   0
   4   3  -2  687.80    5.06   0
   4  -3  -2  687.94    5.00   0
  -4  -3   2  688.27    5.35   0
   3   3  -2    2.90    4.75   0
  -3   3   2    5.21    6.53   0
   3  -3  -2    8.53    4.51   0
  -3  -3   2   17.70    4.85   0
  -2   3   2    0.86    6.68   0
   2   3  -2    3.44    5.20   0
   2  -3  -2   -1.94    6.94   0
  -2  -3   2   -6.98    7.48   0
   1   3  -2 3905.79    8.87   0
  -1   3   2 3906.23    9.32   0
  -1  -3   2 3906.04    8.70   0
   1  -3  -2 3799.83    9.01   0
   0   3  -2  129.77    3.75   0
   0   3   2  130.13    3.75   0
   0   3   2  129.50    4.35   0
   0  -3  -2  130.40    3.85   0
   0  -3   2  130.05    3.79   0
   1   3   2  369.56    5.10   0
  -1   3  -2  370.10    5.47   0
   1   3   2  369.75    4.83   0
  -1  -3  -2  370.36    4.89   0
   1  -3   2  369.77    5.48   0
   2   3   2  256.19    3.71   0
  -2   3  -2  255.60    4.17   0
   2   3   2  256.15    3.54   0
  -2  -3  -2  256.08    4.08   0
   2  -3   2  255.80    4.37   0
   3   3   2    7.09    1.73   0
   3   3   2    6.90    2.28   0
  -3   3  -2    6.78    2.06   0
   3  -3   2    7.16    2.29   0
  -3  -3  -2    6.78    2.37   0
   4   3   2  119.91    6.67   0
  -4   3  -2  120.25    4.67   0
   4   3   2  119.94    5.29   0
   4  -3   2  120.18    7.07   0
  -4  -3  -2  120.17    5.52   0
  -5   3  -2  120.57    4.69   0
   5   3   2  110.48    4.52   0
   5   3   2  113.13    4.60   0
   5  -3   2   70.78    6.20   0
  -5  -3  -2  119.23    4.17   0
   6   3   2  196.96    3.95   0
   6  -3   2  197.37    4.37   0
  -6  -3  -2  196.67    3.71   0
   7   3   2   55.22    5.74   0
   7   3   2   51.43    4.50   0
  -7   3  -2   42.42    5.13   0
   7  -3   2   43.36    5.35   0
   7  -3   2   34.73    5.03   0
  -8   3  -2    6.34    4.84   0
   8   3   2   17.91    4.69   0
   8   3   2   16.34    5.85   0
   9   3   2    6.05    4.11   0
   9   3   2   11.97    8.50   0
  -9   3  -2    4.90    4.53   0
  10   3   2    1.77    1.81   0
  10   3   2    2.30    1.72   0
 -10   3  -2    2.07    1.72   0
  11   4  -2   84.95    6.45   0
  11   4  -2  106.15    6.08   0
  11  -4  -2   94.81    6.35   0
  10   4  -2    4.19    4.83   0
 -10   4   2    4.00    5.25   0
  10   4  -2    3.91    4.84   0
  10   4  -2    3.90    5.14   0
  10  -4  -2    3.96    5.39   0
   9   4  -2    6.44    5.19   0
   9   4  -2   44.89    6.42   0
   9   4  -2   19.51    5.53   0
  -9   4   2   15.19    4.63   0
   9  -4  -2   20.17    5.06   0
   8   4  -2  382.48    4.95   0
  -8   4   2  382.28    4.70   0
   8   4  -2  382.20    4.72   0
   8   4  -2  381.50    4.77   0
   8  -4  -2  381.60    5.34   0
   7   4  -2  248.65    3.67   0
   7   4  -2  248.75    4.25   0
  -7   4   2  248.59    4.27   0
   7   4  -2  249.10    3.97   0
   7  -4  -2  249.30    3.89   0
  -6   4   2  265.45    3.93   0
   6   4  -2  265.01    3.65   0
   6   4  -2  265.05    3.74   0
  -6   4   2  265.31    3.58   0
   6  -4  -2  264.66    3.79   0
   5   4  -2   66.10    3.74   0
  -5   4   2   72.60    6.09   0
  -5  -4   2   89.39    5.54   0
   5  -4  -2   54.92    4.73   0
  -4   4   2   19.56    4.05   0
   4   4  -2   40.75    5.05   0
  -4  -4   2   41.51    5.22   0
   4  -4  -2   16.82    3.79   0
   3   4  -2   84.76    5.37   0
  -3   4   2   38.34    3.89   0
   3  -4  -2   68.07    5.33   0
  -3  -4   2   75.97    5.55   0
  -2   4   2   86.38    5.73   0
   2   4  -2   81.50    5.74   0
  -2  -4   2   71.96    4.15   0
   2  -4  -2   81.03    5.83   0
  -1   4   2   80.10    6.04   0
   1   4  -2   40.32    4.44   0
  -1  -4   2   70.59    6.13   0
   1  -4  -2   73.49    5.96   0
   0   4  -2  204.84    4.24   0
   0   4   2  205.12    4.45   0
   0  -4   2  205.01    3.51   0
   0  -4  -2  204.75    4.34   0
   1   4   2 1041.32    6.96   0
   1   4   2 1040.69    7.03   0
  -1   4  -2 1041.44    6.78   0
   1  -4   2 1040.96    6.97   0
  -1  -4  -2 1040.54    7.12   0
   2   4   2  187.16    3.59   0
  -2   4  -2  187.02    4.49   0
   2   4   2  187.20    4.04   0
   2  -4   2  187.21    4.38   0
  -2  -4  -2  186.89    3.95   0
   3   4   2  191.02    4.00   0
  -3   4  -2  191.40    3.77   0
   3   4   2  190.71    4.17   0
   3  -4   2  191.36    4.14   0
  -3  -4  -2  190.58    3.74   0
  -4   4  -2 1675.88    7.15   0
   4   4   2 1675.98    6.59   0
   4   4   2 1676.46    6.97   0
   4  -4   2 1676.05    6.94   0
  -4  -4  -2 1675.72    7.05   0
  -5   4  -2  862.13    6.01   0
   5   4   2  861.64    5.86   0
   5   4   2  861.60    5.72   0
   5  -4   2  861.82    5.76   0
  -5  -4  -2  862.23    5.61   0
   6   4   2  662.24    6.48   0
   6   4   2  661.95    6.30   0
  -6   4  -2  661.71    5.93   0
   6  -4   2  662.01    5.62   0
  -6  -4  -2  661.59    6.40   0
   7   4   2  905.88    7.22   0
   7  -4   2  906.05    6.53   0
  -7  -4  -2  906.42    7.28   0
   8   4   2   29.46    4.23   0
  -8   4  -2   20.77    4.76   0
   8   4   2   30.82    5.13   0
   9   4   2   10.84    6.08   0
   9   4   2    4.94    4.23   0
  -9   4  -2    7.19    4.60   0
  10   4   2   23.77    7.39   0
  10   4   2   38.27    4.48   0
 -10   4  -2   27.06    5.34   0
  10   5  -2   13.05    5.10   0
  10   5  -2   34.97    5.91   0
 -10   5   2   23.95    7.42   0
  10   5  -2   20.30    7.22   0
  10  -5  -2   18.72    4.88   0
   9   5  -2    5.29    4.52   0
  -9   5   2   17.32    7.67   0
   9   5  -2   25.07    5.53   0
   9   5  -2   36.49    6.84   0
   9  -5  -2   10.32    4.90   0
   8   5  -2   25.08    5.10   0
   8   5  -2   14.54    7.29   0
  -8   5   2    8.47    9.29   0
   8   5  -2   15.93    5.36   0
   8  -5  -2   17.15    5.38   0
   7   5  -2    8.65    1.68   0
  -7   5   2    9.47    2.00   0
   7   5  -2    9.24    2.16   0
  -7   5   2    8.79    1.91   0
   7   5  -2    8.96    2.18   0
   7  -5  -2    9.33    1.76   0
  -6   5   2  181.69    5.98   0
   6   5  -2  190.61    3.92   0
   6  -5  -2  204.41    4.85   0
  -6  -5   2  232.03    5.72   0
  -5   5   2    3.56    3.80   0
   5   5  -2    3.42    4.57   0
  -5  -5   2    0.96    5.00   0
   5  -5  -2    2.82    4.59   0
  -4   5   2    5.80    4.87   0
   4   5  -2    6.43    4.51   0
  -4  -5   2    5.58    4.83   0
   4  -5  -2    5.98    4.93   0
  -3   5   2   44.25    3.35   0
   3   5  -2   76.99    4.49   0
   3  -5  -2   75.43    4.59   0
  -3  -5   2   86.54    4.74   0
  -2   5   2   10.99    4.80   0
   2   5  -2   21.01    4.81   0
   2  -5  -2   13.13    4.58   0
  -2  -5   2    5.28    4.44   0
  -1   5   2  480.09    5.05   0
   1   5  -2  480.36    5.47   0
   1  -5  -2  480.09    4.66   0
  -1  -5   2  480.19    4.93   0
   0   5   2  781.54    5.70   0
   0   5  -2  781.79    6.04   0
   0  -5   2  781.75    6.02   0
   0  -5  -2  781.89    6.27   0
  -1   5  -2  410.75    5.49   0
   1   5   2  410.71    5.19   0
   1  -5   2  411.25    4.50   0
  -1  -5  -2  410.55    5.07   0
   2   5   2  688.32    4.08   0
  -2   5  -2  689.52    3.78   0
   2   5   2  688.25    4.49   0
   2  -5   2  689.81    4.03   0
  -2  -5  -2  688.14    4.10   0
   3   5   2 1251.24    7.42   0
  -3   5  -2 1251.22    6.67   0
   3   5   2 1250.98    7.45   0
  -3  -5  -2 1251.31    7.49   0
   3  -5   2 1251.22    7.35   0
   4   5   2  583.98    6.43   0
   4   5   2  583.56    6.34   0
  -4   5  -2  584.36    5.86   0
  -4  -5  -2  583.58    5.68   0
   4  -5   2  583.69    6.12   0
   5   5   2  391.80    4.59   0
   5   5   2  391.93    5.09   0
  -5   5  -2  392.19    5.14   0
  -5  -5  -2  392.16    4.93   0
   5  -5   2  392.26    4.95   0
   6   5   2 1049.60    7.37   0
   6   5   2 1050.06    7.24   0
  -6   5  -2 1049.89    7.05   0
  -6  -5  -2 1049.89    6.74   0
   6  -5   2 1049.75    6.58   0
  -7   5  -2  355.30    6.75   0
   7   5   2  429.02    6.98   0
   7   5   2  383.74    5.16   0
   7  -5   2  265.65    6.96   0
  -7  -5  -2  308.13    5.30   0
   8   5   2   18.00    4.39   0
   8  -5   2   12.02    8.65   0
  -9   5  -2   91.75    5.32   0
   9   5   2   94.88    5.85   0
   9   5   2   83.59    4.67   0
  10   6  -2  472.22    7.79   0
  10   6  -2  496.82    6.34   0
  10   6  -2  485.02    7.52   0
 -10   6   2  491.97   10.75   0
  10  -6  -2  550.96    7.19   0
   9   6  -2   70.72    8.00   0
   9   6  -2   72.82    4.98   0
   9   6  -2   51.55    5.34   0
  -9   6   2   84.56    8.89   0
   9  -6  -2   47.50    4.77   0
   8   6  -2    2.22    3.35   0
  -8   6   2    6.03    7.04   0
   8   6  -2    1.32    4.44   0
   8   6  -2   11.06    7.80   0
  -8   6   2   -1.22    7.55   0
   8  -6  -2   -5.10    4.73   0
   7   6  -2  127.35    4.64   0
  -7   6   2   93.03    5.99   0
   7  -6  -2   95.03    4.68   0
  -6   6   2 1270.64    5.73   0
   6   6  -2  972.03    5.41   0
  -6  -6   2 1205.65    6.69   0
   6  -6  -2 1199.26    6.74   0
   5   6  -2   31.85    4.73   0
  -5   6   2   18.97    4.56   0
  -5  -6   2   15.67    4.85   0
   5  -6  -2   15.37    4.41   0
   4   6  -2   22.05    1.90   0
  -4   6   2   21.95    1.96   0
   4  -6  -2   21.55    2.37   0
  -4  -6   2   22.43    2.45   0
  -3   6   2   17.83    1.74   0
   3   6  -2   17.81    1.53   0
  -3  -6   2   18.29    1.55   0
   3  -6  -2   18.44    1.62   0
   2   6  -2   85.67    3.31   0
  -2   6   2   86.35    3.49   0
   2  -6  -2   86.05    3.41   0
  -2  -6   2   85.61    3.29   0
  -1   6   2   48.50    4.23   0
   1   6  -2   45.91    4.36   0
   1  -6  -2   35.53    4.39   0
  -1  -6   2   51.62    4.36   0
   0   6  -2  329.35    3.67   0
   0   6   2  328.91    3.62   0
   0  -6  -2  329.33    3.66   0
   0  -6   2  328.86    4.07   0
  -1   6  -2  310.85    4.04   0
   1   6   2  310.56    3.62   0
  -1  -6  -2  310.12    4.46   0
   1  -6   2  310.98    3.77   0
  -2   6  -2  118.80    4.63   0
   2   6   2  145.12    5.68   0
   2   6   2  158.73    4.47   0
   2  -6   2  133.43    4.56   0
  -2  -6  -2  135.63    4.58   0
   3   6   2    2.83    4.38   0
   3   6   2  -14.25    5.75   0
  -3   6  -2    3.37    4.19   0
  -3  -6  -2    2.10    3.17   0
   3  -6   2   -3.83    3.89   0
  -4   6  -2   -2.06    4.86   0
   4   6   2   27.16    6.03   0
   4   6   2   15.99    4.14   0
  -4  -6  -2    6.02    4.48   0
   4  -6   2   15.64    4.39   0
   5   6   2  523.82    3.64   0
   5   6   2  523.93    3.89   0
  -5   6  -2  523.60    4.45   0
  -5  -6  -2  524.44    4.29   0
   5  -6   2  523.51    4.44   0
   6   6   2    4.63    1.81   0
  -6   6  -2    5.11    2.04   0
   6   6   2    4.93    2.39   0
   6  -6   2    4.79    1.98   0
  -6  -6  -2    5.03    2.33   0
   7   6   2   19.61    4.32   0
  -7   6  -2    3.68    2.94   0
   7   6   2   18.56    4.51   0
  -7  -6  -2    9.13    3.28   0
   7  -6   2    9.58    5.48   0
   8   6   2   32.00    5.94   0
   8   6   2   26.23    4.24   0
  -8   6  -2   10.18    2.25   0
  -8  -6  -2   19.80    4.86   0
   8  -6   2   18.43    1.74   0
   9   6   2   24.88    4.13   0
   9   6   2   28.24    4.34   0
   9   7  -2  994.24    6.87   0
   9   7  -2  993.54    6.60   0
  -9   7   2  994.04    7.12   0
   9   7  -2  993.72    7.17   0
   9  -7  -2  993.58    6.74   0
  -8   7   2   -7.48    6.38   0
   8   7  -2   15.14    4.46   0
   8   7  -2    2.98    4.34   0
   8   7  -2   28.32    7.91   0
  -8   7   2    6.52    7.50   0
   8  -7  -2   26.81    4.54   0
  -7   7   2  304.42    5.77   0
   7   7  -2  308.18    5.05   0
  -7  -7   2  310.65    5.11   0
   7  -7  -2  258.21    5.00   0
   6   7  -2   73.79    4.79   0
  -6   7   2   80.88    4.86   0
  -6  -7   2   61.89    3.43   0
   6  -7  -2   67.34    4.12   0
   5   7  -2 2185.14    6.64   0
  -5   7   2 2185.07    6.82   0
  -5  -7   2 2184.94    6.88   0
   5  -7  -2 2184.87    7.34   0
   4   7  -2  207.58    4.02   0
  -4   7   2  207.67    3.53   0
   4  -7  -2  207.71    3.65   0
  -4  -7   2  207.82    3.61   0
   3   7  -2   48.31    2.59   0
  -3   7   2   48.39    3.42   0
  -3  -7   2   48.40    3.26   0
   3  -7  -2   48.19    2.55   0
   2   7  -2   11.12    4.43   0
  -2   7   2   12.40    4.53   0
   2  -7  -2   16.37    4.50   0
  -2  -7   2    9.42    3.07   0
   1   7  -2   88.55    4.43   0
  -1   7   2   76.09    4.49   0
  -1  -7   2   64.95    4.22   0
   1  -7  -2   73.94    4.42   0
   0   7  -2   -0.92    4.40   0
   0   7   2   -9.09    4.07   0
   0  -7   2    7.23    4.38   0
   0  -7  -2    1.01    3.99   0
   1   7   2   44.30    4.26   0
  -1   7  -2   37.40    4.29   0
   1  -7   2   39.87    4.50   0
  -1  -7  -2   25.38    4.25   0
   2   7   2   87.86    4.21   0
   2   7   2   94.26    5.97   0
  -2   7  -2   70.95    4.23   0
  -2  -7  -2   91.59    4.24   0
   2  -7   2   72.05    4.16   0
   3   7   2  522.82    4.85   0
   3   7   2  523.26    5.04   0
  -3   7  -2  523.26    5.18   0
   3  -7   2  523.48    5.00   0
  -3  -7  -2  522.68    5.10   0
  -4   7  -2    6.32    5.39   0
   4   7   2    5.81    4.46   0
   4   7   2    6.29    4.56   0
   4  -7   2    5.91    4.56   0
  -4  -7  -2    5.52    4.57   0
   5   7   2   51.45    4.13   0
   5   7   2   57.65    6.12   0
  -5   7  -2   39.85    4.85   0
   5  -7   2   46.48    4.33   0
  -5  -7  -2   61.99    4.57   0
   6   7   2    1.60    2.12   0
   6   7   2    1.95    2.08   0
  -6   7  -2    1.65    1.95   0
   6  -7   2    2.62    2.01   0
  -6  -7  -2    1.90    1.97   0
   7   7   2  103.95    4.90   0
   7   7   2  130.44    4.18   0
  -7   7  -2  118.44    8.60   0
   7  -7   2  100.73    5.44   0
  -7  -7  -2   81.28    3.38   0
  -8   7  -2    0.12    1.77   0
   8   7   2    0.11    2.04   0
   8   7   2    0.13    2.10   0
   8  -7   2    0.10    1.99   0
  -8  -7  -2   12.31    4.47   0
  -9   8   2   41.66    4.69   0
   9   8  -2   51.27    4.94   0
   9   8  -2   33.86    4.52   0
   9   8  -2   35.34    4.59   0
   9  -8  -2   51.51    5.16   0
   8   8  -2   10.40    3.37   0
  -8   8   2   23.31    5.61   0
   8   8  -2    9.81    8.68   0
   8  -8  -2   15.23    4.29   0
  -7   8   2   55.76    5.10   0
   7   8  -2   46.57    4.36   0
   7  -8  -2   45.80    3.99   0
  -7  -8   2   33.10    4.54   0
   6   8  -2  350.92    5.08   0
  -6   8   2  336.44    5.42   0
   6  -8  -2  332.80    4.95   0
  -6  -8   2  333.75    5.08   0
  -5   8   2  412.45    3.65   0
   5   8  -2  411.74    4.24   0
  -5  -8   2  412.40    4.15   0
   5  -8  -2  412.16    3.89   0
  -4   8   2   12.97    1.58   0
   4   8  -2   12.65    1.84   0
   4  -8  -2   13.37    2.22   0
  -4  -8   2   12.74    1.81   0
   3   8  -2   62.91    4.89   0
  -3   8   2   53.61    4.26   0
   3  -8  -2   62.61    4.45   0
  -3  -8   2   72.44    4.74   0
  -2   8   2  274.39    3.63   0
   2   8  -2  274.31    4.30   0
   2  -8  -2  274.11    3.74   0
  -2  -8   2  274.40    3.81   0
   1   8  -2   23.31    4.17   0
  -1   8   2    3.77    3.31   0
   1  -8  -2    7.53    4.24   0
  -1  -8   2    8.00    4.26   0
   0   8  -2   80.09    3.25   0
   0   8   2  125.23    4.62   0
   0  -8   2  115.29    4.50   0
   0  -8  -2  126.69    4.29   0
   1   8   2  440.96    4.18   0
  -1   8  -2  441.15    4.02   0
   1  -8   2  441.18    4.03   0
  -1  -8  -2  441.25    4.07   0
   2   8   2  720.86    4.61   0
  -2   8  -2  721.07    5.28   0
   2   8   2  721.46    4.66   0
   2  -8   2  720.82    5.15   0
  -2  -8  -2  721.23    5.50   0
   3   8   2   14.90    6.33   0
   3   8   2   10.32    3.16   0
  -3   8  -2   14.62    4.33   0
   3  -8   2   19.78    4.12   0
  -3  -8  -2   23.31    4.48   0
   4   8   2  156.93    4.23   0
  -4   8  -2  136.05    4.48   0
   4   8   2  130.97    4.39   0
  -4  -8  -2  178.82    4.04   0
   4  -8   2  129.62    4.39   0
   5   8   2  427.89    4.93   0
  -5   8  -2  427.84    5.24   0
   5   8   2  427.85    4.85   0
   5  -8   2  427.68    4.87   0
  -5  -8  -2  427.85    4.85   0
   6   8   2    6.74    4.39   0
   6   8   2    4.37    3.87   0
  -6   8  -2    0.85    5.54   0
  -6  -8  -2   -2.93    3.00   0
   6  -8   2    7.54    4.89   0
  -7   8  -2   49.61    6.99   0
   7   8   2   31.90    3.07   0
   7   8   2   45.82    6.45   0
   7  -8   2   24.42    5.20   0
  -7  -8  -2   50.00    4.33   0
   8   8   2   51.40    4.54   0
   8   8   2   49.63    6.97   0
  -8   8  -2   53.71   10.66   0
   8  -8   2   49.32    5.57   0
  -8  -8  -2   60.39    4.84   0
   8   9  -2   11.77    2.42   0
  -8   9   2   12.41    2.44   0
   8   9  -2   12.30    1.68   0
  -8  -9   2   11.52    1.77   0
   8  -9  -2   11.71    2.29   0
   7   9  -2    4.49    4.45   0
  -7   9   2   -0.94    4.46   0
   7  -9  -2   -1.20    4.27   0
  -7  -9   2   -2.51    4.53   0
  -6   9   2   10.52    4.51   0
   6   9  -2   22.63    4.35   0
  -6  -9   2   -3.44    4.42   0
   6  -9  -2    4.67    4.13   0
   5   9  -2  175.11    4.39   0
  -5   9   2  157.58    4.39   0
  -5  -9   2  166.46    4.52   0
   5  -9  -2  160.47    4.20   0
   4   9  -2    1.51    2.14   0
  -4   9   2    1.19    2.25   0
  -4  -9   2    1.54    1.87   0
   4  -9  -2    1.31    2.15   0
   3   9  -2   15.70    4.34   0
  -3   9   2   26.77    4.21   0
  -3  -9   2   14.36    4.27   0
   3  -9  -2   22.16    4.13   0
  -2   9   2   55.67    4.11   0
   2   9  -2   49.49    4.32   0
  -2  -9   2   31.73    3.28   0
   2  -9  -2   29.98    4.34   0
   1   9  -2  125.19    3.70   0
  -1   9   2  125.18    3.72   0
   1  -9  -2  125.34    3.54   0
  -1  -9   2  124.70    4.32   0
   0   9   2  107.28    4.03   0
   0   9  -2  106.88    4.44   0
   0  -9  -2  107.13    4.47   0
   0  -9   2  106.93    3.80   0
  -1   9  -2   27.74    3.02   0
   1   9   2   28.28    3.22   0
   1  -9   2   28.09    3.10   0
  -1  -9  -2   27.76    3.12   0
   2   9   2  777.38    5.17   0
   2   9   2  776.88    4.70   0
  -2   9  -2  776.92    4.68   0
   2  -9   2  777.33    5.16   0
  -2  -9  -2  776.68    5.00   0
  -3   9  -2  200.14    4.57   0
   3   9   2  204.57    5.69   0
   3   9   2  173.94    3.25   0
   3  -9   2  197.94    4.54   0
  -3  -9  -2  228.94    4.19   0
   4   9   2   86.57    4.11   0
  -4   9  -2   67.27    4.54   0
   4   9   2   42.23    5.78   0
   4  -9   2   65.55    4.37   0
  -4  -9  -2   79.08    4.08   0
  -5   9  -2  190.26    4.91   0
   5   9   2  243.78    4.63   0
   5   9   2  195.66    5.99   0
   5  -9   2  190.81    4.67   0
  -5  -9  -2  224.04    4.61   0
   6   9   2  803.78    5.54   0
  -6   9  -2  804.43    5.64   0
   6   9   2  804.31    5.80   0
  -6  -9  -2  804.04    5.82   0
   6  -9   2  804.48    6.03   0
  -7   9  -2   15.14    6.33   0
   7   9   2   10.95    4.05   0
   7   9   2   31.05    5.96   0
   7  -9   2   19.38    5.12   0
  -7  -9  -2   20.89    3.31   0
  -7  10   2   14.74    4.36   0
   7  10  -2   15.54    4.14   0
   7 -10  -2    9.07    3.90   0
  -7 -10   2   10.15    4.08   0
   6  10  -2   30.85    3.02   0
  -6  10   2   21.73    4.59   0
   6 -10  -2   32.80    4.23   0
  -6 -10   2   15.85    3.13   0
   5  10  -2    8.96    2.96   0
  -5  10   2    8.36    3.90   0
  -5 -10   2    1.98    4.14   0
   5 -10  -2   -3.15    3.80   0
  -4  10   2    7.18    3.06   0
   4  10  -2   35.15    3.85   0
  -4 -10   2    8.95    2.91   0
   4 -10  -2   14.05    4.05   0
  -3  10   2    7.46    3.97   0
   3  10  -2    5.34    3.04   0
  -3 -10   2    7.85    3.73   0
   3 -10  -2   10.46    3.87   0
  -2  10   2   57.66    3.89   0
   2  10  -2   71.08    4.12   0
  -2 -10   2   50.11    4.02   0
   2 -10  -2   42.55    3.74   0
   1  10  -2    9.46    1.87   0
  -1  10   2    9.19    2.08   0
   1 -10  -2    9.11    1.94   0
  -1 -10   2    8.82    1.81   0
   0  10  -2   53.84    4.07   0
   0  10   2   84.27    3.84   0
   0 -10  -2   70.05    4.02   0
   0 -10   2   63.69    4.01   0
  -1  10  -2  443.17    4.83   0
   1  10   2  442.60    4.79   0
  -1 -10  -2  442.73    5.32   0
   1 -10   2  443.13    4.86   0
   2  10   2   72.72    5.61   0
  -2  10  -2   40.42    3.10   0
   2  10   2   63.48    2.98   0
  -2 -10  -2   44.33    2.84   0
   2 -10   2   81.88    3.95   0
   3  10   2  137.68    5.84   0
   3  10   2  118.16    3.21   0
  -3  10  -2  147.37    4.45   0
  -3 -10  -2  111.10    3.13   0
   3 -10   2  155.24    4.37   0
   4  10   2  152.25    4.11   0
   4  10   2  152.39    4.38   0
  -4  10  -2  151.79    3.57   0
   4 -10   2  151.91    4.06   0
  -4 -10  -2  152.32    4.27   0
   5  10   2  549.80    5.23   0
  -5  10  -2  550.32    5.15   0
   5  10   2  549.94    5.15   0
   5 -10   2  550.08    4.97   0
  -5 -10  -2  550.38    4.59   0
   6  10   2  100.68    4.02   0
   6  10   2   61.93    5.80   0
  -6  10  -2   71.09    4.97   0
   6 -10   2  100.11    5.03   0
  -6 -10  -2   86.28    4.02   0
   6  11  -2  100.77    4.60   0
  -6  11   2   99.74    4.66   0
  -6 -11   2   76.35    3.19   0
   6 -11  -2   84.70    4.43   0
   5  11  -2   98.78    4.32   0
  -5  11   2   97.69    4.59   0
  -5 -11   2   85.66    4.09   0
   5 -11  -2   59.65    4.07   0
   4  11  -2   61.63    4.00   0
  -4  11   2   31.40    4.01   0
  -4 -11   2   28.35    3.94   0
   4 -11  -2   25.24    4.21   0
   3  11  -2  189.92    3.57   0
  -3  11   2  189.77    4.24   0
   3 -11  -2  189.67    4.20   0
  -3 -11   2  190.28    4.40   0
  -2  11   2   64.87    4.09   0
   2  11  -2   71.22    3.88   0
   2 -11  -2   45.55    2.87   0
  -2 -11   2   61.10    4.06   0
  -1  11   2   -2.16    4.04   0
   1  11  -2    6.54    3.74   0
   1 -11  -2    7.19    3.92   0
  -1 -11   2    2.03    2.82   0
   0  11   2   19.72    3.78   0
   0  11  -2   14.97    4.16   0
   0 -11  -2   10.31    3.68   0
   0 -11   2    5.06    2.91   0
  -1  11  -2   31.78    3.85   0
   1  11   2   32.10    4.08   0
  -1 -11  -2   36.04    4.00   0
   1 -11   2   23.00    2.96   0
   2  11   2  119.90    3.34   0
  -2  11  -2  120.14    3.07   0
   2  11   2  120.24    3.03   0
  -2 -11  -2  119.65    2.91   0
   2 -11   2  119.88    3.28   0
  -3  11  -2   75.02    4.30   0
   3  11   2   52.92    4.07   0
   3  11   2   56.06    3.00   0
  -3 -11  -2   91.08    3.95   0
   3 -11   2   93.20    4.26   0
   4  11   2    4.60    1.91   0
   4  11   2    4.67    2.33   0
  -4  11  -2    4.59    2.03   0
   4 -11   2    4.90    1.81   0
  -4 -11  -2    4.73    2.06   0
   5  11   2   16.40    3.83   0
   5  11   2   39.21    5.94   0
  -5  11  -2   29.50    5.00   0
   5 -11   2   30.75    4.40   0
  -5 -11  -2   32.05    3.72   0
   4  12  -2   47.32    3.89   0
  -4  12   2   56.65    4.40   0
  -4 -12   2   29.50    2.78   0
   4 -12  -2   53.87    3.89   0
  -3  12   2  104.49    4.02   0
   3  12  -2   89.99    4.27   0
   3 -12  -2   85.39    3.81   0
  -3 -12   2   57.36    3.75   0
   2  12  -2  326.44    4.43   0
  -2  12   2  326.05    3.65   0
  -2 -12   2  325.76    3.56   0
   2 -12  -2  325.69    4.32   0
   1  12  -2   20.52    4.29   0
  -1  12   2   21.69    2.89   0
   1 -12  -2   14.53    3.58   0
  -1 -12   2   21.32    4.08   0
   0  12  -2   38.19    3.05   0
   0  12   2   64.01    3.87   0
   0 -12  -2   46.19    3.60   0
   0 -12   2   62.19    4.01   0
  -1  12  -2   15.20    3.81   0
   1  12   2   12.61    3.72   0
  -1 -12  -2   23.01    3.75   0
   1 -12   2   31.95    3.77   0
  -2  12  -2   22.93    3.87   0
   2  12   2    2.47    2.79   0
   2  12   2   15.37    5.18   0
  -2 -12  -2   26.53    3.37   0
   2 -12   2    3.77    4.29   0
   3  12   2   17.77    2.81   0
   3  12   2   17.92    2.85   0
  -3  12  -2   18.22    3.23   0
  -3 -12  -2   17.75    2.55   0
   3 -12   2   18.22    2.92   0
  11   0  -3   20.22    7.97   0
  11   0  -3    7.09    6.73   0
   9   0  -3  291.96    7.78   0
   9   0  -3  312.43    8.87   0
   7   0  -3  228.48    8.52   0
  -7   0   3  270.81    4.83   0
   7   0  -3  270.58    4.84   0
   5   0  -3    0.54    3.46   0
  -5   0   3   -1.58    8.35   0
   3   0  -3  985.51    7.03   0
  -3   0   3  986.12    6.80   0
   1   0  -3  169.25    4.49   0
  -1   0   3  168.65    3.99   0
   1   0   3  128.56    3.22   0
   3   0   3 2716.14   11.02   0
  -3   0  -3 2716.32   10.90   0
   5   0   3   95.22    7.47   0
   5   0   3   56.64    6.95   0
  -5   0  -3   95.63    5.30   0
   7   0   3 2444.41    8.68   0
   7   0   3 2443.67    8.81   0
  -7   0  -3 2443.68    9.39   0
  11   1  -3    9.98    6.06   0
  11   1  -3  -17.57    8.33   0
  11  -1  -3    2.82    9.54   0
  11  -1  -3    4.13    6.43   0
  10   1  -3  -14.00    7.84   0
  10   1  -3    4.71    6.57   0
  10  -1  -3   12.41    8.95   0
  10  -1  -3   16.13    6.69   0
   9   1  -3    4.59    7.65   0
   9   1  -3    2.99    6.97   0
   9  -1  -3   -9.38    6.85   0
   8   1  -3   45.56    4.97   0
   8   1  -3   44.45    5.26   0
  -8   1   3   36.64    5.35   0
   8   1  -3   45.80    7.93   0
   8  -1  -3   48.16    7.53   0
   7   1  -3  582.96    6.02   0
   7   1  -3  583.48    6.14   0
   7   1  -3  583.49    5.50   0
  -7   1   3  583.35    5.50   0
   7  -1  -3  582.62    5.50   0
   6   1  -3   43.23    9.16   0
  -6   1   3   45.39    9.96   0
   6   1  -3   53.55    9.27   0
   6   1  -3   42.17    8.98   0
   6  -1  -3   19.66    6.45   0
   5   1  -3  292.06    3.19   0
  -5   1   3  291.96    2.71   0
   5  -1  -3  291.80    3.34   0
   5  -1  -3  291.75    3.35   0
   4   1  -3    6.85    4.61   0
  -4   1   3    6.80    4.55   0
  -4  -1   3    7.06    5.33   0
   4  -1  -3    6.66    5.07   0
   3   1  -3  147.70    2.80   0
  -3   1   3  147.67    3.12   0
   3  -1  -3  147.51    2.60   0
  -3  -1   3  147.68    2.51   0
   2   1  -3   20.33    5.47   0
  -2   1   3   33.30    5.32   0
   2  -1  -3   34.11    4.63   0
  -2  -1   3   24.42    4.71   0
  -1   1   3   54.65    4.66   0
   1   1  -3   67.16    3.51   0
  -1  -1   3   95.70    5.33   0
   1  -1  -3   60.58    4.79   0
   0   1   3  278.28    3.88   0
   0  -1  -3  278.08    4.30   0
   0  -1   3  277.80    3.56   0
  -1   1  -3 2228.49    7.85   0
   1   1   3 2227.60    8.44   0
   2   1   3  239.14    6.75   0
  -2  -1  -3  276.78    6.02   0
   3   1   3  140.45    6.91   0
  -3  -1  -3  178.31    6.18   0
   4   1   3   71.05    2.63   0
  -4  -1  -3   70.58    2.76   0
  -4  -1  -3   71.12    2.97   0
   5   1   3   -0.31    4.98   0
   5   1   3    1.31    6.69   0
  -5   1  -3   15.90    5.56   0
  -5  -1  -3    4.56    3.78   0
   6   1   3  396.19    5.10   0
   6   1   3  396.46    5.40   0
  -6   1  -3  396.17    4.88   0
  -6  -1  -3  396.32    4.60   0
   7   1   3   14.48    5.52   0
  -7   1  -3   12.02    4.53   0
   7   1   3   24.02    5.46   0
  -7  -1  -3   23.12    5.23   0
   8   1   3  366.44    3.75   0
   8   1   3  366.42    4.02   0
  -8   1  -3  365.91    3.60   0
   9   1   3   19.53    4.00   0
   9   1   3   15.24    6.44   0
  -9   1  -3    4.68    4.71   0
  11   2  -3   94.79    6.39   0
  11   2  -3   93.88    7.30   0
  11  -2  -3  109.86   10.09   0
  11  -2  -3   81.77    7.45   0
  10   2  -3   30.05    6.71   0
  10   2  -3   -6.36    6.61   0
  10  -2  -3   -2.97    7.58   0
   9   2  -3    7.04    6.84   0
   9   2  -3   15.44    6.81   0
   9   2  -3    7.58    7.09   0
  -9   2   3   -0.18    8.08   0
   9  -2  -3   10.65    6.98   0
   8   2  -3 1864.96   10.90   0
  -8   2   3 1606.38    6.62   0
   8   2  -3 1605.52    6.64   0
   8   2  -3 1605.82    6.95   0
   8  -2  -3 1605.86    6.70   0
  -7   2   3  859.28    6.49   0
   7   2  -3  858.74    5.79   0
   7   2  -3  859.32    6.18   0
   7   2  -3  858.93    6.27   0
   7  -2  -3  858.81    6.15   0
  -6   2   3   60.94    6.73   0
   6   2  -3  102.81    7.94   0
   6   2  -3  104.46    7.41   0
   6  -2  -3   79.67    7.45   0
   5   2  -3  304.64    7.48   0
   5   2  -3  264.19    7.16   0
  -5   2   3  292.79    9.99   0
   5  -2  -3  245.89    7.87   0
   4   2  -3 7492.66   10.88   0
  -4   2   3 7492.54   11.38   0
   4   2  -3 7492.82   11.18   0
   4  -2  -3 7493.24   11.78   0
   3   2  -3  463.74    4.44   0
  -3   2   3  463.64    3.76   0
   3   2  -3  463.98    4.09   0
   3  -2  -3  464.23    4.25   0
  -2   2   3    2.43    5.55   0
   2   2  -3    5.80    9.64   0
   2   2  -3    6.85    6.62   0
   2  -2  -3   -1.09    8.07   0
   2  -2  -3    3.15    8.31   0
   1   2  -3   44.94    9.17   0
   1   2  -3   27.44    7.08   0
  -1   2   3   30.44    5.45   0
   1  -2  -3   34.62    8.72   0
   1  -2  -3   36.03    7.83   0
   0   2  -3   57.13    2.88   0
   0   2   3   57.04    3.17   0
   0  -2  -3   56.75    2.55   0
   0  -2  -3   56.95    3.21   0
   1   2   3   14.76    1.90   0
  -1   2  -3   15.35    1.88   0
  -1  -2  -3   15.47    1.66   0
  -1  -2  -3   15.41    2.00   0
   2   2   3    3.94    5.49   0
  -2   2  -3    4.29    5.11   0
  -2   2  -3    4.12    4.92   0
  -2  -2  -3    3.60    4.62   0
  -2  -2  -3    3.96    4.92   0
   3   2   3  388.61    4.11   0
  -3  -2  -3  389.41    4.30   0
   4   2   3   39.90    5.26   0
  -4  -2  -3   24.47    3.82   0
   5   2   3   -2.35    4.07   0
  -5  -2  -3    5.98    5.39   0
   6   2   3  108.91    4.64   0
   6   2   3  155.55    7.25   0
  -6  -2  -3  160.42    5.39   0
   7   2   3  251.15    9.08   0
  -7   2  -3  232.10    5.33   0
   7   2   3  259.85    5.68   0
   8   2   3  160.42    5.39   0
   8   2   3  188.96    5.39   0
  -8   2  -3  156.82    5.28   0
  -9   2  -3   15.67    4.48   0
   9   2   3   13.15    4.90   0
   9   2   3   24.65    5.15   0
  10   2   3   11.69    1.71   0
 -10   2  -3   12.40    2.27   0
  10   2   3   12.26    2.28   0
  11   3  -3   -5.38    5.82   0
  11   3  -3   -3.58    6.11   0
  11  -3  -3    7.74    5.91   0
  10   3  -3    5.40    7.50   0
  10   3  -3   -3.63    6.85   0
 -10   3   3    7.26    7.76   0
  10   3  -3  -15.96    6.00   0
  10  -3  -3   -0.07    5.96   0
  -9   3   3  160.20    8.22   0
   9   3  -3  242.33    7.41   0
   9   3  -3  244.76    7.76   0
   9   3  -3  234.22    6.95   0
   9  -3  -3  198.11    6.50   0
   8   3  -3   54.32    6.02   0
  -8   3   3   24.59    7.51   0
   8   3  -3   50.13    6.97   0
   8   3  -3   19.59    7.30   0
   8  -3  -3   29.67    7.08   0
   7   3  -3  986.02    6.69   0
   7   3  -3  985.71    7.28   0
  -7   3   3  985.64    6.74   0
   7  -3  -3  985.73    6.67   0
   6   3  -3  297.63    4.97   0
  -6   3   3  297.99    5.46   0
   6   3  -3  297.95    5.14   0
   6  -3  -3  298.16    4.71   0
   5   3  -3 1538.73    6.69   0
  -5   3   3 1537.34    7.54   0
   5   3  -3 1535.11    6.64   0
   5  -3  -3 1539.43    6.58   0
  -4   3   3 1637.97    8.34   0
   4   3  -3 1637.96    7.80   0
   4   3  -3 1637.61    7.99   0
   4  -3  -3 1638.17    7.86   0
   3   3  -3 2222.41    8.39   0
  -3   3   3 2221.68    8.06   0
  -3   3   3 2222.16    7.67   0
   3  -3  -3 2222.10    8.38   0
  -2   3   3   58.93    6.71   0
   2   3  -3   51.17    7.60   0
  -2   3   3   51.34    7.47   0
  -2  -3   3   67.53    7.41   0
   2  -3  -3   57.95    6.81   0
   1   3  -3  385.78    5.37   0
  -1   3   3  385.92    5.40   0
  -1   3   3  385.60    4.71   0
   1  -3  -3  385.54    5.40   0
  -1  -3   3  385.78    4.73   0
   0   3   3  575.91    5.35   0
   0   3   3  576.43    4.57   0
   0   3  -3  576.12    5.05   0
   0  -3  -3  575.81    5.49   0
   0  -3  -3  576.12    4.50   0
   0  -3   3  575.91    4.55   0
  -1   3  -3   32.80    5.96   0
   1   3   3  102.51    7.21   0
   1   3   3   34.52    4.04   0
  -1  -3  -3   34.26    4.18   0
  -1  -3  -3   35.17    5.41   0
   1  -3   3   37.09    6.58   0
   2   3   3  141.12    4.45   0
  -2   3  -3  141.35    3.73   0
   2   3   3  140.82    4.34   0
  -2  -3  -3  141.41    3.61   0
  -2  -3  -3  140.74    4.07   0
   2  -3   3  141.26    3.66   0
  -3   3  -3   20.18    4.93   0
   3   3   3   20.19    4.73   0
   3   3   3   20.25    4.95   0
  -3  -3  -3   20.01    4.85   0
  -3  -3  -3   20.00    5.24   0
   3  -3   3   20.35    5.10   0
   4   3   3    4.48    4.30   0
  -4  -3  -3   -3.15    4.35   0
  -4  -3  -3    1.91    3.76   0
   5   3   3   17.07    4.97   0
  -5  -3  -3   14.45    4.58   0
   6   3   3  581.88    5.78   0
   7   3   3   93.34    5.06   0
  -7   3  -3   73.70    4.91   0
   7   3   3   79.82    6.45   0
  -8   3  -3   26.79    4.81   0
   8   3   3   14.24    4.19   0
   8   3   3   16.17    6.33   0
   9   3   3    8.45    4.87   0
  -9   3  -3    7.27    4.44   0
   9   3   3   16.29    8.69   0
  11   4  -3    1.41    5.49   0
  11   4  -3   30.06    7.17   0
  11   4  -3    8.82    6.64   0
 -11   4   3   20.31    7.78   0
  11  -4  -3   18.99    6.47   0
  10   4  -3   28.31    6.15   0
  10   4  -3   33.34    5.21   0
  10   4  -3   10.54    6.60   0
 -10   4   3    3.93    7.16   0
  10  -4  -3   16.01    5.15   0
   9   4  -3   10.27    6.69   0
   9   4  -3   49.50    5.39   0
  -9   4   3   25.11    4.59   0
   9   4  -3   23.23    5.73   0
   9  -4  -3   28.27    5.45   0
   8   4  -3   15.84    2.43   0
  -8   4   3   15.54    1.60   0
   8   4  -3   16.16    1.65   0
   8   4  -3   16.23    1.88   0
   8  -4  -3   15.98    1.53   0
  -7   4   3   33.67    2.76   0
   7   4  -3   33.60    3.46   0
   7   4  -3   33.77    2.86   0
   7  -4  -3   33.85    3.47   0
  -6   4   3   29.58    6.47   0
   6   4  -3   14.14    4.07   0
   6   4  -3   26.06    5.76   0
   6  -4  -3   20.77    5.28   0
  -5   4   3  481.49    3.92   0
   5   4  -3  481.13    3.53   0
   5   4  -3  480.94    4.21   0
   5  -4  -3  480.78    4.48   0
  -4   4   3   39.44    2.67   0
  -4   4   3   39.17    3.04   0
   4   4  -3   39.47    2.74   0
  -4  -4   3   39.44    3.41   0
   4  -4  -3   38.77    3.36   0
  -3   4   3   13.88    6.33   0
   3   4  -3   33.92    5.49   0
  -3   4   3   29.94    5.28   0
   3  -4  -3   22.65    5.32   0
  -3  -4   3   31.31    5.59   0
  -2   4   3   10.50    6.27   0
  -2   4   3    1.13    5.33   0
   2   4  -3   12.73    5.55   0
  -2  -4   3    8.74    5.75   0
   2  -4  -3    4.32    5.25   0
   1   4  -3   61.18    5.54   0
  -1   4   3   61.82    5.34   0
  -1   4   3   55.31    6.58   0
   1  -4  -3   59.67    5.55   0
  -1  -4   3   57.75    5.92   0
   0   4  -3   97.13    5.17   0
   0   4   3   97.23    4.90   0
   0   4   3   96.97    5.42   0
   0  -4   3   96.77    4.61   0
   0  -4  -3   96.97    4.81   0
   1   4   3   91.03    6.16   0
   1   4   3   83.15    4.92   0
  -1   4  -3   87.46    6.03   0
   1  -4   3   67.11    5.42   0
  -1  -4  -3   79.91    5.08   0
   2   4   3  203.08    3.75   0
  -2   4  -3  203.34    3.62   0
   2   4   3  202.67    4.33   0
   2  -4   3  202.87    3.83   0
  -2  -4  -3  203.15    3.66   0
  -3   4  -3   49.55    5.91   0
   3   4   3   67.90    4.21   0
   3   4   3   75.96    4.66   0
   3  -4   3   43.14    4.65   0
  -3  -4  -3   63.04    4.89   0
   4   4   3 1047.48    5.92   0
   4   4   3 1047.14    5.79   0
  -4   4  -3 1046.70    6.15   0
   4  -4   3 1046.98    5.83   0
  -4  -4  -3 1046.52    6.14   0
  -5   4  -3   55.58    4.85   0
   5   4   3   54.62    4.36   0
   5   4   3   74.61    6.00   0
  -5  -4  -3   62.04    4.58   0
   5  -4   3   46.71    8.14   0
   6   4   3 1612.19    7.18   0
  -6  -4  -3 1611.53    6.70   0
   7   4   3  187.57    4.72   0
  -7  -4  -3  198.94    5.71   0
   8   4   3  183.09    4.81   0
   8   4   3  203.76    6.57   0
  -8   4  -3  165.84    4.94   0
   9   4   3   13.79    6.39   0
   9   4   3   11.85    5.07   0
  -9   4  -3   14.84    4.30   0
 -10   5   3  108.60    7.70   0
  10   5  -3  140.48    5.88   0
  10   5  -3  109.33    6.65   0
  10   5  -3  156.72    7.89   0
  10  -5  -3  118.36    5.60   0
  -9   5   3  110.43    7.79   0
   9   5  -3   99.82    5.61   0
   9   5  -3   64.27    4.37   0
   9   5  -3  128.52    7.74   0
   9  -5  -3   72.13    5.33   0
   8   5  -3    1.77    1.65   0
   8   5  -3    2.07    2.45   0
  -8   5   3    1.80    2.09   0
   8   5  -3    1.57    2.42   0
   8  -5  -3    1.72    1.98   0
   7   5  -3  258.04    5.82   0
  -7   5   3  202.77    6.87   0
   7   5  -3  251.51    5.73   0
   7  -5  -3  253.66    5.76   0
   6   5  -3  398.80    5.03   0
  -6   5   3  398.59    5.06   0
   6   5  -3  399.47    5.37   0
   6  -5  -3  399.02    4.59   0
  -5   5   3   46.27    5.22   0
   5   5  -3   51.51    5.17   0
  -5   5   3   21.12    7.13   0
  -5  -5   3   34.90    5.30   0
   5  -5  -3   31.34    5.13   0
   4   5  -3   -2.73    4.71   0
  -4   5   3   21.79    4.85   0
   4  -5  -3    4.11    4.93   0
  -4  -5   3    4.13    4.94   0
   3   5  -3    4.74    3.38   0
  -3   5   3   -2.59    4.63   0
  -3  -5   3    2.72    4.85   0
   3  -5  -3   -0.60    4.67   0
   2   5  -3   44.84    3.49   0
  -2   5   3   42.46    3.35   0
  -2   5   3   47.55    6.11   0
   2  -5  -3   47.76    4.80   0
  -2  -5   3   45.05    5.00   0
   1   5  -3   60.10    4.88   0
  -1   5   3   62.47    4.76   0
  -1   5   3   47.02    6.16   0
   1  -5  -3   29.25    3.22   0
  -1  -5   3   46.92    4.97   0
   0   5   3  319.82    4.03   0
   0   5   3  320.04    3.98   0
   0   5  -3  319.75    4.14   0
   0  -5  -3  320.20    4.12   0
   0  -5   3  319.95    3.96   0
   1   5   3  219.51    3.42   0
  -1   5  -3  220.98    5.04   0
   1   5   3  219.77    4.28   0
  -1  -5  -3  220.17    3.48   0
   1  -5   3  220.02    3.78   0
   2   5   3   16.59    1.94   0
   2   5   3   16.61    2.23   0
  -2   5  -3   17.29    2.35   0
  -2  -5  -3   16.87    2.37   0
   2  -5   3   16.91    1.59   0
  -3   5  -3    6.41    4.42   0
   3   5   3   10.20    5.16   0
   3   5   3    8.59    4.22   0
   3  -5   3   11.44    5.05   0
  -3  -5  -3   13.51    4.32   0
  -4   5  -3 1432.94    5.63   0
   4   5   3 1432.66    6.15   0
   4   5   3 1433.49    6.49   0
  -4  -5  -3 1433.46    5.97   0
   4  -5   3 1433.44    6.95   0
   5   5   3 1641.84    6.84   0
   5   5   3 1642.06    6.90   0
  -5   5  -3 1642.44    7.01   0
  -5  -5  -3 1642.24    6.98   0
   5  -5   3 1642.22    7.28   0
   6   5   3   77.12    4.39   0
   6   5   3   94.89    4.31   0
  -6   5  -3   77.03    4.73   0
   6  -5   3   65.79    4.68   0
  -6  -5  -3   87.49    4.61   0
   7   5   3   56.14    4.31   0
  -7  -5  -3   53.15    4.91   0
   8   5   3  428.77    4.49   0
   9   5   3  410.02    3.74   0
   9   5   3  409.53    4.26   0
  -9   5  -3  409.79    3.87   0
  10   6  -3   85.64    5.78   0
  10   6  -3   52.82    4.47   0
 -10   6   3   70.99    5.31   0
  10   6  -3  129.70    5.38   0
  10  -6  -3   74.83    5.13   0
   9   6  -3    2.53    1.66   0
   9   6  -3    2.66    1.84   0
  -9   6   3    3.06    1.66   0
   9   6  -3    2.67    2.42   0
   9  -6  -3    2.75    1.84   0
   8   6  -3    5.37    4.96   0
  -8   6   3    9.55    6.76   0
   8   6  -3    1.25    6.11   0
   8   6  -3    8.68    4.58   0
   8  -6  -3   16.16    4.49   0
   7   6  -3  302.35    4.12   0
   7   6  -3  301.53    4.27   0
  -7   6   3  301.97    4.32   0
   7  -6  -3  302.19    4.35   0
  -6   6   3  160.43    5.38   0
   6   6  -3  196.40    5.57   0
  -6  -6   3  179.92    5.62   0
   6  -6  -3  165.49    5.00   0
   5   6  -3  904.06    5.79   0
  -5   6   3  904.40    6.44   0
   5  -6  -3  904.18    5.51   0
  -5  -6   3  903.67    6.24   0
  -4   6   3    0.12    4.64   0
   4   6  -3    0.11    4.51   0
  -4  -6   3    0.14    4.76   0
   4  -6  -3    0.12    4.81   0
  -3   6   3    7.76    3.24   0
   3   6  -3   21.66    4.33   0
   3  -6  -3   16.62    4.34   0
  -3  -6   3   35.47    4.54   0
  -2   6   3  189.24    4.68   0
   2   6  -3  196.10    4.59   0
   2  -6  -3  185.57    4.68   0
  -2  -6   3  191.04    4.57   0
  -1   6   3  689.39    6.48   0
  -1   6   3  688.92    5.97   0
   1   6  -3  689.21    5.62   0
   1  -6  -3  688.51    6.48   0
  -1  -6   3  688.68    5.63   0
   0   6   3  305.42    4.43   0
   0   6   3  305.03    3.91   0
   0   6  -3  305.15    4.18   0
   0  -6   3  304.96    3.66   0
   0  -6  -3  305.30    3.60   0
  -1   6  -3   17.63    4.19   0
   1   6   3    8.18    5.52   0
   1   6   3   12.32    2.95   0
   1  -6   3    7.10    4.31   0
  -1  -6  -3   15.02    4.11   0
   2   6   3   -0.75    4.30   0
   2   6   3   14.76    5.48   0
  -2   6  -3    2.78    4.09   0
  -2  -6  -3    5.73    4.32   0
   2  -6   3    5.90    4.14   0
  -3   6  -3   12.95    5.15   0
   3   6   3   -2.35    4.38   0
   3   6   3    3.15    5.49   0
   3  -6   3    8.62    4.22   0
  -3  -6  -3   11.11    4.39   0
   4   6   3   20.16    4.34   0
   4   6   3   12.50    6.25   0
  -4   6  -3   17.95    4.83   0
   4  -6   3   14.27    5.41   0
  -4  -6  -3   15.86    4.40   0
  -5   6  -3   99.77    7.04   0
   5   6   3   85.33    4.57   0
   5   6   3  105.77    4.46   0
   5  -6   3   79.27    5.45   0
  -5  -6  -3  103.00    4.32   0
  -6   6  -3  297.53    4.50   0
   6   6   3  307.58    4.57   0
   6   6   3  353.47    6.61   0
  -6  -6  -3  301.46    4.73   0
   6  -6   3  278.44    7.05   0
   7   6   3   26.61    5.62   0
   7   6   3   27.58    4.13   0
  -7   6  -3   16.24    5.28   0
  -7  -6  -3   13.47    4.59   0
   7  -6   3   11.79    8.58   0
   8   6   3  150.99    4.58   0
  -8  -6  -3  127.58    5.18   0
  10   7  -3  142.00    5.61   0
  10   7  -3  161.77    5.84   0
  10   7  -3  144.16    6.97   0
 -10   7   3  132.75    9.17   0
  10  -7  -3  131.11    5.45   0
   9   7  -3   -9.96    5.12   0
   9   7  -3    3.44    4.61   0
  -9   7   3   12.90    6.48   0
   9   7  -3    9.81    5.12   0
   9  -7  -3   14.40    4.25   0
  -8   7   3  146.18    4.28   0
   8   7  -3  141.49    5.22   0
   8   7  -3   95.96    3.96   0
   8  -7  -3  143.21    4.90   0
  -7   7   3   18.96    5.02   0
   7   7  -3   37.92    4.71   0
  -7   7   3   17.48    4.61   0
   7  -7  -3   22.53    4.35   0
  -6   7   3 1821.72    7.20   0
   6   7  -3 1821.80    6.92   0
  -6  -7   3 1821.85    7.01   0
   6  -7  -3 1821.98    6.55   0
   5   7  -3  106.09    3.85   0
  -5   7   3  123.02    4.99   0
   5  -7  -3  122.62    4.75   0
  -5  -7   3   96.05    3.87   0
  -4   7   3   47.83    3.90   0
   4   7  -3   47.74    4.15   0
  -4  -7   3   48.18    4.01   0
   4  -7  -3   47.75    3.61   0
   3   7  -3   59.60    4.55   0
  -3   7   3   37.01    3.40   0
  -3  -7   3   62.79    4.54   0
   3  -7  -3   37.66    3.38   0
   2   7  -3 1040.48    6.00   0
  -2   7   3 1039.50    6.34   0
  -2  -7   3 1039.92    5.69   0
   2  -7  -3 1040.12    5.77   0
  -1   7   3  565.76    3.68   0
   1   7  -3  565.77    4.27   0
   1  -7  -3  563.09    3.66   0
  -1  -7   3  563.57    3.96   0
   0   7   3    4.31    4.17   0
   0   7  -3    2.08    4.29   0
   0   7   3   14.87    5.28   0
   0  -7   3    4.59    4.48   0
   0  -7  -3    7.27    4.32   0
  -1   7  -3  197.57    3.69   0
   1   7   3  198.46    3.60   0
   1   7   3  197.70    4.01   0
  -1  -7  -3  197.77    4.29   0
   1  -7   3  197.89    3.66   0
   2   7   3    3.09    3.01   0
  -2   7  -3    7.68    4.00   0
   2   7   3    5.87    5.57   0
   2  -7   3    9.49    3.98   0
  -2  -7  -3   -3.75    4.30   0
   3   7   3   17.01    2.09   0
   3   7   3   16.60    2.37   0
  -3   7  -3   17.25    2.23   0
   3  -7   3   16.85    2.49   0
  -3  -7  -3   17.12    2.37   0
  -4   7  -3  137.61    4.08   0
   4   7   3  137.58    3.97   0
   4   7   3  138.49    4.26   0
   4  -7   3  137.55    4.02   0
  -4  -7  -3  138.05    4.28   0
   5   7   3    7.72    4.08   0
   5   7   3    9.79    4.02   0
  -5   7  -3   29.27    5.44   0
   5  -7   3   25.68    4.97   0
  -5  -7  -3   18.94    4.31   0
   6   7   3    7.71    5.83   0
   6   7   3   26.12    4.22   0
  -6   7  -3   25.28    6.62   0
  -6  -7  -3   12.49    3.05   0
   6  -7   3   21.11    5.89   0
  -7   7  -3    6.34   10.31   0
   7   7   3   23.52    6.11   0
   7   7   3   -1.35    4.14   0
   7  -7   3    3.61    6.49   0
  -7  -7  -3   13.47    4.24   0
   8   7   3   29.50    4.16   0
  -8  -7  -3   30.07    4.68   0
   9   8  -3   57.97    3.71   0
  -9   8   3   81.61    6.49   0
   9   8  -3   88.75    5.08   0
   9   8  -3   87.84    6.84   0
   9  -8  -3   83.88    5.25   0
   8   8  -3   17.32    4.30   0
   8   8  -3   -5.53    4.55   0
  -8   8   3   -2.47    4.97   0
   8  -8  -3    3.15    4.43   0
  -7   8   3   25.68    6.75   0
  -7   8   3   52.70    5.00   0
   7   8  -3   24.55    4.24   0
   7  -8  -3   40.41    4.07   0
  -7  -8   3   27.50    4.29   0
  -6   8   3   24.56    4.67   0
   6   8  -3   26.76    3.23   0
  -6  -8   3   28.50    4.49   0
   6  -8  -3   37.39    4.40   0
   5   8  -3  793.76    4.88   0
  -5   8   3  794.28    5.38   0
   5  -8  -3  794.34    5.39   0
  -5  -8   3  793.99    4.84   0
  -4   8   3   21.05    4.65   0
   4   8  -3    7.07    3.36   0
   4  -8  -3   19.35    4.24   0
  -4  -8   3    6.62    3.30   0
  -3   8   3   26.47    4.63   0
   3   8  -3   13.96    3.49   0
   3  -8  -3   34.18    4.29   0
  -3  -8   3   27.79    4.86   0
   2   8  -3   13.12    3.41   0
  -2   8   3   16.84    4.51   0
   2  -8  -3   -3.42    3.33   0
  -2  -8   3    5.70    4.79   0
  -1   8   3  415.21    5.09   0
   1   8  -3  384.39    4.99   0
  -1  -8   3  391.06    4.93   0
   1  -8  -3  405.71    4.93   0
   0   8  -3  493.93    5.18   0
   0   8   3  493.87    4.84   0
   0   8   3  493.98    5.47   0
   0  -8   3  494.18    4.81   0
   0  -8  -3  493.55    4.84   0
  -1   8  -3   76.42    4.44   0
   1   8   3   65.83    5.81   0
   1   8   3   54.77    3.42   0
  -1  -8  -3   80.77    4.69   0
   1  -8   3   42.11    3.16   0
   2   8   3    4.75    5.75   0
   2   8   3    3.80    4.17   0
  -2   8  -3    0.36    4.13   0
  -2  -8  -3    8.70    4.39   0
   2  -8   3    1.75    4.32   0
  -3   8  -3    0.01    4.40   0
   3   8   3    0.02    5.72   0
   3   8   3   -8.54    3.04   0
  -3  -8  -3    0.02    3.01   0
   3  -8   3    0.04    4.34   0
   4   8   3    4.67    2.02   0
  -4   8  -3    4.70    2.35   0
   4   8   3    4.75    2.46   0
  -4  -8  -3    4.82    2.06   0
   4  -8   3    4.66    1.73   0
   5   8   3   15.20    5.61   0
   5   8   3   34.22    4.05   0
  -5   8  -3   14.08    4.44   0
   5  -8   3   13.17    4.27   0
  -5  -8  -3   29.12    4.10   0
  -6   8  -3  330.05    6.99   0
   6   8   3  351.13    6.41   0
   6   8   3  345.11    4.56   0
  -6  -8  -3  347.75    4.81   0
   6  -8   3  301.37    6.04   0
   7   8   3   -9.47    4.42   0
   7   8   3   -1.04    4.18   0
  -7   8  -3   10.02    7.94   0
  -7  -8  -3   -2.54    4.34   0
   7  -8   3    3.11    5.48   0
   8   9  -3    1.19    3.40   0
  -8   9   3    0.60    5.04   0
   8  -9  -3   16.93    4.02   0
  -7   9   3   90.43    2.87   0
  -7   9   3   89.71    3.20   0
   7   9  -3   90.21    3.44   0
   7  -9  -3   90.00    3.06   0
  -7  -9   3   89.98    3.36   0
   6   9  -3  130.49    3.49   0
  -6   9   3  185.20    4.76   0
   6  -9  -3  169.61    4.29   0
  -6  -9   3  157.10    4.49   0
   5   9  -3   35.27    3.06   0
  -5   9   3   41.53    4.34   0
   5  -9  -3   25.89    2.96   0
  -5  -9   3   32.22    4.15   0
   4   9  -3   62.93    3.04   0
  -4   9   3   62.87    3.23   0
   4  -9  -3   62.92    2.95   0
  -4  -9   3   63.26    3.20   0
   3   9  -3  166.96    4.56   0
  -3   9   3  133.72    4.12   0
  -3  -9   3  118.23    4.21   0
   3  -9  -3  130.53    4.36   0
   2   9  -3  171.06    4.40   0
  -2   9   3  171.31    4.43   0
  -2  -9   3  171.00    3.58   0
   2  -9  -3  170.97    4.22   0
   1   9  -3   34.81    4.59   0
  -1   9   3   34.68    3.27   0
  -1  -9   3   35.18    4.46   0
   1  -9  -3   34.62    4.65   0
   0   9  -3    7.82    3.08   0
   0   9   3   11.47    3.76   0
   0   9   3   18.80    4.08   0
   0  -9   3   15.42    4.24   0
   0  -9  -3    7.86    3.15   0
   1   9   3  215.89    3.89   0
  -1   9  -3  219.65    3.83   0
   1   9   3  216.06    4.35   0
  -1  -9  -3  217.64    4.25   0
   1  -9   3  215.17    3.95   0
   2   9   3  168.41    4.04   0
  -2   9  -3  167.82    4.29   0
   2   9   3  167.52    4.28   0
  -2  -9  -3  168.34    4.29   0
   2  -9   3  167.75    4.24   0
  -3   9  -3   80.38    4.40   0
   3   9   3   79.20    5.08   0
   3   9   3  107.98    4.17   0
  -3  -9  -3   91.85    4.16   0
   3  -9   3   71.56    4.37   0
   4   9   3    3.38    2.92   0
  -4   9  -3    9.54    4.27   0
   4   9   3    5.88    5.37   0
   4  -9   3    2.82    4.17   0
  -4  -9  -3    1.13    4.05   0
   5   9   3 1613.97    6.99   0
   5   9   3 1613.65    7.47   0
  -5   9  -3 1613.67    7.29   0
   5  -9   3 1614.40    7.22   0
  -5  -9  -3 1614.13    6.58   0
   6   9   3   79.54    5.82   0
  -6   9  -3   83.44    5.13   0
   6   9   3  114.78    4.19   0
  -6  -9  -3   96.91    4.12   0
   6  -9   3   86.20    4.80   0
  -7  10   3   11.18    4.80   0
  -7  10   3    5.92    5.74   0
   7  10  -3   37.38    4.52   0
   7 -10  -3    4.68    4.06   0
  -7 -10   3    1.31    3.28   0
   6  10  -3   24.37    3.29   0
  -6  10   3   39.09    4.56   0
  -6 -10   3   50.34    4.23   0
   6 -10  -3   37.42    4.29   0
   5  10  -3  124.70    4.25   0
  -5  10   3  115.10    4.58   0
  -5 -10   3  110.95    4.48   0
   5 -10  -3  126.78    4.32   0
   4  10  -3   50.57    3.94   0
  -4  10   3   35.18    3.02   0
  -4 -10   3   49.60    3.84   0
   4 -10  -3   42.82    3.91   0
  -3  10   3    4.01    2.04   0
   3  10  -3    3.85    2.10   0
  -3 -10   3    4.16    1.91   0
   3 -10  -3    3.85    1.72   0
  -2  10   3   83.75    4.14   0
   2  10  -3   58.52    4.11   0
  -2 -10   3   58.63    4.20   0
   2 -10  -3   81.73    3.90   0
   1  10  -3   11.92    2.84   0
  -1  10   3    4.69    3.97   0
   1 -10  -3   -0.06    3.90   0
  -1 -10   3    1.98    3.81   0
   0  10  -3   20.77    3.95   0
   0  10   3   20.66    4.12   0
   0  10   3   20.91    5.44   0
   0 -10  -3   20.82    3.02   0
   0 -10   3   21.42    3.98   0
   1  10   3  234.37    5.58   0
  -1  10  -3  240.34    4.27   0
   1  10   3  289.20    4.26   0
  -1 -10  -3  313.22    4.27   0
   1 -10   3  276.02    4.45   0
   2  10   3   72.14    3.98   0
  -2  10  -3   92.15    4.04   0
   2  10   3  130.51    3.91   0
  -2 -10  -3  122.12    4.07   0
   2 -10   3  105.52    4.38   0
   3  10   3   -3.21    5.42   0
   3  10   3    4.86    2.87   0
  -3  10  -3   13.19    3.87   0
  -3 -10  -3    4.85    2.83   0
   3 -10   3   12.43    4.19   0
   4  10   3   96.57    4.37   0
  -4  10  -3   84.68    4.03   0
   4  10   3   68.56    5.46   0
   4 -10   3   78.98    4.31   0
  -4 -10  -3   81.68    4.29   0
   5  10   3  190.82    5.71   0
   5  10   3  245.70    4.26   0
  -5  10  -3  245.20    5.35   0
  -5 -10  -3  223.99    4.53   0
   5 -10   3  188.92    4.79   0
  -6  11   3  142.59    4.84   0
   6  11  -3  122.99    4.61   0
   6 -11  -3  136.03    4.35   0
  -6 -11   3  146.89    4.28   0
  -5  11   3  383.32    4.81   0
   5  11  -3  476.95    5.24   0
  -5 -11   3  441.42    4.61   0
   5 -11  -3  512.57    5.15   0
  -4  11   3   27.45    2.10   0
   4  11  -3   26.72    1.95   0
   4 -11  -3   26.77    1.91   0
  -4 -11   3   27.46    2.07   0
   3  11  -3  507.10    5.00   0
  -3  11   3  471.15    4.90   0
  -3 -11   3  476.46    4.96   0
   3 -11  -3  283.33    3.50   0
   2  11  -3  241.54    4.33   0
  -2  11   3  239.05    4.20   0
  -2 -11   3  213.87    4.23   0
   2 -11  -3  193.96    4.06   0
  -1  11   3   14.53    3.16   0
   1  11  -3   15.31    3.11   0
  -1  11   3   14.60    3.08   0
   1 -11  -3   15.00    2.73   0
  -1 -11   3   15.01    2.92   0
   0  11   3    7.03    4.80   0
   0  11   3   11.14    4.05   0
   0  11  -3   30.07    3.84   0
   0 -11  -3   28.10    3.69   0
   0 -11   3   25.44    3.82   0
   1  11   3    8.39    4.81   0
   1  11   3   17.99    3.98   0
  -1  11  -3   16.44    3.82   0
  -1 -11  -3   11.62    2.78   0
   1 -11   3   20.96    4.05   0
  -2  11  -3   89.14    4.12   0
   2  11   3   65.18    5.58   0
   2  11   3  122.79    4.06   0
  -2 -11  -3  110.41    3.96   0
   2 -11   3  111.53    4.19   0
   3  11   3    0.17    5.18   0
  -3  11  -3    0.19    4.05   0
   3  11   3    0.24    4.05   0
  -3 -11  -3    0.18    3.93   0
   3 -11   3    0.25    3.93   0
   4  11   3   79.10    4.26   0
  -4  11  -3   48.70    4.41   0
   4  11   3   23.94    5.49   0
   4 -11   3   36.30    4.11   0
  -4 -11  -3   55.87    3.75   0
   4  12  -3  286.72    4.39   0
  -4  12   3  266.18    4.52   0
  -4 -12   3  257.68    4.16   0
   4 -12  -3  283.84    4.33   0
   3  12  -3  407.34    3.91   0
  -3  12   3  334.96    3.84   0
   3 -12  -3  551.74    5.11   0
  -3 -12   3  489.12    4.58   0
   2  12  -3   59.57    4.34   0
  -2  12   3   38.11    4.94   0
  -2  12   3   41.61    3.09   0
  -2 -12   3   46.79    3.08   0
   2 -12  -3   66.65    4.09   0
  -1  12   3   23.96    5.11   0
  -1  12   3   18.95    4.06   0
   1  12  -3   11.02    4.13   0
  -1 -12   3    4.60    3.01   0
   1 -12  -3   -0.39    3.50   0
   0  12  -3   59.91    2.96   0
   0  12   3   90.25    4.05   0
   0  12   3   50.70    4.78   0
   0 -12  -3   86.37    3.75   0
   0 -12   3   87.96    4.14   0
   1  12   3   29.58    3.78   0
   1  12   3   51.09    3.70   0
  -1  12  -3   60.46    4.16   0
  -1 -12  -3   29.89    3.68   0
   1 -12   3   40.19    3.77   0
   2  12   3   15.03    1.78   0
  -2  12  -3   15.19    2.32   0
   2  12   3   14.60    1.81   0
  -2 -12  -3   14.50    2.43   0
   2 -12   3   14.67    2.01   0
  10   0  -4  -13.14    6.71   0
  10   0  -4   17.00    7.69   0
   8   0  -4  142.16    5.81   0
   8   0  -4  141.63    5.42   0
  -8   0   4  145.56    4.66   0
   6   0  -4  425.87    4.39   0
  -6   0   4  426.23    4.05   0
   4   0  -4   56.89    2.93   0
  -4   0   4   57.29    2.94   0
  -2   0   4 3835.49   12.20   0
   2   0  -4 3835.42   11.91   0
   0   0   4  569.78    4.82   0
   2   0   4  234.52    4.27   0
  -2   0  -4  151.15    8.46   0
  -4   0  -4    2.45    5.60   0
  -6   0  -4 1118.71    7.23   0
  -8   0  -4  683.54    6.08   0
  11   1  -4   29.20    7.41   0
  11   1  -4    2.38    5.84   0
  11  -1  -4   12.98    6.02   0
  11  -1  -4   17.28    8.24   0
  10   1  -4  -10.68    7.40   0
  10   1  -4   11.52    6.82   0
  10  -1  -4   20.91    6.29   0
   9   1  -4   40.22    8.60   0
   9   1  -4   35.72    6.13   0
   9   1  -4   28.27    5.31   0
  -9   1   4   37.07    8.18   0
   9  -1  -4   43.15    7.12   0
   8   1  -4  181.50    8.49   0
   8   1  -4  118.70    5.89   0
  -8   1   4  128.38    8.53   0
   8   1  -4  117.83    8.25   0
   8  -1  -4  156.52    7.82   0
   7   1  -4  614.55    9.65   0
  -7   1   4  602.34    6.04   0
   7   1  -4  604.09    6.46   0
   7  -1  -4  525.44    8.97   0
   6   1  -4    6.97    8.65   0
  -6   1   4   14.57    6.45   0
   6  -1  -4   -4.36    8.87   0
  -6  -1   4   35.21    9.61   0
   6  -1  -4    9.80    9.39   0
   5   1  -4   13.94    1.82   0
  -5   1   4   14.31    2.20   0
   5  -1  -4   14.36    2.29   0
  -5  -1   4   14.14    2.00   0
  -4   1   4 1862.13   12.30   0
   4   1  -4 1861.93   12.11   0
   4  -1  -4 1861.60   11.92   0
  -4  -1   4 1861.91   12.31   0
  -3   1   4  535.36   12.46   0
   3   1  -4  390.04   11.04   0
  -3  -1   4  448.91   14.95   0
   3  -1  -4  482.02   12.56   0
  -2   1   4  201.10    4.38   0
   2   1  -4  268.88    3.75   0
   2  -1  -4  202.49    3.53   0
  -2  -1   4  259.14    4.05   0
  -1   1   4  446.49    5.78   0
   1   1  -4  446.47    5.77   0
  -1  -1   4  446.45    6.38   0
   1  -1  -4  445.95    5.70   0
   0   1   4  832.17    7.27   0
   0  -1   4  831.71    6.86   0
   0  -1  -4  831.85    6.87   0
   1   1   4  495.19    8.04   0
   1  -1   4  451.82    8.22   0
  -2   1  -4    4.29    3.24   0
   2   1   4   14.39    6.86   0
  -2   1  -4    6.26    3.31   0
  -2  -1  -4   -1.14    4.61   0
   3   1   4  110.63    6.84   0
  -3  -1  -4  149.12    5.85   0
  -3  -1  -4   99.24    6.58   0
   4   1   4   22.00    5.51   0
  -4  -1  -4   21.58    5.95   0
  -4  -1  -4   37.74    5.50   0
   5   1   4  139.70    6.94   0
  -5  -1  -4  184.88    5.74   0
   6   1   4  246.33    7.33   0
  -6   1  -4  329.87    5.61   0
   6   1   4  317.11    4.10   0
  -6  -1  -4  331.89    5.38   0
   7   1   4 1000.07    7.42   0
   7   1   4 1000.12    6.88   0
  -7   1  -4 1000.38    7.13   0
  -7  -1  -4 1000.28    7.16   0
  -8   1  -4   99.52    4.56   0
  -8  -1  -4   69.45    3.52   0
  -9   1  -4   27.95    4.37   0
  11   2  -4    0.48    1.94   0
  11   2  -4    0.54    1.83   0
  11  -2  -4    0.53    2.37   0
  10   2  -4    4.52    1.57   0
 -10   2   4    5.36    1.55   0
  10   2  -4    4.88    2.25   0
  10   2  -4    4.98    2.49   0
  10  -2  -4    5.20    2.33   0
   9   2  -4  102.02    7.91   0
  -9   2   4   83.12    7.39   0
   9   2  -4  114.01    7.70   0
   9   2  -4   65.63    7.69   0
   9  -2  -4   97.88    6.62   0
   8   2  -4  173.79    8.51   0
   8   2  -4  192.34    7.83   0
  -8   2   4  185.02    7.98   0
   8   2  -4  165.50    6.09   0
   8  -2  -4  167.79    7.67   0
  -7   2   4   11.72    1.97   0
   7   2  -4   11.53    1.70   0
   7   2  -4   11.52    1.98   0
   7  -2  -4   12.35    1.56   0
   6   2  -4  532.58    9.12   0
  -6   2   4  469.10    9.51   0
   6   2  -4  522.67    8.82   0
   6  -2  -4  434.24    8.82   0
  -5   2   4 1631.98    6.54   0
   5   2  -4 1632.01    6.77   0
   5   2  -4 1631.99    7.37   0
   5  -2  -4 1634.32    7.23   0
  -4   2   4  179.79    5.93   0
   4   2  -4  237.19    8.76   0
   4   2  -4  245.71    8.85   0
   4  -2  -4   99.91    4.72   0
   4  -2  -4  261.87    8.18   0
  -3   2   4 2213.64    8.82   0
   3   2  -4 2214.21   13.75   0
   3   2  -4 2214.41   13.49   0
   3  -2  -4 2213.81   14.88   0
   3  -2  -4 2213.53   11.73   0
   2   2  -4 1930.90   11.49   0
   2   2  -4 1930.86   10.57   0
  -2   2   4 1931.15   11.11   0
   2  -2  -4 1931.19   11.47   0
   2  -2  -4 1931.41   10.64   0
   1   2  -4  787.94   10.11   0
   1   2  -4  809.02   12.13   0
  -1   2   4  558.74    6.35   0
   1  -2  -4  551.65    6.39   0
   1  -2  -4  695.26    9.24   0
   0   2  -4   52.51    7.49   0
   0   2   4   67.45    6.10   0
   0  -2  -4   67.22    6.16   0
   0  -2  -4   52.65    5.85   0
   1   2   4 1185.75    7.65   0
  -1   2  -4 1070.12   10.72   0
  -1  -2  -4 1129.29    7.42   0
  -1  -2  -4 1312.56    9.01   0
  -2   2  -4   38.67   23.18   0
   2   2   4   29.83    5.34   0
  -2   2  -4   18.30    7.73   0
  -2  -2  -4   29.22    6.09   0
  -2  -2  -4   27.63    4.40   0
   3   2   4    5.04    4.79   0
  -3  -2  -4   16.34    5.42   0
   4   2   4   67.21    5.25   0
  -4  -2  -4   70.45    5.41   0
   5   2   4    3.45    5.20   0
  -5  -2  -4   -6.26    5.34   0
   6   2   4   14.17    5.56   0
  -6  -2  -4   16.98    5.24   0
  -7   2  -4   33.72    4.68   0
   7   2   4   30.66    5.32   0
   7   2   4   34.43    8.85   0
  -7  -2  -4   19.71    4.56   0
   8   2   4   12.85    2.35   0
   8   2   4    4.23    6.07   0
  -8   2  -4   11.33    4.60   0
  -9   2  -4   -0.52    4.61   0
   9   2   4    5.27    1.75   0
   9   2   4    1.12    6.96   0
 -11   3   4   28.15    7.24   0
  11   3  -4   41.00    6.33   0
  11   3  -4   35.98    5.31   0
  11   3  -4   37.20    6.90   0
  11  -3  -4   53.56    6.89   0
  10   3  -4   26.30    6.98   0
 -10   3   4   15.76    6.95   0
  10   3  -4   43.95    6.51   0
  10   3  -4   28.80    6.50   0
  10  -3  -4   34.75    5.83   0
   9   3  -4   20.23    2.15   0
  -9   3   4   19.94    1.74   0
   9   3  -4   19.77    2.01   0
   9   3  -4   20.45    2.42   0
   9  -3  -4   19.95    2.24   0
   8   3  -4  100.74    7.14   0
   8   3  -4  106.88    7.99   0
  -8   3   4  107.56    7.99   0
   8   3  -4   94.45    7.33   0
   8  -3  -4   85.92    6.65   0
  -7   3   4    4.68    5.74   0
   7   3  -4   26.59    5.10   0
   7   3  -4   26.78    6.95   0
   7  -3  -4   24.77    4.35   0
   6   3  -4  193.39    6.94   0
  -6   3   4  166.90    8.08   0
   6   3  -4  191.56    6.89   0
   6  -3  -4  169.70    6.77   0
   5   3  -4 1144.19    6.58   0
  -5   3   4 1143.87    7.01   0
   5   3  -4 1143.70    6.76   0
   5  -3  -4 1144.25    7.39   0
  -4   3   4 2219.48   10.53   0
   4   3  -4 2218.74   11.28   0
   4   3  -4 2219.31   11.28   0
   4  -3  -4 2218.71   10.80   0
  -3   3   4  976.17    7.73   0
   3   3  -4  975.57    7.83   0
   3   3  -4  975.69    7.69   0
   3  -3  -4  975.91    7.88   0
   2   3  -4    4.49    6.76   0
   2   3  -4   -6.07    7.52   0
  -2   3   4    4.39    6.04   0
   2  -3  -4  -14.18    5.93   0
   2  -3  -4   -0.25    7.33   0
   1   3  -4  577.08    7.95   0
   1   3  -4  624.99    8.98   0
  -1   3   4  432.04    5.23   0
   1  -3  -4  634.63    7.30   0
   1  -3  -4  405.76    6.61   0
   0   3  -4 1497.09    7.47   0
   0   3  -4 1496.90    6.92   0
   0   3   4 1496.76    7.18   0
   0  -3  -4 1497.08    6.82   0
   0  -3  -4 1497.43    7.14   0
  -1   3  -4    3.61    1.56   0
   1   3   4    4.25    1.55   0
  -1  -3  -4    3.91    2.17   0
  -1  -3  -4    4.41    2.31   0
   2   3   4   46.70    5.27   0
  -2   3  -4   21.90    5.37   0
  -2   3  -4   65.46   10.53   0
  -2  -3  -4   68.46    5.37   0
  -2  -3  -4   50.79    4.99   0
  -3   3  -4  592.08   31.33   0
   3   3   4  582.89    5.80   0
  -3   3  -4  341.69   10.58   0
  -3  -3  -4  523.30    5.71   0
  -3  -3  -4  665.76    6.63   0
   4   3   4    6.36    4.19   0
  -4  -3  -4    5.84    4.32   0
  -4  -3  -4   16.14    5.09   0
   5   3   4   13.66    5.03   0
  -5  -3  -4   11.93    5.41   0
   6   3   4    8.31    4.55   0
   7   3   4   22.66    5.85   0
   7   3   4   32.53    4.96   0
   8   3   4   32.18    7.32   0
  -8   3  -4   37.08    4.79   0
   8   3   4   44.53    5.08   0
   9   3   4   41.89    5.61   0
  -9   3  -4   29.07    4.70   0
   9   3   4   51.33   10.58   0
  11   4  -4    8.13    7.07   0
  11   4  -4   21.31    6.88   0
 -11   4   4   14.22    6.72   0
  11   4  -4   13.11    6.31   0
  11  -4  -4   -4.47    5.76   0
  10   4  -4   57.87    6.81   0
  10   4  -4   75.28    7.05   0
 -10   4   4   56.81    6.99   0
  10   4  -4   59.46    6.23   0
  10  -4  -4   54.33    5.88   0
   9   4  -4   10.65    6.09   0
  -9   4   4   -2.82    6.93   0
   9   4  -4   -0.88    6.44   0
   9   4  -4   16.09    7.92   0
   9  -4  -4   21.27    5.80   0
  -8   4   4   16.07    7.56   0
   8   4  -4   17.37    6.53   0
   8   4  -4   12.17    6.24   0
   8  -4  -4    2.84    5.55   0
  -7   4   4  251.27    7.84   0
   7   4  -4  216.26    6.41   0
   7   4  -4  286.51    6.54   0
   7  -4  -4  273.44    6.32   0
   6   4  -4    5.30    4.10   0
  -6   4   4   -1.23    6.34   0
   6   4  -4  -11.09    5.91   0
   6  -4  -4   -0.92    5.61   0
  -5   4   4  202.17    5.97   0
   5   4  -4  235.00    5.81   0
   5   4  -4  223.72    5.92   0
   5  -4  -4  212.99    5.90   0
  -4   4   4   35.31    3.76   0
   4   4  -4   49.26    5.63   0
   4   4  -4   40.00    3.99   0
   4  -4  -4   47.35    5.10   0
   3   4  -4  129.99    5.71   0
  -3   4   4   83.67    6.47   0
  -3   4   4   80.10    3.81   0
   3  -4  -4  116.45    5.35   0
   2   4  -4  244.59    6.02   0
  -2   4   4  172.08    6.34   0
  -2   4   4  156.95    3.96   0
   2  -4  -4  261.09    5.67   0
  -2  -4   4  182.14    4.45   0
  -1   4   4  514.71    5.32   0
  -1   4   4  515.31    5.13   0
   1   4  -4  514.55    4.54   0
  -1  -4   4  515.18    4.99   0
   1  -4  -4  514.91    4.52   0
   0   4   4    0.91    5.95   0
   0   4  -4    0.88    5.57   0
   0   4   4    0.87    4.85   0
   0  -4  -4    0.93    4.80   0
   0  -4   4    0.88    6.08   0
   1   4   4    1.64    3.18   0
  -1   4  -4    2.07    5.33   0
   1   4   4    1.96    3.91   0
   1  -4   4    1.60    5.07   0
  -1  -4  -4    1.86    4.60   0
  -2   4  -4  330.09    5.62   0
   2   4   4  642.99    5.73   0
   2   4   4  691.92    6.62   0
   2  -4   4  479.68    6.91   0
  -2  -4  -4  623.86    5.55   0
   3   4   4   12.57    4.15   0
  -3   4  -4    7.06    5.41   0
   3   4   4   -7.65    5.09   0
  -3  -4  -4    9.23    4.42   0
   3  -4   4    6.06    6.54   0
  -4   4  -4  216.72    4.62   0
   4   4   4  219.31    4.67   0
  -4   4  -4  160.27    4.73   0
  -4  -4  -4  202.72    4.53   0
   5   4   4  374.76    5.29   0
  -5  -4  -4  431.97    6.08   0
   6   4   4   22.32    4.77   0
  -6  -4  -4   10.02    5.28   0
   7   4   4    0.27    4.39   0
  -7  -4  -4    0.26    5.06   0
   8   4   4  360.23    5.64   0
   8   4   4  408.16    7.93   0
  -8   4  -4  308.13    5.25   0
   9   4   4  395.24    4.02   0
   9   4   4  361.37    5.44   0
  -9   4  -4  348.18    5.66   0
  11   5  -4   34.47    6.13   0
  11   5  -4   26.67    6.63   0
  11   5  -4   33.89    6.65   0
 -11   5   4   33.16    6.95   0
  11  -5  -4   37.33    5.66   0
  10   5  -4   16.22    5.82   0
 -10   5   4  -14.91    6.85   0
  10   5  -4   12.17    6.15   0
  10   5  -4    3.45    6.44   0
  10  -5  -4    6.83    4.79   0
   9   5  -4   26.12    5.59   0
   9   5  -4   28.27    4.90   0
  -9   5   4   28.78    4.71   0
   9   5  -4    9.05    4.09   0
   9  -5  -4    6.81    5.43   0
   8   5  -4   14.36    3.89   0
  -8   5   4   30.80    7.40   0
   8   5  -4   40.36    5.08   0
   8  -5  -4   23.86    5.37   0
  -7   5   4    0.79    6.35   0
   7   5  -4    0.81    4.18   0
   7   5  -4    0.75    6.18   0
   7  -5  -4    0.80    5.46   0
   6   5  -4   16.90    5.52   0
  -6   5   4    0.46    5.67   0
   6   5  -4   -1.39    4.21   0
   6  -5  -4    4.05    5.12   0
  -5   5   4  131.59    5.62   0
   5   5  -4   86.35    3.84   0
   5   5  -4  104.88    3.90   0
   5  -5  -4  139.74    5.40   0
  -4   5   4   12.21    6.02   0
   4   5  -4   18.60    3.56   0
  -4   5   4   23.60    5.03   0
  -4  -5   4   15.41    4.99   0
   4  -5  -4   25.16    5.04   0
  -3   5   4  115.28    5.59   0
  -3   5   4   97.82    3.50   0
   3   5  -4  174.43    5.23   0
   3  -5  -4  145.35    4.77   0
  -3  -5   4  114.64    3.83   0
  -2   5   4  138.34    6.18   0
   2   5  -4  183.49    5.16   0
  -2   5   4  177.62    4.85   0
   2  -5  -4  134.26    3.58   0
  -2  -5   4  128.88    3.77   0
  -1   5   4   72.50    5.14   0
   1   5  -4   73.31    4.86   0
  -1   5   4   73.08    4.65   0
   1  -5  -4   72.72    4.79   0
  -1  -5   4   72.74    5.07   0
   0   5   4    5.99    2.41   0
   0   5  -4    6.41    1.83   0
   0   5   4    6.41    2.37   0
   0  -5  -4    5.93    2.35   0
   0  -5   4    5.51    2.35   0
   1   5   4  641.62    5.46   0
   1   5   4  660.27    6.30   0
  -1   5  -4  449.97    5.38   0
   1  -5   4  566.58    6.20   0
  -1  -5  -4  626.77    5.54   0
   2   5   4    7.78    3.18   0
  -2   5  -4   10.19    4.34   0
   2   5   4   16.28    5.22   0
  -2  -5  -4   11.35    4.52   0
   2  -5   4   12.80    4.58   0
   3   5   4  247.89    3.62   0
  -3   5  -4  251.20    6.25   0
   3   5   4  360.36    5.79   0
  -3  -5  -4  348.73    4.93   0
   3  -5   4  312.76    6.88   0
   4   5   4  192.82    4.48   0
   4   5   4  238.72    6.46   0
  -4   5  -4  165.79    7.13   0
   4  -5   4  203.37    7.61   0
  -4  -5  -4  193.06    4.67   0
  -5   5  -4   57.08   13.23   0
   5   5   4   76.47    4.14   0
  -5  -5  -4   65.33    4.46   0
   6   5   4   32.38    4.28   0
  -6  -5  -4   29.92    4.55   0
   7   5   4  357.32    5.38   0
  -7  -5  -4  356.83    5.89   0
   8   5   4  400.21    5.55   0
  10   6  -4   19.15    7.02   0
  10   6  -4  -10.75    5.26   0
 -10   6   4   -4.52    6.56   0
  10   6  -4   -4.53    5.92   0
  10  -6  -4   -0.62    4.98   0
   9   6  -4   21.00    5.12   0
   9   6  -4   10.59    5.42   0
  -9   6   4   15.58    6.75   0
   9   6  -4   17.37    8.30   0
   9  -6  -4   -6.71    5.02   0
  -8   6   4    1.57    1.89   0
   8   6  -4    1.59    1.54   0
   8   6  -4    1.70    1.97   0
   8  -6  -4    1.56    2.03   0
  -7   6   4  198.63    6.00   0
   7   6  -4  170.38    4.23   0
   7   6  -4  190.45    5.65   0
   7  -6  -4  186.95    5.34   0
  -6   6   4 1494.69    6.81   0
   6   6  -4 1494.75    6.86   0
   6   6  -4 1495.10    7.05   0
   6  -6  -4 1494.86    6.59   0
   5   6  -4   13.08    5.01   0
  -5   6   4    1.41    6.19   0
  -5   6   4    5.85    5.00   0
   5  -6  -4    5.27    4.62   0
  -5  -6   4    5.82    5.16   0
   4   6  -4  129.43    4.80   0
  -4   6   4   77.33    6.15   0
  -4   6   4  120.11    5.12   0
   4  -6  -4  120.90    5.00   0
  -4  -6   4   80.23    3.55   0
   3   6  -4  228.10    4.97   0
  -3   6   4  161.49    5.43   0
  -3   6   4  235.42    5.00   0
   3  -6  -4  150.41    3.64   0
  -3  -6   4  237.75    4.99   0
  -2   6   4 4732.71   10.69   0
   2   6  -4 4733.26   10.99   0
  -2   6   4 4732.89   10.53   0
   2  -6  -4 4733.27   10.75   0
  -2  -6   4 4733.28   11.24   0
   1   6  -4   92.12    4.83   0
  -1   6   4   88.15    5.55   0
  -1   6   4   96.80    4.47   0
   1  -6  -4   54.56    3.24   0
  -1  -6   4   76.01    4.69   0
   0   6   4   19.62    4.24   0
   0   6   4   18.01    3.88   0
   0   6  -4   32.76    4.71   0
   0  -6  -4   26.19    4.18   0
   0  -6   4   19.90    3.44   0
   1   6   4   -3.37    4.37   0
   1   6   4   10.18    3.76   0
  -1   6  -4    6.10    4.24   0
   1  -6   4   15.13    4.57   0
  -1  -6  -4    1.72    3.11   0
   2   6   4   98.69    4.69   0
  -2   6  -4   73.51    4.41   0
   2   6   4  110.53    5.54   0
   2  -6   4   69.56    4.57   0
  -2  -6  -4   99.46    4.59   0
   3   6   4  260.18    4.52   0
  -3   6  -4  149.07    4.79   0
   3   6   4  274.54    5.96   0
   3  -6   4  193.67    5.11   0
  -3  -6  -4  255.74    4.48   0
  -4   6  -4  155.72    6.04   0
   4   6   4  156.07    4.72   0
   4   6   4  155.66    4.58   0
   4  -6   4  155.61    5.46   0
  -4  -6  -4  156.33    4.64   0
   5   6   4   19.17    4.07   0
  -5   6  -4   13.52    6.20   0
   5   6   4   43.80    5.46   0
  -5  -6  -4   30.45    4.37   0
   5  -6   4   17.67    6.95   0
  -6   6  -4   13.75   20.74   0
   6   6   4    7.23    3.94   0
  -6  -6  -4   18.10    4.45   0
   7   6   4  165.40    4.55   0
  -7  -6  -4  164.28    4.77   0
   8   6   4   77.44    4.53   0
  -8  -6  -4   79.15    5.58   0
 -10   7   4   14.33    6.70   0
  10   7  -4   -6.36    8.34   0
  10   7  -4   -2.50    5.08   0
  10   7  -4   -6.10    5.58   0
  10  -7  -4   -7.87    5.32   0
   9   7  -4   21.60    5.17   0
   9   7  -4   19.54    5.17   0
   9   7  -4    2.74    6.90   0
  -9   7   4   28.35    6.07   0
   9  -7  -4   18.86    4.39   0
  -8   7   4   19.74    5.23   0
   8   7  -4   -9.11    5.03   0
   8   7  -4   -3.61    4.47   0
   8  -7  -4   12.27    4.30   0
  -7   7   4  381.12    3.63   0
   7   7  -4  380.55    4.17   0
   7   7  -4  381.25    4.36   0
   7  -7  -4  381.46    4.43   0
   6   7  -4   24.27    3.53   0
  -6   7   4   39.14    5.20   0
  -6   7   4   21.72    6.25   0
   6  -7  -4   38.34    4.89   0
   5   7  -4  815.27    4.63   0
  -5   7   4  814.66    4.61   0
  -5   7   4  815.36    4.63   0
   5  -7  -4  814.57    4.79   0
  -5  -7   4  815.47    5.09   0
  -4   7   4    8.64    2.05   0
   4   7  -4    8.59    1.88   0
  -4   7   4    8.81    2.45   0
   4  -7  -4    8.63    1.79   0
  -4  -7   4    8.63    2.02   0
  -3   7   4 2875.38    8.29   0
   3   7  -4 2875.12    8.02   0
  -3   7   4 2874.74    7.68   0
   3  -7  -4 2874.81    8.04   0
  -3  -7   4 2874.92    8.24   0
  -2   7   4   92.32    5.23   0
   2   7  -4  104.68    4.53   0
  -2   7   4   60.23    3.18   0
  -2  -7   4  113.25    4.78   0
   2  -7  -4  114.78    4.50   0
  -1   7   4 1357.15    5.71   0
   1   7  -4 1356.52    6.10   0
  -1   7   4 1356.94    5.65   0
   1  -7  -4 1356.77    5.98   0
  -1  -7   4 1356.91    6.23   0
   0   7   4   60.68    5.35   0
   0   7   4   50.20    3.15   0
   0   7  -4   70.49    4.41   0
   0  -7   4   49.12    3.22   0
   0  -7  -4   73.57    4.18   0
  -1   7  -4  135.81    4.41   0
   1   7   4  169.51    4.64   0
   1   7   4  156.78    5.69   0
   1  -7   4  151.79    4.53   0
  -1  -7  -4  149.86    4.38   0
  -2   7  -4   20.30    5.18   0
   2   7   4   16.95    4.15   0
   2   7   4   35.06    4.41   0
  -2  -7  -4   11.47    3.14   0
   2  -7   4   20.71    4.65   0
   3   7   4    2.71    4.46   0
  -3   7  -4    2.81    5.66   0
   3   7   4    3.35    6.38   0
  -3  -7  -4    3.42    4.66   0
   3  -7   4    3.41    5.06   0
   4   7   4    7.78    4.32   0
  -4   7  -4    9.76    5.13   0
   4   7   4    6.82    5.27   0
  -4  -7  -4    7.80    4.33   0
   4  -7   4   -0.11    4.47   0
   5   7   4  123.56    4.13   0
   5   7   4   82.13    4.05   0
  -5   7  -4   86.31    6.05   0
   5  -7   4   89.41    5.74   0
  -5  -7  -4   96.96    4.41   0
  -6   7  -4   86.48    8.03   0
   6   7   4   69.82    4.41   0
   6   7   4   96.54    4.40   0
  -6  -7  -4   75.21    4.47   0
   6  -7   4   82.79    7.64   0
   7   7   4   46.11    3.92   0
  -7  -7  -4   36.17    4.39   0
   9   8  -4    7.73    4.94   0
   9   8  -4   21.81    5.21   0
  -9   8   4  -15.98    6.08   0
   9  -8  -4   -3.19    4.33   0
  -8   8   4   38.85    5.26   0
   8   8  -4   21.08    4.49   0
   8   8  -4   48.53    4.64   0
   8  -8  -4   19.80    4.15   0
  -7   8   4   48.72    4.69   0
   7   8  -4   76.22    5.01   0
   7  -8  -4   50.58    4.53   0
  -6   8   4  303.45    7.14   0
   6   8  -4  459.09    5.36   0
  -6   8   4  434.84    5.23   0
   6  -8  -4  375.10    5.07   0
  -6  -8   4  432.10    5.30   0
   5   8  -4   -4.46    4.51   0
  -5   8   4   11.21    5.88   0
  -5   8   4   21.18    4.53   0
  -5  -8   4    3.79    3.11   0
   5  -8  -4    1.11    4.08   0
   4   8  -4   32.77    4.94   0
  -4   8   4   43.59    6.13   0
  -4   8   4   32.84    3.29   0
   4  -8  -4   24.86    3.27   0
  -4  -8   4   36.40    3.44   0
   3   8  -4   44.20    4.47   0
  -3   8   4   26.44    5.30   0
  -3   8   4   28.77    4.68   0
   3  -8  -4   43.25    4.37   0
  -3  -8   4   36.43    3.37   0
  -2   8   4 1239.11    6.25   0
  -2   8   4 1239.45    5.68   0
   2   8  -4 1238.69    6.38   0
   2  -8  -4 1238.98    5.87   0
  -2  -8   4 1239.07    6.42   0
  -1   8   4  283.09    5.66   0
  -1   8   4  331.21    5.14   0
   1   8  -4  294.56    4.95   0
  -1  -8   4  191.89    3.56   0
   1  -8  -4  202.49    3.66   0
   0   8   4    9.57    2.31   0
   0   8   4   10.31    2.21   0
   0   8  -4    9.61    2.33   0
   0  -8   4    9.90    2.23   0
   0  -8  -4   10.27    1.64   0
  -1   8  -4   62.23    4.18   0
   1   8   4   67.84    4.65   0
   1   8   4   66.33    5.58   0
   1  -8   4   56.14    4.57   0
  -1  -8  -4   47.06    3.26   0
  -2   8  -4    5.28    2.16   0
   2   8   4    4.99    2.00   0
   2   8   4    4.82    2.30   0
   2  -8   4    5.14    2.40   0
  -2  -8  -4    5.12    1.96   0
   3   8   4   11.67    2.85   0
  -3   8  -4   19.02    4.22   0
   3   8   4   -2.18    3.69   0
  -3  -8  -4   18.63    3.75   0
   3  -8   4    8.86    4.31   0
  -4   8  -4    3.80    4.74   0
   4   8   4    4.02    4.15   0
   4   8   4    4.11    5.19   0
  -4  -8  -4    4.23    4.08   0
   4  -8   4    3.67    4.39   0
   5   8   4   44.30    5.57   0
  -5   8  -4   33.57    5.48   0
   5   8   4   51.22    4.12   0
   5  -8   4   39.17    5.37   0
  -5  -8  -4   42.90    4.10   0
  -6   8  -4   55.81    6.90   0
   6   8   4   50.42    5.66   0
   6   8   4   71.93    4.31   0
  -6  -8  -4   65.14    3.93   0
   6  -8   4   47.19    6.35   0
  -7   8  -4   44.46    3.09   0
   7   8   4   63.74    4.07   0
   7  -8   4   51.90    4.41   0
  -7  -8  -4   52.28    4.49   0
  -8   9   4   19.28    5.20   0
   8   9  -4   27.26    4.26   0
   8   9  -4   12.89    3.59   0
   8  -9  -4   27.92    4.48   0
  -7   9   4   31.62    4.37   0
   7   9  -4   16.52    4.67   0
  -7   9   4    6.38    5.19   0
   7  -9  -4   13.76    4.36   0
  -6   9   4   11.38    4.15   0
   6   9  -4   11.02    3.20   0
  -6   9   4   -0.30    5.12   0
   6  -9  -4    4.27    4.25   0
  -6  -9   4   -0.10    3.18   0
  -5   9   4   25.02    5.40   0
   5   9  -4   24.33    4.22   0
  -5   9   4   25.99    4.01   0
  -5  -9   4   11.02    3.21   0
   5  -9  -4   19.36    2.99   0
  -4   9   4    9.45    4.72   0
   4   9  -4    9.32    3.99   0
  -4   9   4   -8.64    3.89   0
   4  -9  -4    5.36    2.84   0
  -4  -9   4   15.59    2.94   0
  -3   9   4   24.48    2.94   0
  -3   9   4   20.39    4.85   0
   3   9  -4   23.67    4.28   0
   3  -9  -4   39.17    4.10   0
  -3  -9   4   10.55    4.30   0
  -2   9   4   50.62    4.24   0
  -2   9   4   55.82    5.01   0
   2   9  -4   54.97    4.11   0
   2  -9  -4   52.38    4.25   0
  -2  -9   4   42.32    4.09   0
  -1   9   4    1.33    3.80   0
  -1   9   4    8.10    4.19   0
   1   9  -4    8.32    3.98   0
  -1  -9   4   -2.77    4.34   0
   1  -9  -4    9.86    3.90   0
   0   9  -4   36.67    2.58   0
   0   9   4   36.58    3.05   0
   0   9   4   36.53    3.48   0
   0  -9   4   37.27    3.43   0
   0  -9  -4   37.39    3.20   0
   1   9   4   30.89    2.93   0
  -1   9  -4   39.80    4.10   0
   1   9   4   33.18    5.11   0
  -1  -9  -4   68.19    3.79   0
   1  -9   4   55.08    4.41   0
  -2   9  -4   60.72    4.05   0
   2   9   4   82.87    4.21   0
   2   9   4   70.73    5.27   0
  -2  -9  -4   95.95    4.11   0
   2  -9   4   87.65    4.35   0
   3   9   4   42.54    3.81   0
   3   9   4   44.80    3.96   0
  -3   9  -4   47.34    4.30   0
  -3  -9  -4   51.15    3.99   0
   3  -9   4   49.00    4.46   0
   4   9   4  149.07    5.69   0
   4   9   4  151.30    4.39   0
  -4   9  -4  112.00    4.50   0
  -4  -9  -4  144.28    4.28   0
   4  -9   4  114.12    4.66   0
   5   9   4  169.01    4.24   0
   5   9   4  151.02    5.57   0
  -5   9  -4  146.52    5.73   0
   5  -9   4  157.96    5.77   0
  -5  -9  -4  132.01    4.07   0
  -6   9  -4  161.18    6.52   0
   6   9   4  224.34    4.74   0
   6   9   4  134.34    5.73   0
  -6  -9  -4  209.97    4.34   0
   6  -9   4  158.63    6.29   0
  -7  10   4   13.91    4.81   0
   7  10  -4   29.11    4.46   0
  -7  10   4    3.29    5.60   0
  -7 -10   4  -17.27    4.35   0
   7 -10  -4    1.56    4.43   0
  -6  10   4    0.68    2.36   0
   6  10  -4    0.67    2.18   0
  -6  10   4    0.71    1.66   0
   6 -10  -4    0.73    2.41   0
  -6 -10   4    0.75    2.36   0
   5  10  -4  158.16    3.53   0
  -5  10   4  202.75    6.18   0
  -5  10   4  225.25    4.44   0
  -5 -10   4  219.67    4.83   0
   5 -10  -4  235.33    4.64   0
   4  10  -4   18.61    4.35   0
  -4  10   4   29.28    4.66   0
  -4  10   4   36.29    4.03   0
  -4 -10   4   16.88    4.17   0
   4 -10  -4   33.45    4.07   0
  -3  10   4   48.27    5.06   0
   3  10  -4   70.54    4.35   0
  -3  10   4   62.70    4.21   0
  -3 -10   4   41.88    3.18   0
   3 -10  -4   46.75    4.09   0
  -2  10   4   -3.06    4.11   0
  -2  10   4    8.00    4.53   0
   2  10  -4   21.62    3.99   0
   2 -10  -4   10.26    3.87   0
  -2 -10   4    7.70    4.15   0
  -1  10   4   12.45    1.91   0
   1  10  -4   11.93    2.10   0
  -1  10   4   11.61    1.66   0
  -1 -10   4   12.37    2.14   0
   1 -10  -4   12.48    1.88   0
   0  10  -4   20.60    3.86   0
   0  10   4   46.17    4.09   0
   0  10   4   28.63    4.88   0
   0 -10  -4   31.51    4.00   0
   0 -10   4   24.65    3.94   0
  -1  10  -4   54.37    3.87   0
   1  10   4   44.86    4.99   0
   1  10   4   45.12    2.97   0
   1 -10   4   39.36    4.01   0
  -1 -10  -4   45.41    4.05   0
  -2  10  -4  237.02    4.60   0
   2  10   4  307.13    4.22   0
   2  10   4  239.62    5.47   0
  -2 -10  -4  309.38    4.36   0
   2 -10   4  252.40    4.77   0
   3  10   4  -10.76    2.97   0
   3  10   4    2.76    5.29   0
  -3  10  -4    7.77    4.17   0
  -3 -10  -4    8.18    3.74   0
   3 -10   4    4.31    4.02   0
  -4  10  -4    5.46    4.50   0
   4  10   4    7.66    3.90   0
   4  10   4    9.48    3.72   0
  -4 -10  -4   18.42    3.71   0
   4 -10   4   13.88    4.44   0
   5  10   4  140.36    5.62   0
   5  10   4  223.36    4.28   0
  -5  10  -4  149.77    4.99   0
   5 -10   4  171.35    5.20   0
  -5 -10  -4  208.37    4.16   0
  -6  11   4  215.96    6.38   0
   6  11  -4  203.46    3.76   0
  -6  11   4  307.33    4.99   0
  -6 -11   4  184.25    3.53   0
   6 -11  -4  302.86    5.11   0
  -5  11   4  252.07    5.67   0
  -5  11   4  449.84    5.08   0
   5  11  -4  393.92    4.82   0
   5 -11  -4  385.81    4.67   0
  -5 -11   4  262.86    3.59   0
  -4  11   4  167.90    5.24   0
  -4  11   4  159.09    3.33   0
   4  11  -4  235.55    4.75   0
  -4 -11   4  242.16    4.50   0
   4 -11  -4  251.50    4.55   0
  -3  11   4  569.44    6.60   0
  -3  11   4  735.23    5.16   0
   3  11  -4  645.31    5.44   0
  -3 -11   4  454.18    4.06   0
   3 -11  -4  604.76    4.99   0
   2  11  -4   20.73    3.10   0
  -2  11   4   13.78    4.88   0
  -2  11   4   59.49    3.82   0
   2 -11  -4   55.71    4.06   0
  -2 -11   4   34.54    3.06   0
   1  11  -4  160.38    4.15   0
  -1  11   4  192.17    4.29   0
  -1  11   4  135.60    5.17   0
  -1 -11   4  147.87    4.16   0
   1 -11  -4  183.55    4.17   0
   0  11  -4   93.06    4.10   0
   0  11   4  153.69    4.16   0
   0  11   4  104.89    4.80   0
   0 -11   4  128.82    4.34   0
   0 -11  -4  124.44    4.08   0
   1  11   4  469.57    4.96   0
  -1  11  -4  470.60    4.57   0
   1  11   4  470.91    5.44   0
   1 -11   4  471.24    5.01   0
  -1 -11  -4  470.93    4.40   0
  -2  11  -4  187.63    4.47   0
   2  11   4  151.96    3.10   0
   2  11   4  191.18    5.55   0
   2 -11   4  163.17    4.39   0
  -2 -11  -4  210.07    4.01   0
   3  11   4    7.91    2.23   0
  -3  11  -4    8.32    2.29   0
   3  11   4    8.13    2.44   0
  -3 -11  -4    7.63    1.98   0
   3 -11   4    8.25    2.10   0
   4  11   4   19.33    4.09   0
   4  11   4    0.47    4.12   0
  -4  11  -4    7.89    4.11   0
   4 -11   4    9.65    4.56   0
  -4 -11  -4   16.53    4.04   0
   4  12  -4   -4.44    3.21   0
  -4  12   4   -0.86    4.97   0
  -4  12   4   -4.88    3.85   0
  -4 -12   4    7.94    3.68   0
   4 -12  -4    9.92    3.73   0
  -3  12   4  250.37    4.38   0
  -3  12   4  210.35    5.97   0
   3  12  -4  168.58    3.56   0
  -3 -12   4  277.65    4.75   0
   3 -12  -4  186.58    3.22   0
   2  12  -4  271.49    4.77   0
  -2  12   4  194.93    5.28   0
  -2  12   4  280.62    4.55   0
   2 -12  -4  192.89    3.10   0
  -2 -12   4  243.03    4.74   0
   1  12  -4   51.44    4.18   0
  -1  12   4   22.59    3.99   0
  -1  12   4   19.78    4.68   0
  -1 -12   4   21.46    3.13   0
   1 -12  -4   38.05    3.78   0
   0  12  -4   27.62    4.20   0
   0  12   4   20.90    3.96   0
   0  12   4   41.64    4.88   0
   0 -12   4   37.42    4.17   0
   0 -12  -4   16.68    3.70   0
   1  12   4  103.84    4.08   0
   1  12   4  195.23    3.96   0
  -1  12  -4  195.64    4.28   0
   1 -12   4  194.25    4.68   0
  -1 -12  -4  192.14    3.97   0
  -2  12  -4  139.10    4.12   0
   2  12   4  185.15    4.57   0
   2  12   4   78.23    5.05   0
   2 -12   4  120.36    4.37   0
  -2 -12  -4  104.06    3.11   0
  11   0  -5  421.89    7.80   0
  11   0  -5  487.44    8.95   0
   9   0  -5   33.19    2.35   0
   9   0  -5   41.18    1.63   0
   7   0  -5   11.89    1.68   0
  -7   0   5  -11.65    2.09   0
   5   0  -5  650.87    6.25   0
  -5   0   5  654.20    6.47   0
   3   0  -5   95.36    5.37   0
  -3   0   5   75.99    5.22   0
   1   0  -5   28.86    2.50   0
  -1   0   5   33.49    2.71   0
   1   0   5  238.40    5.77   0
   3   0   5   87.49    4.32   0
  -3   0  -5   34.49    7.45   0
  -5   0  -5   76.32    5.32   0
  -7   0  -5  281.98    5.34   0
  -9   0  -5    0.98    4.75   0
  12   1  -5   85.11    8.99   0
  12   1  -5   54.41    6.49   0
  12  -1  -5   81.17    6.62   0
  12  -1  -5   47.39    5.86   0
  11   1  -5   -6.74    5.96   0
  11   1  -5   37.92    7.77   0
  11  -1  -5   15.36    6.05   0
  11  -1  -5   20.51    6.63   0
  10   1  -5  124.36    8.04   0
 -10   1   5   76.76    7.81   0
  10   1  -5   98.60    6.40   0
  10   1  -5  108.52    8.28   0
  10  -1  -5   97.40    7.15   0
   9   1   5   61.07    1.86   0
   9   1  -5   61.12    2.37   0
  -9   1   5   61.04    2.21   0
   9   1  -5   61.36    2.47   0
   9  -1  -5   61.03    2.49   0
   8   1  -5   36.83    7.68   0
  -8   1   5   27.95    5.14   0
   8   1  -5   13.19    9.15   0
   8  -1  -5   25.12    7.50   0
   7   1  -5   31.74    8.08   0
  -7   1   5   19.94    5.54   0
   7  -1  -5   12.12    5.09   0
  -7  -1   5    4.52    4.59   0
   7  -1  -5   12.09    4.68   0
   6   1  -5   26.31    9.01   0
  -6   1   5   36.68    7.96   0
   6  -1  -5   33.25    8.15   0
  -6  -1   5   10.21    6.73   0
   5   1  -5   97.64    6.85   0
  -5   1   5  119.87    8.85   0
   5  -1  -5  107.39    9.05   0
  -5  -1   5   93.67    6.97   0
  -4   1   5  554.88   10.77   0
   4   1  -5  532.91   11.79   0
   4  -1  -5  330.14    7.92   0
  -4  -1   5  488.76   11.73   0
  -3   1   5  781.64   11.08   0
   3   1  -5  618.53    4.55   0
   3  -1  -5  737.45    4.82   0
  -3  -1   5  533.06    9.86   0
  -2   1   5   61.09    6.89   0
   2   1  -5   89.87    3.71   0
   2  -1  -5   82.93    3.75   0
  -2  -1   5   67.72    3.85   0
  -1   1   5  918.04    8.13   0
   1   1  -5 1115.94   10.00   0
  -1  -1   5 1198.77   15.25   0
   1  -1  -5 1278.21   10.21   0
   0   1   5  283.77    3.99   0
   0  -1   5  284.33    4.36   0
   0  -1  -5  283.64    4.18   0
   1   1   5  232.29    4.16   0
   1  -1   5  257.66    4.54   0
  -2   1  -5   -0.39    8.54   0
   2   1   5    3.21    6.24   0
   3   1   5   10.71    2.24   0
  -3  -1  -5   10.70    1.51   0
  -3  -1  -5   10.79    1.61   0
   4   1   5    0.37    5.19   0
  -4  -1  -5    0.43    4.62   0
  -4  -1  -5    0.44    4.50   0
   5   1   5  187.27    8.09   0
  -5  -1  -5  237.03    5.73   0
  -6   1  -5  255.68    5.65   0
   6   1   5  214.86    3.70   0
   6   1   5  199.68    3.69   0
  -6  -1  -5  238.13    5.42   0
  -7   1  -5   56.62    4.62   0
  -7  -1  -5   50.30    4.79   0
  -8   1  -5  -26.48    4.40   0
  -8  -1  -5    4.19    4.26   0
   9   1   5    0.02    4.18   0
  11   2  -5   81.40    6.78   0
 -11   2   5   85.47    7.05   0
  11   2  -5   79.54    6.95   0
  11   2  -5  106.12    7.87   0
  11  -2  -5   64.69    6.32   0
  10   2  -5    7.40    2.06   0
  10   2  -5    7.23    2.35   0
 -10   2   5    7.29    2.29   0
  10   2  -5    6.75    1.92   0
  10  -2  -5    7.31    1.74   0
   9   2  -5  -17.43    4.74   0
   9   2  -5   12.66    4.21   0
  -9   2   5   14.53    7.03   0
   9   2  -5   -1.65    7.59   0
   9  -2  -5   15.76    5.17   0
  -8   2   5    9.89    6.91   0
   8   2  -5   -4.09    8.01   0
   8   2  -5   37.20    8.34   0
   8  -2  -5   17.49    6.96   0
   7   2  -5   12.88    5.83   0
  -7   2   5    1.95    7.73   0
   7   2  -5   24.87    5.47   0
   7  -2  -5   22.22    4.62   0
   6   2  -5   29.88    5.03   0
  -6   2   5   23.85    4.52   0
   6   2  -5   56.35    5.19   0
   6  -2  -5   43.78    5.00   0
  -5   2   5    9.53    4.85   0
   5   2  -5   -8.82    5.14   0
   5  -2  -5    5.89    3.65   0
   5  -2  -5   12.76    7.43   0
   4   2  -5 2958.72   13.56   0
  -4   2   5 1695.90    8.79   0
   4  -2  -5 2919.83   12.03   0
  -3   2   5  396.39    5.83   0
   3   2  -5  629.82    5.29   0
  -3  -2   5  420.79    7.64   0
   3  -2  -5  572.31    7.99   0
  -2   2   5  646.14    6.19   0
   2   2  -5  951.29    7.21   0
  -2  -2   5  622.36    8.22   0
   2  -2  -5  890.85    8.42   0
  -1   2   5 1015.70    8.18   0
   1   2  -5 1015.63    8.07   0
   1  -2  -5 1016.06    8.43   0
   0   2  -5 9999.99   11.91   0
   0  -2  -5 8594.78   12.21   0
  -1   2  -5  212.97    7.45   0
   1   2   5  257.48    6.36   0
  -1  -2  -5  257.36    6.15   0
  -1  -2  -5  290.40    6.49   0
  -2   2  -5  252.31    4.80   0
   2   2   5  292.30    6.11   0
  -2   2  -5  208.24    8.08   0
  -2  -2  -5  270.83    5.65   0
  -2  -2  -5  283.80    4.62   0
   3   2   5 1011.10    6.84   0
  -3  -2  -5 1010.66    5.64   0
   4   2   5   94.80    5.69   0
  -4  -2  -5   92.59    3.96   0
   5   2   5    6.59    5.83   0
  -5  -2  -5   14.49    5.43   0
  -5  -2  -5    1.64    6.00   0
   6   2   5    3.92    5.88   0
  -6  -2  -5   16.67    4.79   0
   7   2   5   17.14    9.93   0
  -7   2  -5   29.51    4.49   0
   7   2   5   10.34    6.56   0
  -7  -2  -5    6.65    4.42   0
  -8   2  -5   12.17    4.76   0
   8   2   5    4.33   14.96   0
   8   2   5    5.03    8.38   0
  -9   2  -5   12.75    4.47   0
  11   3  -5   10.71    4.94   0
 -11   3   5   19.39    6.26   0
  11   3  -5   16.20    6.53   0
  11   3  -5    6.01    5.81   0
  11  -3  -5   19.63    5.86   0
  10   3  -5  245.03    6.19   0
 -10   3   5  278.67    7.50   0
  10   3  -5  345.81    8.63   0
  10   3  -5  291.32    7.72   0
  10  -3  -5  165.33    5.35   0
   9   3  -5    3.87    6.95   0
   9   3  -5   31.00    7.17   0
   9   3  -5   13.59    5.11   0
  -9   3   5   16.32    7.06   0
   9  -3  -5    7.60    6.76   0
  -8   3   5   79.42    7.14   0
   8   3  -5   91.30    7.02   0
   8   3  -5   66.24    7.32   0
   8  -3  -5   66.06    6.71   0
  -7   3   5    2.58    5.68   0
   7   3  -5   -1.05    7.56   0
   7   3  -5   -9.61    7.00   0
   7  -3  -5    2.96    6.69   0
  -6   3   5   16.24    5.29   0
   6   3  -5    9.05    5.20   0
   6   3  -5   20.76    5.13   0
   6  -3  -5   16.99    6.71   0
   5   3  -5 1008.64    8.88   0
  -5   3   5  633.09    6.12   0
   5   3  -5 1092.55    9.01   0
   5  -3  -5  698.57    6.05   0
   4   3  -5  630.55    5.01   0
  -4   3   5  631.35    4.92   0
   4   3  -5  631.11    5.05   0
   4  -3  -5  631.13    5.15   0
   3   3  -5  616.24    5.19   0
  -3   3   5  597.20    6.73   0
   3   3  -5  572.11    7.80   0
   3  -3  -5  462.36    5.37   0
   3  -3  -5  584.13    7.03   0
   2   3  -5  517.21    8.22   0
  -2   3   5  518.31    6.41   0
   2   3  -5  363.19    5.66   0
   2  -3  -5  417.74    7.88   0
   2  -3  -5  460.81    6.32   0
   1   3  -5 5039.43   16.06   0
   1   3  -5 3124.31   10.49   0
  -1   3   5 5074.96   11.47   0
   1  -3  -5 5039.33   11.40   0
   1  -3  -5 4668.36   13.75   0
   0   3  -5   33.89    6.44   0
   0   3  -5   41.24    9.45   0
   0   3   5   21.07    3.69   0
   0  -3  -5   44.88    6.44   0
   0  -3  -5   22.20    3.77   0
   1   3   5  711.39    6.21   0
  -1   3  -5  505.28    7.03   0
  -1  -3  -5  597.20    5.85   0
  -1  -3  -5  795.34    7.22   0
   2   3   5   79.32    4.70   0
  -2   3  -5   62.45    6.37   0
  -2   3  -5   83.57    4.21   0
  -2  -3  -5   72.36    5.04   0
  -2  -3  -5   84.69    5.81   0
   3   3   5  579.06    5.63   0
  -3  -3  -5  664.56    6.09   0
  -3  -3  -5  523.65    5.33   0
   4   3   5    5.16    4.53   0
  -4  -3  -5    1.33    5.20   0
   5   3   5    4.26    5.48   0
  -5  -3  -5   -3.48    3.93   0
   6   3   5   39.02    5.16   0
  -6  -3  -5   18.92    4.95   0
   7   3   5    1.64    6.12   0
   7   3   5    6.91    5.33   0
   8   3   5   57.20    8.55   0
   8   3   5   49.18    5.99   0
  -8   3  -5   42.07    4.83   0
  11   4  -5   65.02    7.10   0
 -11   4   5   57.92    6.34   0
  11   4  -5   61.92    6.46   0
  11   4  -5   47.83    8.05   0
  11  -4  -5   55.82    5.68   0
  10   4  -5  112.84    5.54   0
  10   4  -5  160.40    7.03   0
 -10   4   5  119.49    7.17   0
  10   4  -5  153.11    7.07   0
  10  -4  -5  116.10    5.91   0
   9   4  -5   39.14    6.72   0
  -9   4   5   15.90    7.09   0
   9   4  -5   44.81    6.07   0
   9  -4  -5   26.45    5.58   0
  -8   4   5    0.84    1.75   0
   8   4  -5    0.82    1.84   0
   8   4  -5    0.79    1.78   0
   8  -4  -5    0.83    1.61   0
   7   4  -5   -2.35    6.43   0
  -7   4   5   -4.58    5.04   0
   7   4  -5   -0.45    6.65   0
   7  -4  -5   10.10    5.71   0
  -6   4   5  -10.99    6.63   0
   6   4  -5  -11.42    4.42   0
   6   4  -5   -6.01    6.06   0
   6  -4  -5   14.32    5.84   0
   5   4  -5   21.74    5.92   0
  -5   4   5   24.45    5.75   0
   5   4  -5   25.83    5.72   0
   5  -4  -5   30.10    5.64   0
  -4   4   5   -8.17    5.15   0
   4   4  -5    8.21    5.99   0
   4   4  -5    6.36    4.28   0
   4  -4  -5   17.18    5.18   0
   3   4  -5   25.17    2.43   0
   3   4  -5   25.29    2.14   0
  -3   4   5   25.30    1.52   0
   3  -4  -5   24.68    2.10   0
   2   4  -5   43.37    3.86   0
   2   4  -5   63.79    6.03   0
  -2   4   5   70.08    4.90   0
   2  -4  -5   64.89    5.12   0
   1   4  -5  786.05    8.00   0
   1   4  -5  465.76    5.09   0
  -1   4   5  830.70    6.08   0
   1  -4  -5  837.98    6.25   0
   1  -4  -5  559.41    6.27   0
   0   4  -5   57.01    6.90   0
   0   4   5   47.91    4.59   0
   0   4  -5   43.82    5.53   0
   0  -4  -5   33.75    3.32   0
   0  -4  -5   47.46    5.83   0
   1   4   5  104.68    4.71   0
  -1   4  -5  106.28    5.93   0
  -1  -4  -5  100.85    5.12   0
  -1  -4  -5  104.83    5.84   0
   2   4   5   95.09    4.68   0
  -2   4  -5   58.90    5.17   0
  -2  -4  -5   74.86    5.35   0
  -2  -4  -5   75.09    4.75   0
  -3   4  -5  389.61   18.23   0
  -3   4  -5  202.95    7.10   0
   3   4   5  347.75    5.03   0
  -3  -4  -5  282.48    4.39   0
  -3  -4  -5  314.02    4.79   0
   4   4   5   10.00    4.54   0
  -4  -4  -5    3.37    4.23   0
  -4  -4  -5   16.92    5.78   0
   5   4   5   51.19    4.57   0
  -5  -4  -5   46.42    4.53   0
   6   4   5    0.65    4.28   0
  -6  -4  -5    2.07    4.38   0
   7   4   5   70.59    4.55   0
   8   4   5  171.12    5.76   0
  -8   4  -5  134.47    5.02   0
   8   4   5  160.27    7.12   0
  11   5  -5   12.25    6.59   0
  11   5  -5    5.42    6.50   0
 -11   5   5   -5.30    5.77   0
  11   5  -5    9.58    6.24   0
  11  -5  -5   -6.41    5.51   0
  10   5  -5   33.53    6.16   0
 -10   5   5   10.75    6.85   0
  10   5  -5   -1.39    6.45   0
  10   5  -5    2.31    6.09   0
  10  -5  -5   -3.93    5.16   0
  -9   5   5   -2.99    7.30   0
   9   5  -5   18.84    4.45   0
   9   5  -5   17.69    5.62   0
   9  -5  -5    1.54    5.46   0
  -8   5   5  110.43    5.47   0
   8   5  -5  194.08    6.15   0
   8   5  -5  194.27    6.30   0
   8  -5  -5  114.98    4.31   0
   7   5  -5   47.30    2.73   0
  -7   5   5   46.80    3.48   0
   7   5  -5   47.29    2.90   0
   7  -5  -5   46.94    2.73   0
  -6   5   5  134.60    5.89   0
   6   5  -5  150.02    6.33   0
   6   5  -5  101.69    4.58   0
   6  -5  -5  133.42    5.60   0
  -5   5   5  260.41    5.89   0
   5   5  -5  204.73    4.25   0
   5   5  -5  294.40    5.96   0
   5  -5  -5  272.34    5.82   0
   4   5  -5   -8.91    4.94   0
   4   5  -5   -2.85    5.11   0
  -4   5   5    1.44    4.78   0
   4  -5  -5   19.07    4.82   0
   3   5  -5  396.13    5.67   0
  -3   5   5  427.01    5.37   0
   3  -5  -5  288.59    4.03   0
  -2   5   5  268.69    6.11   0
  -2   5   5  328.64    4.96   0
   2   5  -5  316.57    5.71   0
   2  -5  -5  327.85    5.32   0
  -2  -5   5  326.57    6.01   0
   1   5  -5  271.88    5.55   0
  -1   5   5  283.10    6.00   0
  -1   5   5  317.68    5.03   0
  -1  -5   5  274.84    6.02   0
   1  -5  -5  214.81    3.74   0
   0   5  -5    4.81    4.67   0
   0   5   5    4.94    3.27   0
   0   5   5    5.31    5.53   0
   0  -5  -5    5.08    4.79   0
   0  -5   5    5.42    5.54   0
  -1   5  -5   15.42    4.44   0
   1   5   5    6.44    5.23   0
   1   5   5   -0.29    3.26   0
  -1  -5  -5    7.63    4.66   0
   1  -5   5    2.08    5.24   0
   2   5   5  167.84    4.48   0
   2   5   5  136.95    3.98   0
  -2   5  -5  126.42    5.43   0
   2  -5   5  163.84    6.82   0
  -2  -5  -5  167.39    4.71   0
   3   5   5   23.53    4.24   0
  -3   5  -5    9.87    5.49   0
  -3  -5  -5   12.51    2.98   0
  -4   5  -5   41.42    4.73   0
   4   5   5   41.38    4.38   0
  -4   5  -5   32.64    7.21   0
  -4  -5  -5   40.90    4.13   0
   5   5   5   68.37    4.41   0
  -5  -5  -5   67.96    4.12   0
   6   5   5   15.60    4.31   0
  -6  -5  -5   -4.19    4.11   0
   7   5   5    6.12    1.62   0
  -7  -5  -5    6.01    1.83   0
   8   5   5  257.10    5.37   0
  10   6  -5   17.97    6.01   0
 -10   6   5   33.07    4.93   0
  10   6  -5   20.96    5.13   0
  10   6  -5    7.11    6.02   0
  10  -6  -5    9.29    5.16   0
   9   6  -5   17.75    5.35   0
  -9   6   5   -3.48    5.11   0
   9   6  -5   21.94    5.72   0
   9  -6  -5    7.63    4.81   0
   8   6  -5   -5.65    5.54   0
  -8   6   5    3.50    6.25   0
   8   6  -5   14.88    3.75   0
   8  -6  -5   12.23    5.19   0
  -7   6   5  137.35    6.04   0
   7   6  -5  125.88    5.53   0
   7   6  -5  119.46    5.39   0
   7  -6  -5  135.60    5.56   0
  -6   6   5  305.51    5.73   0
   6   6  -5  360.55    6.19   0
   6   6  -5  371.32    6.40   0
   6  -6  -5  342.91    5.91   0
  -5   6   5  141.79    3.84   0
   5   6  -5  219.48    5.84   0
   5   6  -5  214.02    5.63   0
   5  -6  -5  203.63    5.39   0
   4   6  -5    0.27    4.76   0
  -4   6   5   -7.06    5.92   0
  -4   6   5   -1.21    4.77   0
   4  -6  -5    1.47    3.44   0
   3   6  -5 1668.83    7.40   0
  -3   6   5 1223.41    7.50   0
  -3   6   5 1745.21    6.70   0
  -3  -6   5 1171.97    5.81   0
   3  -6  -5 1703.99    6.90   0
   2   6  -5  164.59    5.33   0
  -2   6   5  133.49    5.02   0
  -2   6   5  173.48    4.55   0
  -2  -6   5  115.28    3.99   0
   2  -6  -5  176.72    4.66   0
  -1   6   5  129.70    4.05   0
   1   6  -5  167.46    4.96   0
  -1   6   5  142.26    3.39   0
   1  -6  -5  220.30    4.77   0
  -1  -6   5  177.59    5.18   0
   0   6   5   15.40    5.28   0
   0   6  -5    5.39    4.57   0
   0   6   5    3.84    4.24   0
   0  -6   5    7.42    3.50   0
   0  -6  -5    6.61    4.24   0
   1   6   5  298.01    4.47   0
   1   6   5  407.75    5.12   0
  -1   6  -5  308.98    4.96   0
   1  -6   5  351.19    5.63   0
  -1  -6  -5  405.63    5.09   0
  -2   6  -5  107.77    5.43   0
   2   6   5  140.57    4.52   0
   2   6   5  133.69    5.88   0
  -2  -6  -5  108.96    4.44   0
   2  -6   5  104.82    5.44   0
  -3   6  -5  279.98    6.28   0
   3   6   5  280.41    5.22   0
   3   6   5  279.86    6.91   0
   3  -6   5  279.68    6.81   0
  -3  -6  -5  280.04    5.01   0
  -4   6  -5  120.02    5.64   0
   4   6   5  189.50    4.76   0
  -4  -6  -5  156.42    4.35   0
   5   6   5   21.89    4.00   0
  -5   6  -5   16.97    8.73   0
  -5   6  -5   18.24   13.39   0
  -5  -6  -5   11.51    4.00   0
   6   6   5    6.70    4.00   0
  -6  -6  -5   26.05    4.38   0
   7   6   5   59.74    4.41   0
  -7  -6  -5   53.82    4.63   0
 -10   7   5   -1.60    7.33   0
  10   7  -5    2.70    5.67   0
  10   7  -5   26.95    7.79   0
  10   7  -5  -16.23    5.79   0
  10  -7  -5   21.76    5.03   0
  -9   7   5   67.71    6.52   0
   9   7  -5   67.98    5.64   0
   9   7  -5   74.92    4.97   0
   9  -7  -5   49.78    4.79   0
  -8   7   5   30.47    5.19   0
   8   7  -5   -6.98    4.99   0
   8   7  -5   -2.64    5.20   0
   8  -7  -5   10.59    4.34   0
  -7   7   5   27.70    4.70   0
   7   7  -5    2.45    4.90   0
   7   7  -5   -3.70    3.39   0
   7  -7  -5    1.86    4.69   0
  -6   7   5   49.83    4.59   0
   6   7  -5   36.80    4.64   0
   6   7  -5   27.86    4.60   0
   6  -7  -5   27.78    4.55   0
  -5   7   5   57.36    5.85   0
   5   7  -5  109.32    5.36   0
  -5   7   5   49.83    3.60   0
   5  -7  -5   95.16    5.08   0
   4   7  -5  297.68    5.90   0
  -4   7   5  172.30    5.71   0
  -4   7   5  327.22    5.37   0
   4  -7  -5  198.71    3.93   0
  -4  -7   5  205.61    4.24   0
   3   7  -5  100.25    5.22   0
  -3   7   5   55.62    5.31   0
  -3   7   5   90.43    4.92   0
  -3  -7   5   79.56    5.20   0
   3  -7  -5   86.21    4.84   0
   2   7  -5 2451.72    7.81   0
  -2   7   5 2190.02    8.45   0
  -2   7   5 2693.37    7.57   0
   2  -7  -5 1740.30    5.88   0
  -2  -7   5 2290.86    7.96   0
  -1   7   5   64.35    3.65   0
   1   7  -5  103.69    4.71   0
  -1   7   5  114.23    4.56   0
   1  -7  -5  116.32    4.61   0
  -1  -7   5   95.37    4.90   0
   0   7   5   21.15    1.63   0
   0   7   5   20.90    1.64   0
   0   7  -5   20.90    2.19   0
   0  -7  -5   20.52    1.71   0
   0  -7   5   20.64    1.68   0
   1   7   5    1.25    4.55   0
   1   7   5    5.66    5.29   0
  -1   7  -5   -0.92    4.55   0
  -1  -7  -5    0.14    3.31   0
   1  -7   5    9.76    4.76   0
  -2   7  -5 1548.09    7.06   0
   2   7   5 2290.32    6.87   0
   2   7   5 1743.84    6.84   0
   2  -7   5 1984.81    8.44   0
  -2  -7  -5 2225.22    6.74   0
   3   7   5  296.01    5.51   0
  -3   7  -5  279.52    5.71   0
   3   7   5  347.96    4.66   0
   3  -7   5  336.17    6.57   0
  -3  -7  -5  287.65    4.49   0
   4   7   5  137.17    4.48   0
  -4   7  -5  136.62    3.66   0
   4   7   5  136.76    3.63   0
  -4  -7  -5  136.77    4.30   0
   4  -7   5  137.08    4.48   0
   5   7   5   50.59    3.88   0
  -5   7  -5   40.79    6.58   0
  -5  -7  -5   64.48    3.78   0
   6   7   5   93.54    4.34   0
  -6  -7  -5   85.51    4.04   0
   7   7   5   46.39    4.26   0
  -7  -7  -5   32.47    4.40   0
  -9   8   5    0.39    6.03   0
   9   8  -5    0.36    5.43   0
   9   8  -5    0.42    5.06   0
   9  -8  -5    0.38    4.49   0
  -8   8   5   41.58    3.98   0
   8   8  -5   87.64    4.83   0
   8   8  -5   86.57    4.71   0
   8  -8  -5   91.66    4.64   0
   7   8  -5  109.64    3.59   0
  -7   8   5   91.73    3.70   0
   7   8  -5  136.38    5.30   0
   7  -8  -5  148.81    4.81   0
  -6   8   5  123.77    4.45   0
   6   8  -5  121.39    4.92   0
   6  -8  -5  109.42    4.68   0
   5   8  -5   -4.40    4.64   0
  -5   8   5    3.41    4.68   0
  -5   8   5   11.45    4.42   0
   5  -8  -5    3.87    3.99   0
  -5  -8   5    6.40    4.27   0
   4   8  -5   34.28    4.59   0
  -4   8   5   16.93    5.77   0
  -4   8   5   13.02    4.57   0
  -4  -8   5   20.36    3.36   0
   4  -8  -5   42.62    4.52   0
   3   8  -5  462.68    4.38   0
  -3   8   5  761.20    5.68   0
  -3   8   5  579.65    6.18   0
   3  -8  -5  653.36    5.63   0
  -3  -8   5  688.47    5.88   0
   2   8  -5   37.63    3.43   0
  -2   8   5   38.01    3.03   0
  -2   8   5   38.33    2.78   0
   2  -8  -5   38.10    3.41   0
  -2  -8   5   37.75    2.89   0
  -1   8   5   85.72    3.64   0
  -1   8   5  138.63    4.76   0
   1   8  -5  102.25    4.45   0
   1  -8  -5  126.15    4.84   0
  -1  -8   5  117.85    4.64   0
   0   8   5   54.21    3.22   0
   0   8   5   43.50    3.72   0
   0   8  -5   51.49    4.18   0
   0  -8   5   72.47    4.57   0
   0  -8  -5   39.19    3.27   0
  -1   8  -5  431.22    4.92   0
   1   8   5  533.94    5.95   0
   1   8   5  402.12    3.71   0
  -1  -8  -5  360.08    3.63   0
   1  -8   5  482.97    5.10   0
  -2   8  -5   18.50    4.20   0
   2   8   5   20.45    4.15   0
   2   8   5    4.46    5.05   0
  -2  -8  -5   26.93    3.73   0
   2  -8   5   19.08    4.52   0
   3   8   5    5.55    5.09   0
  -3   8  -5    6.25    4.24   0
   3   8   5    6.47    2.97   0
  -3  -8  -5    5.92    2.92   0
   3  -8   5    6.01    4.67   0
   4   8   5  120.72    5.00   0
   4   8   5  146.22    4.12   0
  -4   8  -5  102.61    5.37   0
  -4  -8  -5  143.52    3.93   0
   4  -8   5  115.52    5.94   0
   5   8   5   -3.99    3.90   0
   5   8   5    9.33    4.86   0
  -5   8  -5   -4.62    6.02   0
  -5  -8  -5    7.93    3.77   0
   5  -8   5   -5.88    6.66   0
  -6   8  -5   13.48    7.78   0
   6   8   5   19.58    3.81   0
  -6   8  -5   15.70    9.43   0
  -6  -8  -5   13.19    4.06   0
  -8   9   5    2.71    2.32   0
   8   9  -5    2.95    1.60   0
   8   9  -5    3.09    1.57   0
   8  -9  -5    2.88    1.77   0
  -7   9   5   26.30    4.52   0
   7   9  -5   26.59    3.34   0
   7   9  -5   19.90    4.52   0
   7  -9  -5   26.40    4.27   0
   6   9  -5   19.30    4.35   0
  -6   9   5   13.76    5.42   0
  -6   9   5   23.42    4.56   0
   6  -9  -5   37.51    4.04   0
  -5   9   5    1.47    5.63   0
   5   9  -5   -5.42    3.20   0
  -5   9   5    0.70    2.97   0
   5  -9  -5    3.12    4.27   0
  -5  -9   5  -28.51    4.41   0
  -4   9   5   54.71    4.74   0
   4   9  -5   83.05    4.42   0
  -4   9   5   80.47    4.27   0
   4  -9  -5   60.04    4.40   0
  -4  -9   5   47.43    3.36   0
  -3   9   5   44.44    4.79   0
  -3   9   5   63.44    4.20   0
   3   9  -5   55.58    4.47   0
   3  -9  -5   29.05    2.93   0
  -3  -9   5   64.06    4.49   0
  -2   9   5  243.11    5.00   0
  -2   9   5  300.35    4.58   0
   2   9  -5  278.14    4.63   0
   2  -9  -5  195.38    3.32   0
  -2  -9   5  261.65    4.80   0
  -1   9   5  316.38    5.39   0
  -1   9   5  237.12    3.33   0
   1   9  -5  346.31    4.78   0
  -1  -9   5  221.81    3.62   0
   1  -9  -5  366.64    4.52   0
   0   9  -5    6.53    4.07   0
   0   9   5   -5.04    2.85   0
   0   9   5   10.42    4.57   0
   0  -9   5   14.64    4.40   0
   0  -9  -5   25.51    4.00   0
  -1   9  -5    0.26    1.96   0
   1   9   5    0.29    1.75   0
   1   9   5    0.32    1.80   0
  -1  -9  -5    0.34    1.86   0
   1  -9   5    0.32    2.14   0
  -2   9  -5  146.39    4.59   0
   2   9   5  132.87    3.13   0
   2   9   5  143.07    5.08   0
  -2  -9  -5  198.93    4.25   0
   2  -9   5  171.78    4.60   0
   3   9   5   26.89    4.28   0
  -3   9  -5   31.40    4.71   0
   3   9   5   46.09    4.79   0
  -3  -9  -5   42.84    3.80   0
   3  -9   5   46.78    4.64   0
   4   9   5    6.20    4.26   0
  -4   9  -5    1.17    4.42   0
   4   9   5   -2.71    4.97   0
  -4  -9  -5   -1.63    3.81   0
   4  -9   5   -0.48    4.79   0
   5   9   5   13.55    3.84   0
   5   9   5   13.14    3.83   0
  -5   9  -5   11.96    5.42   0
   5  -9   5    5.05    5.92   0
  -5  -9  -5    2.60    3.80   0
  -7  10   5    4.98    1.83   0
   7  10  -5    4.82    2.23   0
   7 -10  -5    4.74    2.46   0
   6  10  -5   69.60    4.67   0
  -6  10   5   56.50    5.56   0
  -6  10   5   41.04    3.35   0
   6 -10  -5   85.53    4.56   0
  -6 -10   5   81.24    4.16   0
  -5  10   5   39.26    4.80   0
   5  10  -5   57.73    4.51   0
  -5  10   5   47.00    3.26   0
   5 -10  -5   38.43    3.15   0
  -5 -10   5   61.43    4.44   0
  -4  10   5   13.76    4.59   0
   4  10  -5   21.07    3.13   0
  -4  10   5   40.36    4.21   0
   4 -10  -5   29.85    2.94   0
  -4 -10   5    1.87    4.11   0
  -3  10   5   14.68    4.68   0
  -3  10   5    3.54    3.93   0
   3  10  -5   16.02    3.00   0
  -3 -10   5   15.93    3.02   0
   3 -10  -5   10.11    3.81   0
  -2  10   5  151.14    5.23   0
  -2  10   5  199.39    4.40   0
   2  10  -5  179.68    4.28   0
  -2 -10   5  112.64    3.27   0
   2 -10  -5  117.23    3.15   0
  -1  10   5  103.48    4.90   0
  -1  10   5   83.61    3.00   0
   1  10  -5  120.63    4.32   0
  -1 -10   5   97.84    4.41   0
   1 -10  -5  102.22    3.80   0
   0  10  -5   79.86    4.05   0
   0  10   5   80.14    2.87   0
   0  10   5   79.59    2.86   0
   0 -10   5   80.31    3.45   0
   0 -10  -5   80.00    3.06   0
  -1  10  -5   24.51    4.21   0
   1  10   5   36.11    3.81   0
   1  10   5   26.64    4.79   0
  -1 -10  -5   29.08    4.06   0
   1 -10   5   30.78    4.43   0
   2  10   5   13.22    5.11   0
  -2  10  -5   22.88    3.96   0
   2  10   5   40.79    3.75   0
   2 -10   5   22.57    4.50   0
  -2 -10  -5   18.67    2.84   0
  -3  10  -5   33.03    4.22   0
   3  10   5   37.71    4.01   0
   3  10   5   22.14    5.11   0
  -3 -10  -5   29.94    3.98   0
   3 -10   5   26.37    4.46   0
  -4  10  -5   -6.40    4.62   0
   4  10   5   -3.44    4.13   0
   4  10   5  -18.02    4.81   0
  -4 -10  -5   15.00    4.04   0
   4 -10   5    4.12    5.67   0
  -6  11   5   92.01    2.60   0
   6  11  -5   92.48    2.58   0
  -6  11   5   91.53    3.28   0
   6 -11  -5   91.51    3.12   0
  -6 -11   5   92.41    3.06   0
  -5  11   5  141.60    5.19   0
   5  11  -5  211.16    4.98   0
  -5  11   5  244.77    4.92   0
  -5 -11   5  179.25    4.28   0
   5 -11  -5  210.13    4.81   0
  -4  11   5   31.89    4.76   0
  -4  11   5   40.77    4.15   0
   4  11  -5   11.58    3.24   0
  -4 -11   5   31.36    2.96   0
   4 -11  -5   26.50    3.15   0
  -3  11   5   22.42    4.79   0
  -3  11   5   53.20    3.97   0
   3  11  -5   36.70    3.17   0
  -3 -11   5   55.19    4.20   0
   3 -11  -5   30.76    2.92   0
  -2  11   5  212.03    5.24   0
  -2  11   5  303.06    4.41   0
   2  11  -5  258.13    4.46   0
  -2 -11   5  185.49    3.48   0
   2 -11  -5  286.46    4.39   0
   1  11  -5 1025.14    5.63   0
  -1  11   5  900.70    6.81   0
  -1  11   5 1197.39    5.53   0
  -1 -11   5 1078.00    6.17   0
   1 -11  -5 1105.34    5.33   0
   0  11   5   69.03    3.80   0
   0  11  -5   56.41    4.28   0
   0  11   5   57.92    5.07   0
   0 -11  -5   76.25    3.73   0
   0 -11   5   44.49    4.46   0
  -1  11  -5  363.63    4.83   0
   1  11   5  464.46    4.71   0
   1  11   5  343.80    5.73   0
  -1 -11  -5  390.93    4.57   0
   1 -11   5  256.95    3.81   0
  -2  11  -5  141.58    4.51   0
   2  11   5  176.13    4.53   0
   2  11   5  136.46    5.59   0
  -2 -11  -5  160.55    3.96   0
   2 -11   5  163.71    4.49   0
   3  11   5   67.13    4.16   0
  -3  11  -5   38.57    4.45   0
   3  11   5   54.34    4.80   0
  -3 -11  -5   57.71    4.11   0
   3 -11   5   46.88    4.62   0
   3  12  -5   56.58    3.28   0
  -3  12   5   73.40    4.67   0
  -3  12   5  139.20    4.58   0
  -3 -12   5   70.29    3.26   0
   3 -12  -5  129.12    3.84   0
   2  12  -5   41.43    4.33   0
  -2  12   5   21.29    4.39   0
  -2  12   5   23.78    2.96   0
  -2 -12   5   33.60    4.33   0
   2 -12  -5   12.21    2.77   0
   1  12  -5  186.21    4.28   0
  -1  12   5  136.04    5.35   0
  -1  12   5  145.47    4.05   0
  -1 -12   5  107.31    3.47   0
   1 -12  -5  176.80    3.99   0
   0  12  -5  422.04    4.74   0
   0  12   5  456.94    4.83   0
   0  12   5  321.08    6.04   0
   0 -12  -5  439.24    4.52   0
   0 -12   5  327.45    4.85   0
  12   0  -6  603.44    7.73   0
  12   0  -6  684.17    8.91   0
  10   0  -6   21.24    5.91   0
  -8   0   6 1034.84   10.29   0
   8   0  -6  721.29    7.53   0
   8   0  -6  822.06   12.90   0
   6   0  -6  105.48    6.30   0
  -6   0   6  125.74    5.74   0
   4   0  -6  209.83   10.01   0
  -4   0   6  132.60    6.51   0
   2   0  -6   23.34   11.90   0
  -2   0   6   17.92    7.47   0
   0   0   6   16.90   13.63   0
   0   0  -6   69.84    7.89   0
   2   0   6  753.55    6.81   0
  -2   0  -6  465.07    7.00   0
  -6   0  -6    3.48    4.40   0
  -8   0  -6   19.96    3.44   0
  12   1  -6  130.72    6.34   0
  12   1  -6  133.32    7.96   0
  12  -1  -6   81.23    6.64   0
  12  -1  -6  100.53    5.98   0
  11   1  -6  395.19    3.79   0
  11   1  -6  394.76    4.42   0
  11  -1  -6  394.89    4.39   0
  10   1  -6   -4.48    6.43   0
  10   1  -6    8.06    5.62   0
 -10   1   6  -12.48    6.00   0
  10   1  -6   15.40    7.64   0
  10  -1  -6   11.67    6.27   0
   9   1  -6   31.07    7.97   0
   9   1  -6   39.72    6.57   0
  -9   1   6   51.98    6.98   0
   9   1  -6   30.43    8.49   0
   9  -1  -6   14.17    7.20   0
   8   1  -6  385.04    5.52   0
  -8   1   6  384.76    6.23   0
   8  -1  -6  385.22    5.11   0
   8  -1  -6  385.15    5.60   0
   7   1  -6  183.95    8.01   0
  -7   1   6  189.41    8.16   0
   7  -1  -6  156.19    8.44   0
  -7  -1   6  127.38    6.78   0
  -6   1   6   -1.52    7.40   0
   6   1  -6   13.80    5.99   0
   6  -1  -6   -9.56    8.14   0
  -6  -1   6   28.39    6.25   0
  -5   1   6   43.86    5.85   0
   5   1  -6   50.23    9.26   0
   5  -1  -6   32.75    6.25   0
  -5  -1   6   83.06    8.98   0
  -4   1   6   34.46    8.76   0
   4   1  -6   25.17    9.83   0
   4  -1  -6   26.63    8.99   0
  -4  -1   6   47.71    9.24   0
  -3   1   6  296.91    9.42   0
   3   1  -6  289.34    8.22   0
   3  -1  -6  269.63    9.56   0
  -3  -1   6  281.16    7.95   0
  -2   1   6  523.97    9.19   0
   2   1  -6  476.54    7.55   0
  -2  -1   6  495.34    7.53   0
   2  -1  -6  376.89    6.62   0
  -1   1   6   40.88    5.11   0
   1   1  -6   41.15    5.20   0
  -1  -1   6   40.65    5.26   0
   1  -1  -6   39.59    5.39   0
   0   1  -6  655.10   13.06   0
   0   1   6  721.88    8.57   0
   0  -1   6  708.77   14.04   0
   0  -1  -6  565.65    7.11   0
   1   1   6    0.93    7.97   0
  -1  -1  -6    0.61    5.56   0
   1  -1   6    0.70    9.93   0
   2   1   6  231.24    7.59   0
  -2   1  -6  134.02    6.74   0
   2  -1   6  218.65    3.11   0
   3   1   6  344.67    8.36   0
  -3  -1  -6  353.32    6.18   0
  -3  -1  -6  240.49    5.99   0
   4   1   6  340.28    9.02   0
  -4  -1  -6  407.35    6.39   0
  -4  -1  -6  290.58    7.07   0
   5   1   6   11.42    1.68   0
  -5  -1  -6   19.27    5.38   0
  -6   1  -6    4.32    4.97   0
  -6  -1  -6   31.62    4.45   0
  -7   1  -6  113.38    4.79   0
  -7  -1  -6   97.36    3.59   0
  -8   1  -6    1.13    3.49   0
  -8  -1  -6    1.87    3.30   0
  11   2  -6   89.09    3.00   0
 -11   2   6   89.24    3.29   0
  11   2  -6   89.12    3.02   0
  11   2  -6   89.07    3.23   0
  11  -2  -6   88.96    3.46   0
  10   2  -6   24.30    4.75   0
  10   2  -6   43.40    7.91   0
 -10   2   6   39.21    6.17   0
  10   2  -6   38.09    7.76   0
  10  -2  -6   21.02    4.72   0
   9   2  -6   46.12    6.53   0
  -9   2   6   40.95    7.03   0
   9   2  -6   54.11    7.75   0
   9  -2  -6   51.52    7.22   0
   8   2  -6   11.61    2.49   0
   8   2  -6   12.03    1.96   0
  -8   2   6   11.94    1.85   0
   8  -2  -6   12.17    1.52   0
   7   2  -6   15.65    5.85   0
   7   2  -6   36.00    7.91   0
  -7   2   6   21.51    7.40   0
   7  -2  -6   34.07    7.81   0
  -6   2   6   30.11    5.91   0
   6   2  -6   32.96    7.94   0
   6  -2  -6   42.08    8.07   0
   6  -2  -6   15.28   13.13   0
  -5   2   6   83.66    3.48   0
   5   2  -6   84.13    2.60   0
  -5  -2   6   83.84    3.15   0
   5  -2  -6   84.26    2.50   0
  -4   2   6  560.76    6.21   0
   4   2  -6  785.29    7.23   0
  -4  -2   6  666.31    9.82   0
   4  -2  -6  521.76    6.28   0
  -3   2   6   93.91    6.53   0
   3   2  -6   90.87    9.85   0
  -3  -2   6  107.79    8.97   0
   3  -2  -6  107.03    6.98   0
  -2   2   6  905.04    7.87   0
   2   2  -6  713.70    9.69   0
  -2  -2   6  829.64    6.49   0
   2  -2  -6  900.48    7.93   0
  -1   2   6 2726.20    9.98   0
   1   2  -6 2730.17   18.99   0
  -1  -2   6 1852.70   10.39   0
   1  -2  -6 2670.75    9.78   0
   0   2   6 2132.68    9.54   0
   0   2  -6 1731.03   21.18   0
   0  -2  -6 1792.75    8.58   0
  -1   2  -6  617.61    9.56   0
   1   2   6  623.74    6.94   0
  -1  -2  -6  516.60    6.27   0
  -1  -2  -6  606.91    6.96   0
  -2   2  -6 1193.27    6.82   0
   2   2   6 1494.09    8.28   0
  -2   2  -6 1157.29    6.79   0
  -2  -2  -6 1234.50    6.99   0
  -2  -2  -6 1511.73    8.24   0
   3   2   6 1325.16    8.10   0
  -3  -2  -6 1690.60    7.88   0
   4   2   6  293.31    6.77   0
  -4  -2  -6  236.25    5.95   0
  -4  -2  -6  316.59    6.41   0
   5   2   6  490.08    7.41   0
  -5  -2  -6  452.04    6.67   0
  -5  -2  -6  620.57    6.21   0
   6   2   6   18.45    7.16   0
  -6  -2  -6   28.13    3.41   0
   7   2   6   15.53    4.35   0
  -7   2  -6    2.26    4.53   0
   7   2   6   14.41    9.83   0
  -7  -2  -6   33.97    4.78   0
  -8   2  -6   -2.50    4.49   0
  -8  -2  -6    4.99    4.23   0
  11   3  -6   52.26    5.01   0
  11   3  -6   83.31    8.36   0
 -11   3   6   49.86    5.74   0
  11   3  -6   61.99    6.66   0
  11  -3  -6   81.24    6.46   0
  10   3  -6   72.73    7.43   0
  10   3  -6  101.05    6.73   0
 -10   3   6   80.92    6.60   0
  10   3  -6  134.32    7.99   0
  10  -3  -6   90.39    6.16   0
   9   3  -6    6.23    2.38   0
  -9   3   6    6.43    1.52   0
   9   3  -6    5.74    1.78   0
   9  -3  -6    6.30    1.79   0
   8   3  -6    9.71    5.21   0
   8   3  -6    6.97    7.24   0
  -8   3   6   17.37    6.83   0
   8  -3  -6    9.81    6.68   0
   7   3  -6  319.07    8.40   0
   7   3  -6  338.47    8.43   0
  -7   3   6  321.83    8.71   0
   7  -3  -6  245.62    7.16   0
  -6   3   6   30.17    7.34   0
   6   3  -6   20.35    7.33   0
   6   3  -6   10.43    5.28   0
   6  -3  -6    3.70    4.91   0
  -5   3   6   20.90    4.62   0
   5   3  -6   60.76    7.42   0
   5   3  -6   39.67    5.25   0
   5  -3  -6   59.62    6.49   0
  -4   3   6   61.05    6.14   0
   4   3  -6   57.32    7.63   0
   4   3  -6   71.35    7.99   0
   4  -3  -6   19.25    6.98   0
   4  -3  -6   45.61    4.60   0
  -3   3   6  761.46    6.77   0
   3   3  -6  745.07    8.31   0
   3   3  -6  762.05    9.20   0
   3  -3  -6  665.86    9.86   0
   3  -3  -6  526.75    5.22   0
  -2   3   6  423.65    6.01   0
   2   3  -6  416.36    8.87   0
   2   3  -6  304.67    5.37   0
   2  -3  -6  366.67    7.95   0
   2  -3  -6  277.08    4.39   0
   1   3  -6  582.33    8.08   0
   1   3  -6  688.28   11.21   0
  -1   3   6  671.13    6.17   0
   1  -3  -6  599.75    6.12   0
   1  -3  -6  585.68    7.64   0
   0   3  -6 1982.73   15.85   0
   0   3  -6 1641.24    9.50   0
   0   3   6 1944.37    8.36   0
   0  -3  -6 1864.25    8.09   0
   0  -3  -6 1882.19    9.06   0
  -1   3  -6  433.83    6.31   0
   1   3   6  629.30    6.15   0
  -1  -3  -6  597.43    5.62   0
  -1  -3  -6  486.64    5.24   0
  -2   3  -6  173.51   17.48   0
  -2   3  -6   96.19    5.77   0
   2   3   6  159.46    4.98   0
  -2  -3  -6  143.55    4.80   0
  -2  -3  -6  116.45    4.09   0
   3   3   6  342.77    5.42   0
  -3  -3  -6  303.53    4.33   0
  -3  -3  -6  287.31    4.93   0
   4   3   6  963.57    7.08   0
  -4  -3  -6 1209.01    7.37   0
   5   3   6    3.06    5.37   0
  -5  -3  -6   11.07    3.59   0
   6   3   6   20.44    5.55   0
  -6  -3  -6   11.73    5.27   0
  -6  -3  -6   24.28    4.52   0
   7   3   6    7.83    6.79   0
   7   3   6    7.52    5.40   0
  -7  -3  -6    8.09    4.88   0
   8   3   6   18.59   10.66   0
  -8   3  -6    9.87    4.72   0
   8   3   6   14.42    7.83   0
  11   4  -6  145.07    7.29   0
 -11   4   6  131.38    6.63   0
  11   4  -6  103.95    6.73   0
  11   4  -6  120.20    8.10   0
  11  -4  -6  102.17    6.29   0
  10   4  -6  138.41    7.29   0
 -10   4   6  167.71    6.87   0
  10   4  -6  132.43    7.30   0
  10   4  -6  109.90    6.39   0
  10  -4  -6  120.11    6.54   0
   9   4  -6  143.71    7.19   0
  -9   4   6  128.45    6.89   0
   9   4  -6   89.87    6.39   0
   9  -4  -6  125.21    6.63   0
   8   4  -6  193.31    7.44   0
  -8   4   6  223.70    8.27   0
   8   4  -6  175.54    7.11   0
   8  -4  -6  174.19    6.90   0
  -7   4   6    5.75    2.18   0
   7   4  -6    6.35    2.11   0
   7   4  -6    5.58    1.90   0
   7  -4  -6    5.73    2.49   0
  -6   4   6   10.66    6.50   0
   6   4  -6    0.60    4.94   0
   6   4  -6   17.92    5.09   0
   6  -4  -6    6.89    5.87   0
  -5   4   6   29.69    4.03   0
   5   4  -6   42.58    4.47   0
   5   4  -6   29.31    6.42   0
   5  -4  -6   20.11    5.90   0
  -4   4   6   87.85    5.37   0
   4   4  -6   47.86    4.55   0
   4   4  -6   81.97    5.99   0
   4  -4  -6   90.84    5.52   0
  -3   4   6   78.23    5.20   0
   3   4  -6   67.00    6.26   0
   3   4  -6   86.37    5.87   0
   3  -4  -6   59.87    6.81   0
   3  -4  -6   53.72    3.88   0
   2   4  -6  144.26    5.98   0
   2   4  -6  143.13    6.83   0
  -2   4   6  152.17    5.05   0
   2  -4  -6  117.60    3.78   0
   2  -4  -6  135.90    6.75   0
   1   4  -6  456.35    8.04   0
   1   4  -6  429.09    6.50   0
  -1   4   6  481.98    5.48   0
   1  -4  -6  322.75    4.13   0
   1  -4  -6  297.31    5.15   0
   0   4  -6  166.93    4.26   0
   0   4  -6  167.04    3.76   0
   0   4   6  166.81    4.28   0
   0  -4  -6  166.97    3.88   0
   0  -4  -6  166.92    3.73   0
  -1   4  -6   -3.29    4.74   0
   1   4   6   13.32    4.43   0
  -1  -4  -6    0.32    4.66   0
  -1  -4  -6    1.63    4.06   0
  -2   4  -6  323.28    6.23   0
  -2   4  -6  512.49    4.64   0
   2   4   6  481.23    5.23   0
  -2  -4  -6  394.30    4.74   0
  -2  -4  -6  434.91    5.21   0
  -3   4  -6  292.89    4.65   0
  -3   4  -6  172.05    7.41   0
   3   4   6  289.91    5.08   0
  -3  -4  -6  310.92    6.27   0
  -3  -4  -6  243.80    4.81   0
   4   4   6  214.52    4.95   0
  -4  -4  -6  243.69    5.42   0
  -4  -4  -6  194.40    4.37   0
   5   4   6   81.72    4.64   0
  -5  -4  -6   82.77    4.81   0
  -5  -4  -6   98.64    4.94   0
   6   4   6   58.93    4.54   0
   7   4   6    4.47    5.44   0
  -8   4  -6    6.11    4.67   0
   8   4   6   10.54    6.67   0
   8   4   6    8.48    5.74   0
  11   5  -6   40.15    5.09   0
 -11   5   6   45.79    6.26   0
  11   5  -6   50.68    5.61   0
  11   5  -6   47.62    5.56   0
  11  -5  -6   22.40    6.21   0
 -10   5   6  245.40    7.81   0
  10   5  -6  306.22    7.44   0
  10   5  -6  263.86    7.84   0
  10  -5  -6  218.22    6.11   0
  -9   5   6  273.95    8.03   0
   9   5  -6  264.58    6.59   0
   9   5  -6  248.87    6.97   0
   9  -5  -6  262.95    6.27   0
   8   5  -6  289.17    5.08   0
  -8   5   6  420.01    7.35   0
   8   5  -6  388.36    7.31   0
   8  -5  -6  311.74    6.62   0
   7   5  -6   89.67    6.21   0
  -7   5   6   73.63    5.94   0
   7   5  -6  103.61    6.02   0
   7  -5  -6   87.98    5.43   0
  -6   5   6   43.27    6.05   0
   6   5  -6   43.35    6.41   0
   6   5  -6   50.85    6.61   0
   6  -5  -6   22.61    4.18   0
  -5   5   6  108.43    4.01   0
   5   5  -6  155.78    6.28   0
   5   5  -6  166.64    5.85   0
   5  -5  -6  114.21    4.01   0
  -4   5   6   12.39    4.93   0
   4   5  -6   10.78    5.28   0
   4   5  -6    4.22    5.42   0
   4  -5  -6    6.44    5.11   0
   3   5  -6    9.51    5.25   0
   3   5  -6    6.25    5.69   0
  -3   5   6   15.87    4.56   0
   3  -5  -6    3.03    4.73   0
   2   5  -6   17.19    6.10   0
   2   5  -6   11.59    5.36   0
  -2   5   6    6.41    3.17   0
   2  -5  -6   -1.47    3.28   0
   1   5  -6    7.36    4.42   0
  -1   5   6    7.22    4.60   0
   1   5  -6    6.92    5.17   0
   1  -5  -6    6.97    4.59   0
   0   5  -6   22.61    2.28   0
   0   5  -6   23.20    1.82   0
   0   5   6   23.21    1.84   0
   0  -5  -6   23.18    1.87   0
  -1   5  -6   18.37    5.19   0
  -1   5  -6   17.82    4.53   0
   1   5   6   18.28    4.46   0
  -1  -5  -6   17.96    4.54   0
   2   5   6   12.78    4.35   0
  -2   5  -6    5.47    4.37   0
  -2  -5  -6    4.58    4.31   0
  -3   5  -6   -4.14    4.89   0
  -3   5  -6   12.58    5.19   0
   3   5   6    6.75    4.47   0
  -3  -5  -6    4.89    3.05   0
   4   5   6    1.00    4.11   0
  -4  -5  -6    4.15    3.85   0
   5   5   6   -1.77    4.41   0
  -5  -5  -6    6.86    4.36   0
   6   5   6    0.27    1.95   0
  -6  -5  -6    0.25    2.15   0
   7   5   6   65.01    4.86   0
  -7  -5  -6  106.12    5.43   0
  10   6  -6   -4.10    6.64   0
 -10   6   6   29.80    7.05   0
  10   6  -6   -9.17    5.81   0
  10  -6  -6    3.37    5.45   0
  -9   6   6  387.85    7.91   0
   9   6  -6  370.33    6.79   0
   9   6  -6  355.73    6.43   0
   9  -6  -6  389.73    6.23   0
  -8   6   6   27.26    1.64   0
   8   6  -6   27.16    1.64   0
   8   6  -6   26.99    1.92   0
   8  -6  -6   27.44    2.04   0
  -7   6   6   18.53    3.91   0
   7   6  -6   51.71    5.06   0
   7   6  -6   48.66    5.26   0
   7  -6  -6   35.17    5.20   0
  -6   6   6   98.28    5.54   0
   6   6  -6  107.03    6.00   0
   6   6  -6   67.05    4.27   0
   6  -6  -6  107.88    5.42   0
  -5   6   6   20.38    3.92   0
   5   6  -6   24.42    5.89   0
   5   6  -6   20.98    4.21   0
   5  -6  -6   46.00    5.53   0
   4   6  -6    1.06    5.69   0
   4   6  -6   -9.27    4.13   0
  -4   6   6   11.81    3.74   0
   4  -6  -6    1.16    5.28   0
   3   6  -6   58.03    5.52   0
  -3   6   6   39.96    3.34   0
   3   6  -6   52.93    5.08   0
   3  -6  -6   68.89    4.76   0
   2   6  -6  426.21    4.73   0
  -2   6   6  425.64    5.18   0
   2  -6  -6  426.09    5.11   0
   1   6  -6    3.75    4.48   0
  -1   6   6    4.20    4.51   0
   1  -6  -6    8.69    4.55   0
   0   6  -6  359.94    5.08   0
   0   6   6  282.50    3.80   0
   0  -6  -6  402.41    5.12   0
   1   6   6    0.81    2.10   0
  -1   6  -6    0.79    1.62   0
  -1  -6  -6    0.84    2.37   0
  -2   6  -6 1449.05    7.55   0
   2   6   6 2641.39    7.53   0
  -2  -6  -6 2478.39    7.24   0
  -3   6  -6   51.84    8.27   0
   3   6   6   56.57    4.62   0
  -3   6  -6   29.73    4.50   0
  -3  -6  -6   57.40    4.42   0
  -4   6  -6    5.28    6.18   0
  -4   6  -6    9.05    3.39   0
   4   6   6   22.83    4.19   0
  -4  -6  -6   18.11    4.16   0
   5   6   6   37.07    2.01   0
  -5  -6  -6   37.09    2.26   0
   6   6   6   56.40    3.39   0
  -6  -6  -6   56.24    3.39   0
   7   6   6   55.47    4.67   0
  -7  -6  -6   67.02    5.20   0
  10   7  -6   -4.06    5.67   0
 -10   7   6   13.13    5.12   0
  10   7  -6  -20.86    5.90   0
  10  -7  -6   -8.95    4.80   0
   9   7  -6    3.95    5.92   0
  -9   7   6   -0.49    5.84   0
   9   7  -6  -16.04    4.08   0
   9  -7  -6   -1.55    4.75   0
   8   7  -6   -2.95    5.54   0
  -8   7   6   -0.08    5.63   0
   8   7  -6  -10.11    3.71   0
   8  -7  -6   13.78    4.69   0
   7   7  -6   25.36    3.92   0
  -7   7   6   55.74    5.22   0
   7   7  -6   29.04    3.81   0
   7  -7  -6   58.39    4.89   0
  -6   7   6    6.95    4.76   0
   6   7  -6   10.14    3.61   0
   6   7  -6    8.76    4.95   0
   6  -7  -6   25.90    4.34   0
   5   7  -6   12.42    5.29   0
   5   7  -6   18.25    4.96   0
  -5   7   6   -2.43    3.45   0
   5  -7  -6   18.55    4.84   0
   4   7  -6   76.29    3.93   0
  -4   7   6   98.94    4.83   0
   4  -7  -6  119.99    4.89   0
   3   7  -6  800.64    5.30   0
  -3   7   6  903.13    6.99   0
  -3   7   6 1344.23    6.63   0
   3  -7  -6 1218.92    6.62   0
   2   7  -6   18.71    3.58   0
  -2   7   6   30.62    5.02   0
  -2   7   6   42.50    4.92   0
   2  -7  -6   26.72    3.50   0
  -2  -7   6   20.38    3.60   0
  -1   7   6   57.98    3.66   0
   1   7  -6   63.87    3.37   0
  -1   7   6  114.40    4.96   0
  -1  -7   6   59.03    3.69   0
   1  -7  -6  123.09    4.98   0
   0   7  -6  137.18    4.68   0
   0   7   6  157.04    4.51   0
   0   7   6  170.19    5.49   0
   0  -7  -6  178.12    4.91   0
   0  -7   6  146.51    5.30   0
   1   7   6 5506.46   11.63   0
   1   7   6 5869.57   10.00   0
  -1   7  -6 4348.98    9.94   0
   1  -7   6 5315.13   12.61   0
  -1  -7  -6 3961.00    7.83   0
  -2   7  -6   38.14    4.49   0
   2   7   6   73.08    4.23   0
   2   7   6   75.96    4.93   0
   2  -7   6   55.56    5.57   0
  -2  -7  -6   74.00    4.05   0
  -3   7  -6  105.82    5.19   0
   3   7   6  164.84    4.46   0
  -3  -7  -6  144.89    4.48   0
  -4   7  -6   20.55    8.14   0
   4   7   6   21.71    4.25   0
  -4   7  -6    7.69    5.20   0
  -4  -7  -6   22.94    4.11   0
  -5   7  -6  460.47   27.27   0
   5   7   6  369.00    3.96   0
  -5   7  -6  439.38   11.88   0
  -5  -7  -6  544.42    5.20   0
   6   7   6   49.52    4.43   0
  -6  -7  -6   43.77    4.23   0
  -9   8   6  157.25    6.11   0
   9   8  -6  182.51    5.84   0
   9   8  -6  118.35    4.20   0
   9  -8  -6  184.48    5.58   0
   8   8  -6   20.94    1.71   0
  -8   8   6   20.74    1.59   0
   8   8  -6   20.80    1.90   0
   8  -8  -6   21.47    1.99   0
  -7   8   6    7.23    3.60   0
   7   8  -6   21.84    3.58   0
   7   8  -6   11.19    3.46   0
   7  -8  -6   12.36    4.41   0
  -6   8   6   68.76    4.34   0
   6   8  -6   65.93    4.69   0
   6   8  -6   62.13    4.48   0
   6  -8  -6   58.73    4.51   0
   5   8  -6   10.47    3.32   0
  -5   8   6   10.40    4.21   0
   5  -8  -6   19.68    4.16   0
   4   8  -6  114.45    4.96   0
  -4   8   6   93.80    5.59   0
  -4   8   6   77.29    3.26   0
   4  -8  -6  113.21    4.63   0
  -3   8   6  130.94    5.05   0
   3   8  -6  130.69    4.98   0
  -3   8   6  130.56    4.54   0
   3  -8  -6  131.12    4.71   0
  -3  -8   6  131.41    5.09   0
  -2   8   6  155.22    5.10   0
   2   8  -6  184.96    4.99   0
  -2   8   6  204.80    4.45   0
   2  -8  -6  110.60    3.42   0
  -2  -8   6  192.89    4.83   0
   1   8  -6    7.90    4.54   0
  -1   8   6   -2.68    4.99   0
  -1   8   6   20.50    4.34   0
   1  -8  -6   -5.38    3.13   0
  -1  -8   6   -1.93    4.87   0
   0   8   6   22.59    5.10   0
   0   8   6   12.33    3.92   0
   0   8  -6    1.62    4.38   0
   0  -8   6   -1.90    4.53   0
   0  -8  -6    4.81    4.28   0
  -1   8  -6   10.54    4.29   0
   1   8   6   27.06    4.10   0
   1   8   6   12.18    4.87   0
   1  -8   6    9.86    4.84   0
  -1  -8  -6   22.82    4.06   0
  -2   8  -6  483.97    5.13   0
   2   8   6  727.85    5.06   0
   2   8   6  622.92    5.85   0
  -2  -8  -6  697.16    4.88   0
   2  -8   6  561.54    6.22   0
  -3   8  -6   12.42    4.02   0
   3   8   6   24.91    3.88   0
   3   8   6   36.65    5.11   0
  -3  -8  -6    8.77    3.99   0
   3  -8   6   24.30    5.03   0
   4   8   6   14.88    3.82   0
  -4   8  -6    5.60    4.99   0
  -4  -8  -6   -0.22    3.99   0
   5   8   6   22.33    4.04   0
  -5   8  -6   15.65    8.61   0
  -5   8  -6   15.95    6.14   0
  -5  -8  -6   12.17    3.71   0
  -8   9   6   -7.97    5.32   0
   8   9  -6    1.52    5.22   0
   8   9  -6    6.19    3.38   0
   8  -9  -6   -1.41    4.42   0
  -7   9   6   -8.79    3.51   0
   7   9  -6    4.96    4.98   0
   7   9  -6   -4.78    4.31   0
   7  -9  -6    8.95    4.59   0
  -6   9   6   35.31    3.41   0
   6   9  -6   52.71    4.59   0
   6   9  -6   54.14    4.89   0
   6  -9  -6   72.22    4.63   0
   5   9  -6   47.82    4.64   0
  -5   9   6   35.45    5.55   0
  -5   9   6   51.84    4.12   0
   5  -9  -6   44.87    4.21   0
  -4   9   6   28.60    4.60   0
   4   9  -6   56.20    4.23   0
  -4   9   6   44.71    4.37   0
   4  -9  -6   41.13    4.28   0
  -4  -9   6   29.81    4.25   0
  -3   9   6  130.66    5.05   0
   3   9  -6  163.55    4.64   0
  -3   9   6  191.88    4.37   0
   3  -9  -6  108.87    3.29   0
  -3  -9   6   99.93    3.41   0
  -2   9   6    8.93    4.43   0
   2   9  -6   14.98    4.24   0
  -2   9   6    4.29    2.94   0
   2  -9  -6    8.85    3.84   0
  -2  -9   6   10.56    4.41   0
  -1   9   6   -3.00    4.74   0
  -1   9   6    4.25    4.05   0
   1   9  -6   -4.24    4.26   0
  -1  -9   6    6.34    4.67   0
   1  -9  -6   -1.90    3.73   0
   0   9   6    6.56    4.37   0
   0   9   6   -0.24    3.75   0
   0   9  -6   -0.04    3.97   0
   0  -9   6   -7.28    4.59   0
   0  -9  -6   -2.38    3.81   0
  -1   9  -6   26.78    4.33   0
   1   9   6   16.72    3.41   0
   1   9   6   20.82    4.09   0
  -1  -9  -6   33.10    3.95   0
   1  -9   6   22.92    4.79   0
  -2   9  -6   27.84    4.00   0
   2   9   6   51.62    4.26   0
   2   9   6   41.76    4.99   0
   2  -9   6   51.04    4.95   0
  -2  -9  -6   40.14    3.80   0
  -3   9  -6    4.07    2.31   0
   3   9   6    4.36    1.83   0
   3   9   6    4.19    1.69   0
  -3  -9  -6    4.37    2.16   0
   3  -9   6    3.57    1.79   0
   4   9   6   63.67    4.36   0
  -4   9  -6   32.32    4.95   0
  -4  -9  -6   39.21    3.04   0
   4  -9   6   35.47    5.64   0
  -5   9  -6   21.75    7.39   0
   5   9   6    0.25    3.96   0
  -5   9  -6   14.96    5.66   0
  -5  -9  -6    8.51    3.80   0
  -7  10   6   48.70    4.91   0
   7  10  -6   20.91    3.19   0
   7  10  -6   21.57    4.91   0
   7 -10  -6   55.13    4.62   0
   6  10  -6   47.81    4.38   0
  -6  10   6   55.02    4.57   0
   6 -10  -6   44.29    4.45   0
   5  10  -6    4.87    4.09   0
  -5  10   6   20.90    5.05   0
  -5  10   6   14.99    3.10   0
   5 -10  -6   -2.82    3.06   0
  -5 -10   6   14.42    3.16   0
   4  10  -6  190.50    4.50   0
  -4  10   6  173.56    5.97   0
  -4  10   6  203.06    4.40   0
   4 -10  -6  120.87    3.37   0
  -4 -10   6  115.99    3.64   0
   3  10  -6   25.87    3.14   0
  -3  10   6   24.89    3.02   0
  -3  10   6   21.32    4.75   0
   3 -10  -6   35.86    4.17   0
  -3 -10   6   23.52    3.21   0
  -2  10   6   54.32    4.42   0
  -2  10   6   78.17    4.26   0
   2  10  -6   69.43    4.30   0
  -2 -10   6   70.91    4.64   0
   2 -10  -6   63.08    3.93   0
  -1  10   6  108.84    4.96   0
  -1  10   6  148.28    4.37   0
   1  10  -6  152.19    4.44   0
  -1 -10   6  128.38    4.69   0
   1 -10  -6  162.19    4.30   0
   0  10  -6   17.79    3.89   0
   0  10   6   32.70    3.79   0
   0  10   6    0.43    3.56   0
   0 -10   6   17.61    4.15   0
   0 -10  -6   14.81    2.90   0
  -1  10  -6   17.95    3.93   0
   1  10   6   26.90    4.00   0
   1  10   6   11.32    4.53   0
   1 -10   6   11.19    4.34   0
  -1 -10  -6    2.00    3.66   0
  -2  10  -6   75.49    4.27   0
   2  10   6   91.15    3.99   0
   2  10   6   76.28    5.11   0
  -2 -10  -6   91.33    4.10   0
   2 -10   6   65.10    4.84   0
  -3  10  -6    9.59    4.34   0
   3  10   6   16.65    4.81   0
   3  10   6   21.65    4.26   0
   3 -10   6   20.85    5.36   0
  -3 -10  -6   17.89    4.08   0
  -5  11   6   16.04    5.01   0
   5  11  -6   10.08    4.50   0
  -5  11   6   22.22    4.29   0
   5 -11  -6   -0.39    4.12   0
  -5 -11   6   28.39    4.25   0
  -4  11   6    0.38    4.49   0
   4  11  -6    0.35    3.38   0
  -4  11   6    0.37    4.33   0
   4 -11  -6    0.40    3.02   0
  -4 -11   6    0.44    4.54   0
  -3  11   6   20.23    4.26   0
  -3  11   6   38.51    4.01   0
   3  11  -6   24.81    4.05   0
  -3 -11   6   44.02    4.38   0
   3 -11  -6   25.88    4.03   0
  -2  11   6  346.39    5.65   0
  -2  11   6  508.33    4.87   0
   2  11  -6  280.25    3.70   0
  -2 -11   6  389.46    5.28   0
   2 -11  -6  281.68    3.50   0
  -1  11   6  198.64    4.38   0
   1  11  -6  189.23    4.76   0
  -1  11   6  143.72    4.73   0
   1 -11  -6  124.33    3.10   0
  -1 -11   6  161.62    5.03   0
   0  11  -6  183.12    4.36   0
   0  11   6  160.23    5.35   0
   0  11   6  189.72    4.07   0
   0 -11   6  194.94    4.97   0
   0 -11  -6  185.08    3.90   0
  -1  11  -6  393.90    4.90   0
   1  11   6  393.52    4.63   0
   1  11   6  393.54    4.80   0
   1 -11   6  393.94    5.45   0
  -1 -11  -6  393.93    4.55   0
  -2  11  -6    4.45    4.28   0
   2  11   6   14.14    4.10   0
   2  11   6   13.95    3.57   0
  -2 -11  -6    2.51    2.84   0
   2 -11   6    7.89    4.39   0
  11   0  -7    2.64    6.05   0
  11   0  -7   -0.55    6.51   0
   9   0  -7  210.96    6.85   0
  -9   0   7  207.66    6.90   0
   9   0  -7  133.57    9.19   0
   7   0  -7 1040.96   10.30   0
  -7   0   7 1041.82   10.08   0
   5   0  -7   -6.77    8.80   0
  -5   0   7   -2.72    5.46   0
   3   0  -7   66.72    7.38   0
  -3   0   7  106.53    8.75   0
   1   0  -7   12.23    8.87   0
  -1   0   7    4.77    3.40   0
   1   0   7   -7.67    3.76   0
   3   0   7   44.68    4.52   0
  -3   0  -7   15.32    5.44   0
  -5   0  -7   53.33    5.09   0
  -7   0  -7   51.71    3.54   0
  11   1  -7   48.59    5.69   0
 -11   1   7   17.27    6.39   0
  11   1  -7   41.94    6.50   0
  11   1  -7   44.17    7.25   0
  11  -1  -7   43.04    6.22   0
  10   1  -7   28.12    6.61   0
  10   1  -7   -7.76    6.05   0
 -10   1   7    4.78    5.56   0
  10   1  -7    2.82    7.46   0
  10  -1  -7  -12.03    5.97   0
   9   1  -7  145.44    6.70   0
  -9   1   7   83.45    4.60   0
   9  -1  -7   76.89    4.83   0
   8   1  -7 1212.44    9.39   0
  -8   1   7 1171.24    9.19   0
   8  -1  -7  763.51    7.48   0
  -8  -1   7 1080.98    9.85   0
   7   1  -7   62.48    3.22   0
  -7   1   7   61.90    2.62   0
   7  -1  -7   61.38    2.69   0
  -7  -1   7   60.98    2.85   0
   6   1  -7   34.09    8.06   0
  -6   1   7   50.78    7.26   0
   6  -1  -7   52.99    8.10   0
  -6  -1   7   34.68    7.77   0
   5   1  -7  167.53    8.65   0
  -5   1   7   92.01    5.81   0
   5  -1  -7  117.94    8.66   0
  -5  -1   7   83.28    5.86   0
   4   1  -7  143.12    7.04   0
  -4   1   7  188.12    8.92   0
   4  -1  -7  163.99    9.43   0
  -4  -1   7  154.47    6.27   0
   3   1  -7  399.60   11.57   0
  -3   1   7  271.71    6.43   0
   3  -1  -7  374.46    9.03   0
  -3  -1   7  407.46    9.81   0
   2   1  -7  274.45   12.02   0
  -2   1   7  337.04    8.29   0
  -2  -1   7  300.72    9.90   0
   2  -1  -7  219.56    5.68   0
   1   1  -7   92.17   13.02   0
  -1   1   7  137.80    8.21   0
  -1  -1   7   90.36    8.15   0
   1  -1  -7  126.72    7.11   0
   0   1  -7  193.11    9.33   0
   0   1   7  209.72    8.15   0
   0  -1   7  160.78   10.70   0
   0  -1  -7  181.74    6.12   0
   1   1   7  265.70    7.63   0
   1  -1   7  215.15    9.41   0
  -1  -1  -7  219.26    5.51   0
   2   1   7  678.96    9.93   0
  -2   1  -7  502.28    8.37   0
   2  -1   7  532.85   10.44   0
   3   1   7 1311.77   13.45   0
  -3   1  -7  882.85   14.52   0
  -3   1  -7  581.79   11.11   0
  -3  -1  -7  976.77    6.22   0
  -3  -1  -7  847.11    7.68   0
   4   1   7  127.96    4.68   0
  -4  -1  -7   82.72    5.94   0
  -4  -1  -7   76.36    4.21   0
   5   1   7   32.07    2.45   0
  -5  -1  -7   19.75    5.11   0
  -6   1  -7  106.54    5.13   0
  -6  -1  -7  126.56    5.05   0
  -7   1  -7   42.40    2.63   0
  -7  -1  -7   41.62    2.57   0
  11   2  -7   24.55    4.55   0
 -11   2   7   40.77    5.53   0
  11   2  -7   17.91    7.14   0
  11   2  -7   26.82    6.40   0
  11  -2  -7   30.33    6.38   0
  10   2  -7   48.21    3.66   0
  10   2  -7   48.42    3.57   0
 -10   2   7   47.72    4.43   0
  10   2  -7   48.14    3.90   0
  10  -2  -7   48.30    3.50   0
   9   2  -7   -1.04    4.59   0
   9   2  -7    2.23    5.26   0
  -9   2   7   15.56    6.31   0
   9  -2  -7  -15.00    6.61   0
   8   2  -7   58.78    8.18   0
   8   2  -7   62.07    7.27   0
  -8   2   7   33.67    5.23   0
   8  -2  -7   43.51    5.36   0
  -7   2   7   89.47    7.95   0
   7   2  -7   70.69    6.25   0
   7  -2  -7   62.58    7.79   0
   6   2  -7  183.08    3.98   0
  -6   2   7  183.11    3.98   0
  -6  -2   7  183.13    4.07   0
   6  -2  -7  183.39    8.34   0
  -5   2   7   28.23    7.42   0
   5   2  -7   21.78    5.87   0
  -5  -2   7    8.09    5.74   0
   5  -2  -7   14.55    7.76   0
  -4   2   7   61.74    7.14   0
   4   2  -7   52.01    6.59   0
  -4  -2   7   41.56    6.03   0
   4  -2  -7   50.31    5.27   0
  -3   2   7   47.25    6.43   0
   3   2  -7   44.86    3.04   0
  -3  -2   7   27.81    2.08   0
   3  -2  -7   32.13    1.69   0
  -2   2   7   30.44    2.22   0
   2   2  -7   30.24    2.47   0
  -2  -2   7   29.61    2.05   0
   2  -2  -7   30.48    2.15   0
  -1   2   7  165.07    4.86   0
   1   2  -7  206.93    4.25   0
   1  -2  -7  238.15    6.47   0
  -1  -2   7  233.24    8.95   0
   0   2   7  784.51    5.66   0
   0   2  -7  782.00    5.61   0
   0  -2  -7  785.53    6.41   0
   1   2   7  186.30    5.93   0
  -1   2  -7  189.66    7.88   0
  -1  -2  -7  167.59    5.22   0
  -1  -2  -7  165.22    6.36   0
   2   2   7 1744.78    9.21   0
  -2   2  -7 1315.35   10.65   0
  -2   2  -7 1262.08   11.23   0
  -2  -2  -7 1397.85    7.13   0
  -2  -2  -7 1839.46    8.38   0
   3   2   7   51.67    5.79   0
  -3  -2  -7   53.47    6.08   0
   4   2   7 2475.04   12.79   0
  -4  -2  -7 1837.79    8.95   0
  -4  -2  -7 2516.59    9.22   0
   5   2   7  110.73    8.09   0
  -5  -2  -7   97.17    5.95   0
  -5  -2  -7  111.26    4.90   0
   6   2   7  372.17   13.06   0
  -6  -2  -7  290.55    4.17   0
  -7   2  -7  142.42    4.05   0
  -7  -2  -7  256.80    5.23   0
  11   3  -7   86.41    5.66   0
  11   3  -7  113.37    6.64   0
 -11   3   7  109.46    5.75   0
  11   3  -7  114.70    7.48   0
  11  -3  -7   85.96    6.71   0
  10   3  -7  141.56    6.98   0
 -10   3   7   99.42    6.09   0
  10   3  -7  152.89    7.25   0
  10  -3  -7  118.11    6.23   0
   9   3  -7  -13.46    6.33   0
  -9   3   7    6.66    6.10   0
   9   3  -7  -21.12    7.24   0
   9  -3  -7   -4.26    6.57   0
   8   3  -7   46.59    3.54   0
   8   3  -7   47.47    4.38   0
  -8   3   7   46.78    4.23   0
   8  -3  -7   47.28    3.62   0
  -7   3   7   33.29    8.10   0
   7   3  -7   -7.85    7.99   0
   7   3  -7   50.38    8.28   0
   7  -3  -7    7.82    5.40   0
  -6   3   7  680.86    5.18   0
   6   3  -7  689.94    5.05   0
   6   3  -7  679.42    5.06   0
   6  -3  -7  678.68    5.16   0
  -5   3   7    8.37    6.47   0
   5   3  -7   -3.09    7.91   0
   5   3  -7   -3.26    5.52   0
   5  -3  -7   -2.55    7.98   0
   5  -3  -7  -10.86    6.68   0
  -4   3   7   17.21    5.93   0
   4   3  -7   17.32    4.91   0
   4   3  -7   16.84    4.82   0
   4  -3  -7   17.46    5.48   0
   4  -3  -7   16.58    5.11   0
  -3   3   7   65.66    5.66   0
   3   3  -7   56.79    6.48   0
   3   3  -7   71.74    4.72   0
   3  -3  -7   39.07    6.81   0
   3  -3  -7   48.05    4.14   0
  -2   3   7   14.68    5.09   0
   2   3  -7   15.23    5.21   0
   2   3  -7   15.25    4.99   0
   2  -3  -7   15.23    5.20   0
   2  -3  -7   14.63    4.79   0
  -1   3   7  829.20    6.82   0
   1   3  -7  775.35    4.69   0
   1   3  -7  828.83    8.29   0
   1  -3  -7  572.71    5.01   0
   1  -3  -7  577.87    6.15   0
   0   3  -7  413.20    4.50   0
   0   3  -7  378.17    6.77   0
   0   3   7  274.41    4.52   0
   0  -3  -7  431.71    5.96   0
   0  -3  -7  402.08    6.86   0
  -1   3  -7    1.26    5.92   0
   1   3   7   -1.04    3.54   0
  -1  -3  -7    7.96    4.71   0
  -1  -3  -7    7.66    4.16   0
  -2   3  -7  149.72    4.07   0
  -2   3  -7  122.17    6.75   0
   2   3   7  168.66    5.17   0
  -2  -3  -7  129.16    4.65   0
  -2  -3  -7  166.88    5.79   0
   3   3   7 2361.92    9.60   0
  -3  -3  -7 2365.33    9.62   0
  -3  -3  -7 2362.34    9.23   0
   4   3   7  391.52    6.66   0
  -4  -3  -7  291.91    4.39   0
   5   3   7   23.75    4.74   0
  -5  -3  -7   28.06    4.65   0
  -5  -3  -7   19.12    4.82   0
   6   3   7  161.42    6.91   0
  -6  -3  -7  158.68    5.68   0
  -6  -3  -7  135.41    5.35   0
   7   3   7  254.98    9.10   0
  -7   3  -7  213.24    5.16   0
   7   3   7  293.70    9.74   0
  -7  -3  -7  284.26    5.47   0
  11   4  -7   84.83    6.38   0
  11   4  -7   73.49    7.77   0
 -11   4   7   71.67    6.12   0
  11   4  -7   68.98    6.63   0
  11  -4  -7   67.63    6.81   0
  10   4  -7  641.81    8.67   0
  10   4  -7  591.68    8.00   0
 -10   4   7  698.72    8.50   0
  10  -4  -7  610.13    8.10   0
   9   4  -7   60.08    5.43   0
  -9   4   7   98.19    7.10   0
   9   4  -7   94.54    6.72   0
   9  -4  -7  109.53    6.61   0
  -8   4   7   11.81    7.21   0
   8   4  -7    1.73    4.96   0
   8   4  -7   10.01    6.75   0
   8  -4  -7   -4.40    6.32   0
  -7   4   7  615.91    8.33   0
   7   4  -7  599.81    8.27   0
   7   4  -7  621.87    8.71   0
   7  -4  -7  357.71    5.77   0
  -6   4   7  878.70    6.52   0
   6   4  -7  879.08    7.24   0
   6   4  -7  879.11    6.73   0
   6  -4  -7  878.56    7.07   0
  -5   4   7  146.53    6.02   0
   5   4  -7  116.62    5.16   0
   5   4  -7  155.71    7.12   0
   5  -4  -7  117.64    5.93   0
  -4   4   7    8.31    3.68   0
   4   4  -7    6.90    5.00   0
   4   4  -7   -2.41    6.62   0
   4  -4  -7   -8.20    6.41   0
   4  -4  -7    5.91    3.81   0
  -3   4   7    7.51    5.07   0
   3   4  -7   14.81    7.39   0
   3   4  -7  -14.17    6.21   0
   3  -4  -7   10.55    6.08   0
   3  -4  -7   -3.46    5.36   0
  -2   4   7    0.27    1.98   0
   2   4  -7    0.32    1.93   0
   2   4  -7    0.29    2.16   0
   2  -4  -7    0.31    2.16   0
   2  -4  -7    0.29    2.25   0
   1   4  -7  212.69    5.88   0
   1   4  -7  226.31    8.50   0
  -1   4   7  258.30    5.28   0
   1  -4  -7  167.82    3.93   0
   1  -4  -7  210.10    6.85   0
   0   4  -7   38.66    9.16   0
   0   4  -7   29.92    5.06   0
   0   4   7   17.93    3.53   0
   0  -4  -7   43.72    4.66   0
   0  -4  -7   32.31    6.23   0
  -1   4  -7   24.79    5.92   0
   1   4   7   24.86    4.38   0
  -1  -4  -7   29.13    4.32   0
  -1  -4  -7   13.50    1.95   0
  -2   4  -7   19.73    2.03   0
  -2   4  -7   20.87    5.63   0
   2   4   7   30.84    4.61   0
  -2  -4  -7   30.77    4.38   0
  -2  -4  -7   11.52    4.40   0
  -3   4  -7    5.48    2.18   0
  -3   4  -7    5.40    1.80   0
   3   4   7    4.74    1.61   0
  -3  -4  -7    4.51    1.68   0
  -3  -4  -7    5.36    2.34   0
   4   4   7    8.47    4.59   0
  -4  -4  -7    8.00    4.25   0
  -4  -4  -7   26.66    5.15   0
   5   4   7    7.69    4.56   0
  -5  -4  -7   -7.04    4.92   0
   6   4   7   15.43    1.71   0
  -6  -4  -7   14.54    1.60   0
   7   4   7   27.86    5.92   0
  -7  -4  -7   27.92    5.46   0
  11   5  -7  129.93    6.97   0
 -11   5   7  111.51    6.34   0
  11   5  -7  123.74    6.17   0
  11   5  -7  112.56    6.96   0
  11  -5  -7  124.76    6.58   0
 -10   5   7   23.44    7.08   0
  10   5  -7   13.31    6.38   0
  10   5  -7   14.18    5.15   0
  10  -5  -7   -9.04    6.31   0
  -9   5   7  628.99    8.37   0
   9   5  -7  718.84    8.06   0
   9   5  -7  713.39    8.57   0
   9  -5  -7  559.54    7.07   0
  -8   5   7   65.84    4.77   0
   8   5  -7   91.97    6.38   0
   8   5  -7   84.16    6.15   0
   8  -5  -7   86.56    5.49   0
   7   5  -7  358.07    7.16   0
  -7   5   7  183.41    4.86   0
   7   5  -7  380.34    6.86   0
   7  -5  -7  358.68    6.07   0
  -6   5   7    3.21    4.29   0
   6   5  -7    9.22    6.30   0
   6   5  -7   12.16    6.62   0
   6  -5  -7    5.92    4.27   0
  -5   5   7   85.93    4.32   0
   5   5  -7  115.29    6.46   0
   5   5  -7  125.18    7.08   0
   5  -5  -7   95.42    4.40   0
  -4   5   7   71.53    5.08   0
   4   5  -7   53.64    4.52   0
   4   5  -7   57.72    4.30   0
   4  -5  -7   72.05    5.25   0
   3   5  -7   54.05    5.92   0
   3   5  -7   51.59    4.75   0
  -3   5   7   43.55    3.47   0
   3  -5  -7   66.42    5.04   0
   2   5  -7   86.88    6.57   0
   2   5  -7   64.26    5.19   0
  -2   5   7   65.19    4.66   0
   2  -5  -7   71.32    4.90   0
   2  -5  -7   38.45    6.24   0
   1   5  -7  245.32    7.38   0
   1   5  -7  244.28    5.53   0
  -1   5   7  164.66    3.88   0
   1  -5  -7  190.78    3.96   0
   1  -5  -7  166.81    4.93   0
   0   5  -7   84.50    5.01   0
   0   5  -7   83.05    7.37   0
   0   5   7   98.26    4.90   0
   0  -5  -7   76.48    4.92   0
   0  -5  -7   63.90    6.55   0
  -1   5  -7   74.98    4.87   0
   1   5   7   75.30    3.45   0
  -1  -5  -7  107.10    4.73   0
  -1  -5  -7   97.50    6.09   0
  -2   5  -7   73.40   13.14   0
   2   5   7   66.87    4.69   0
  -2   5  -7   36.69    4.68   0
  -2  -5  -7   43.19    4.34   0
  -2  -5  -7   59.66    4.17   0
  -3   5  -7  134.94   26.65   0
  -3   5  -7   97.16    5.76   0
   3   5   7  157.05    4.71   0
  -3  -5  -7  138.47    5.27   0
  -3  -5  -7  137.89    4.40   0
   4   5   7   -0.58    4.43   0
  -4  -5  -7   12.14    4.25   0
   5   5   7   22.51    4.42   0
  -5  -5  -7   27.73    4.28   0
   6   5   7   -0.61    4.71   0
  -6  -5  -7    8.21    4.50   0
   7   5   7    6.85    5.47   0
 -10   6   7   71.80    6.98   0
  10   6  -7   81.33    6.10   0
  10   6  -7   61.62    6.72   0
  10  -6  -7  100.11    6.07   0
  -9   6   7  274.65    7.57   0
   9   6  -7  237.85    6.40   0
   9   6  -7  242.56    6.86   0
   9  -6  -7  223.61    5.77   0
  -8   6   7   87.94    5.78   0
   8   6  -7   77.88    4.61   0
   8   6  -7   73.27    6.18   0
   8  -6  -7   93.77    5.55   0
  -7   6   7    6.94    3.80   0
   7   6  -7    0.83    5.71   0
   7   6  -7    4.74    3.89   0
   7  -6  -7    6.15    3.59   0
  -6   6   7   39.38    3.87   0
   6   6  -7   59.70    5.83   0
   6   6  -7   75.21    5.54   0
   6  -6  -7   62.11    5.47   0
  -5   6   7  391.93    6.01   0
   5   6  -7  373.76    6.39   0
   5   6  -7  359.19    6.77   0
   5  -6  -7  338.40    6.29   0
   4   6  -7   36.01    4.35   0
   4   6  -7   42.46    5.77   0
  -4   6   7   50.47    5.30   0
   4  -6  -7   46.58    3.84   0
   3   6  -7  122.49    4.34   0
   3   6  -7  148.33    5.46   0
  -3   6   7  162.76    5.36   0
   3  -6  -7  154.83    5.50   0
   2   6  -7  586.97    6.04   0
   2   6  -7  547.34    6.91   0
  -2   6   7  628.11    5.70   0
   2  -6  -7  621.47    5.82   0
   1   6  -7   33.52    4.90   0
   1   6  -7   37.60    5.99   0
  -1   6   7   31.50    3.54   0
   1  -6  -7   41.26    4.90   0
   0   6  -7   99.25    5.03   0
   0   6  -7  112.15    6.35   0
   0   6   7  134.69    4.54   0
   0  -6  -7   79.97    3.50   0
  -1   6  -7 1307.17    6.35   0
  -1   6  -7 1415.78    7.66   0
   1   6   7 1462.07    6.45   0
  -1  -6  -7 1328.28    6.25   0
   2   6   7   27.77    4.42   0
  -2   6  -7   44.35    5.08   0
  -2  -6  -7   30.23    4.22   0
  -3   6  -7   20.46    5.52   0
  -3   6  -7   17.64    4.51   0
   3   6   7   18.21    4.39   0
  -3  -6  -7   28.55    4.24   0
  -4   6  -7   23.99    4.85   0
   4   6   7   27.54    4.09   0
  -4   6  -7   17.30    8.67   0
  -4  -6  -7   25.59    4.28   0
   5   6   7  904.70    5.87   0
  -5  -6  -7  824.59    5.56   0
   6   6   7   85.66    4.57   0
  -6  -6  -7   65.28    4.57   0
   9   7  -7  -11.65    4.35   0
  -9   7   7    9.19    5.82   0
   9   7  -7   11.66    5.63   0
   9  -7  -7    2.90    3.78   0
   8   7  -7   12.80    5.27   0
  -8   7   7   10.59    4.07   0
   8   7  -7    8.49    5.44   0
   8  -7  -7   10.41    5.14   0
  -7   7   7   39.80    3.01   0
   7   7  -7   39.87    2.79   0
   7   7  -7   39.77    3.11   0
   7  -7  -7   40.18    2.68   0
  -6   7   7    3.48    3.46   0
   6   7  -7   -4.60    4.79   0
   6   7  -7   15.84    4.81   0
   6  -7  -7   14.68    4.78   0
   5   7  -7   89.70    5.34   0
  -5   7   7   65.57    4.82   0
   5   7  -7   74.92    5.03   0
   5  -7  -7   63.56    4.84   0
   4   7  -7   47.91    2.63   0
   4   7  -7   47.82    3.04   0
  -4   7   7   47.94    2.50   0
   4  -7  -7   48.36    2.91   0
   3   7  -7   57.34    5.13   0
   3   7  -7   53.65    5.55   0
  -3   7   7   64.65    4.55   0
   3  -7  -7   37.16    3.47   0
   2   7  -7   26.47    4.78   0
   2   7  -7   33.28    5.18   0
  -2   7   7   12.88    3.44   0
   2  -7  -7   18.44    4.56   0
   1   7  -7  152.48    5.81   0
   1   7  -7  152.57    4.62   0
  -1   7   7  174.42    4.82   0
   1  -7  -7  145.53    4.60   0
   0   7  -7  542.93    6.58   0
   0   7  -7  458.18    5.39   0
   0   7   7  595.12    5.34   0
   0  -7  -7  505.27    4.92   0
   1   7   7    3.44    4.30   0
  -1   7  -7   20.57    5.85   0
  -1   7  -7    7.63    4.40   0
  -1  -7  -7   11.77    3.95   0
  -2   7  -7  360.62    5.08   0
   2   7   7  603.40    5.16   0
  -2  -7  -7  603.63    4.85   0
  -3   7  -7   13.76    2.06   0
  -3   7  -7   14.05    2.02   0
   3   7   7   13.86    1.92   0
  -3  -7  -7   13.82    1.99   0
  -4   7  -7  133.30    6.96   0
  -4   7  -7   98.41    6.09   0
   4   7   7  156.53    4.51   0
  -4  -7  -7  155.21    4.36   0
   5   7   7    4.81    4.26   0
  -5  -7  -7   19.16    3.80   0
  -9   8   7  170.38    6.73   0
   9   8  -7  128.90    6.48   0
   9   8  -7  133.43    5.35   0
   9  -8  -7  163.58    5.55   0
  -8   8   7   -2.99    5.38   0
   8   8  -7    4.48    3.86   0
   8   8  -7  -12.40    4.97   0
   8  -8  -7   -7.71    4.62   0
  -7   8   7   13.44    4.99   0
   7   8  -7   27.47    5.21   0
   7   8  -7    1.07    3.64   0
   7  -8  -7   16.88    4.83   0
  -6   8   7   66.70    4.71   0
   6   8  -7   55.34    3.74   0
   6   8  -7   77.48    5.09   0
   6  -8  -7   65.23    4.40   0
   5   8  -7    4.27    4.72   0
   5   8  -7   22.99    5.06   0
  -5   8   7    6.79    3.16   0
   5  -8  -7   19.59    4.43   0
   4   8  -7   82.21    4.71   0
   4   8  -7   64.27    4.56   0
  -4   8   7   72.74    4.18   0
   4  -8  -7   56.40    3.17   0
   3   8  -7   75.51    4.69   0
   3   8  -7   90.21    5.03   0
  -3   8   7   79.32    4.18   0
   3  -8  -7   51.42    3.05   0
   2   8  -7  276.69    5.11   0
  -2   8   7  285.97    4.66   0
   2  -8  -7  281.54    4.67   0
   1   8  -7    0.31    4.61   0
  -1   8   7    0.32    4.03   0
   1  -8  -7    0.28    4.32   0
   0   8   7   56.38    4.28   0
   0   8  -7   34.06    4.40   0
   0  -8  -7   37.36    3.06   0
   1   8   7  684.02    4.90   0
  -1   8  -7  544.22    5.42   0
  -1  -8  -7  473.59    3.72   0
  -2   8  -7   -1.55    4.32   0
  -2   8  -7    1.85    6.51   0
   2   8   7   11.62    4.00   0
  -2  -8  -7    9.73    3.91   0
  -3   8  -7   -0.08    5.01   0
   3   8   7   17.11    4.04   0
  -3  -8  -7    7.65    4.01   0
  -4   8  -7   15.02    9.62   0
  -4   8  -7   16.20    4.91   0
   4   8   7   28.30    4.21   0
  -4  -8  -7   16.47    4.03   0
  -5   8  -7  512.67    5.28   0
   5   8   7  598.25    5.51   0
  -5   8  -7  413.15    5.38   0
  -5  -8  -7  539.43    5.30   0
  -8   9   7    8.91    4.70   0
   8   9  -7   27.02    5.24   0
   8   9  -7    4.59    4.38   0
   8  -9  -7   18.15    3.51   0
  -7   9   7  387.27    5.73   0
   7   9  -7  368.55    5.17   0
   7   9  -7  329.49    5.41   0
   7  -9  -7  431.26    5.44   0
  -6   9   7  182.04    5.11   0
   6   9  -7  190.66    4.90   0
   6   9  -7  113.25    3.92   0
   6  -9  -7  116.27    3.59   0
   5   9  -7  145.53    5.13   0
   5   9  -7   85.52    3.76   0
  -5   9   7  145.06    4.77   0
   5  -9  -7  146.98    4.75   0
   4   9  -7   16.45    4.26   0
   4   9  -7   28.79    3.40   0
  -4   9   7   46.61    4.06   0
   4  -9  -7   20.53    3.09   0
   3   9  -7   42.82    4.58   0
  -3   9   7   59.44    4.17   0
   3  -9  -7   64.42    4.17   0
   2   9  -7   31.80    4.40   0
  -2   9   7   29.93    4.83   0
  -2   9   7   29.45    3.86   0
   2  -9  -7   35.94    3.90   0
  -1   9   7    7.30    4.50   0
   1   9  -7    7.38    4.41   0
  -1   9   7    6.85    3.95   0
  -1  -9   7    7.17    4.54   0
   1  -9  -7    6.76    4.13   0
   0   9   7    1.81    1.60   0
   0   9   7    1.92    1.99   0
   0   9  -7    1.78    2.27   0
   0  -9   7    2.06    1.53   0
   0  -9  -7    1.96    2.00   0
  -1   9  -7   12.76    4.01   0
   1   9   7   13.38    4.07   0
  -1  -9  -7   12.59    2.86   0
  -2   9  -7   34.55    4.58   0
   2   9   7   25.58    3.01   0
  -2  -9  -7   22.80    2.95   0
  -3   9  -7  170.83    5.49   0
   3   9   7  214.94    4.28   0
  -3  -9  -7  184.19    4.45   0
  -4   9  -7    5.03    7.27   0
  -4   9  -7    4.55    5.05   0
   4   9   7   16.03    4.24   0
  -4  -9  -7    2.69    3.73   0
  -7  10   7  258.55    4.99   0
   7  10  -7  135.42    3.87   0
   7  10  -7  204.10    5.55   0
   7 -10  -7  218.80    5.20   0
  -6  10   7  271.67    5.25   0
   6  10  -7  263.04    4.92   0
   6  10  -7  231.14    5.12   0
   6 -10  -7  318.15    4.87   0
   5  10  -7   15.14    4.60   0
   5  10  -7   32.93    4.43   0
  -5  10   7   24.56    4.15   0
   5 -10  -7   20.72    4.27   0
   4  10  -7    0.14    3.21   0
  -4  10   7    0.16    3.84   0
   4 -10  -7    0.16    4.19   0
   3  10  -7   22.72    4.15   0
  -3  10   7   16.99    4.27   0
  -3  10   7   40.73    3.76   0
   3 -10  -7    1.05    3.87   0
  -2  10   7   13.50    4.26   0
   2  10  -7   17.56    4.08   0
  -2  10   7   18.44    4.04   0
   2 -10  -7   -6.13    3.75   0
  -2 -10   7   -0.10    4.67   0
  -1  10   7    9.32    3.31   0
  -1  10   7   28.89    3.79   0
   1  10  -7    7.58    3.13   0
  -1 -10   7    8.16    4.74   0
   1 -10  -7    8.35    2.90   0
   0  10  -7    2.85    1.91   0
   0  10   7    3.39    2.07   0
   0  10   7    3.47    1.91   0
   0 -10   7    3.34    1.80   0
   0 -10  -7    3.39    1.82   0
  -1  10  -7   16.05    4.18   0
   1  10   7   15.74    4.29   0
   1  10   7   31.40    4.41   0
   1 -10   7   20.26    4.59   0
  -1 -10  -7   19.57    2.97   0
  -2  10  -7  111.65    4.86   0
   2  10   7   68.44    3.24   0
  -2 -10  -7  104.07    4.30   0
  -3  10  -7   14.41    4.31   0
  -3  10  -7   17.21    5.67   0
   3  10   7   18.68    3.06   0
  -3 -10  -7    4.36    4.26   0
   5  11  -7    8.94    3.54   0
   5  11  -7   38.16    5.01   0
  -5  11   7   24.86    4.58   0
   5 -11  -7   42.32    4.41   0
   4  11  -7   31.84    1.57   0
  -4  11   7   31.94    2.05   0
   4 -11  -7   32.43    2.09   0
   3  11  -7   37.83    4.58   0
  -3  11   7   31.81    4.11   0
  -3  11   7   29.66    4.68   0
  -3 -11   7   15.59    4.47   0
   3 -11  -7   36.30    3.59   0
  -2  11   7  155.92    5.06   0
  -2  11   7  229.47    4.40   0
   2  11  -7  177.08    4.73   0
  -2 -11   7  195.97    4.97   0
   2 -11  -7  217.59    4.22   0
   1  11  -7   54.36    4.22   0
  -1  11   7   37.14    4.99   0
  -1  11   7   80.13    3.80   0
  -1 -11   7   30.33    4.60   0
   1 -11  -7   59.53    3.84   0
   0  11  -7   42.30    4.35   0
   0  11   7   33.74    4.98   0
   0  11   7   68.60    4.24   0
   0 -11   7   38.35    3.46   0
   0 -11  -7   43.74    2.86   0
   1  11   7   51.37    3.95   0
  -1  11  -7   33.87    4.41   0
   1  11   7   22.11    5.00   0
  -1 -11  -7   40.20    3.98   0
   1 -11   7   47.02    4.97   0
  10   0  -8   19.63    6.16   0
 -10   0   8   38.90    5.83   0
  10   0  -8   29.94    8.60   0
   8   0  -8 2686.04   10.17   0
  -8   0   8 2687.39   10.46   0
   6   0  -8  128.50    5.90   0
  -6   0   8  207.96    7.34   0
   4   0  -8 4180.03   16.20   0
  -4   0   8 5217.18   15.38   0
   2   0  -8  215.93    7.54   0
  -2   0   8  303.64    9.62   0
   0   0   8   22.46    8.90   0
   0   0  -8   13.39    5.69   0
   2   0   8   46.12    5.17   0
  -2   0  -8   42.75    5.97   0
  -6   0  -8   12.21    4.70   0
  11   1  -8    8.06    5.61   0
  11   1  -8    5.88    4.20   0
 -11   1   8    9.94    5.28   0
  11   1  -8    0.79    6.96   0
  11  -1  -8  -10.48    5.91   0
  10   1  -8    2.08    1.76   0
 -10   1   8    2.25    1.81   0
  10   1  -8    1.88    2.30   0
  10  -1  -8    2.12    2.31   0
   9   1  -8  153.94    4.93   0
  -9   1   8  213.93    6.21   0
   9  -1  -8  208.26    6.32   0
  -9  -1   8  192.05    6.97   0
   9  -1  -8  129.81    5.19   0
   8   1  -8  138.91    7.32   0
  -8   1   8   91.48    4.98   0
   8  -1  -8   98.30    5.32   0
  -8  -1   8  101.82    6.73   0
   7   1  -8  416.47    8.80   0
  -7   1   8  412.47    8.37   0
   7  -1  -8  355.30    8.37   0
  -7  -1   8  270.11    6.21   0
   6   1  -8  111.68    8.10   0
  -6   1   8   66.69    5.77   0
   6  -1  -8  101.78    8.12   0
  -6  -1   8  144.16    7.43   0
   5   1  -8  446.60    9.27   0
  -5   1   8  466.78    8.67   0
   5  -1  -8  340.22    9.25   0
  -5  -1   8  436.50    8.38   0
   4   1  -8  358.01    5.08   0
  -4   1   8  362.46    8.87   0
   4  -1  -8  257.41    9.65   0
  -4  -1   8  348.18    8.62   0
   3   1  -8   60.22    4.83   0
  -3   1   8   72.02    8.72   0
  -3  -1   8   68.46    8.68   0
   3  -1  -8   67.09    8.68   0
   2   1  -8   -2.53    4.74   0
  -2   1   8   20.14    5.78   0
  -2  -1   8   11.21    9.42   0
   2  -1  -8   10.48    5.20   0
   1   1  -8  327.75    5.18   0
  -1   1   8  241.68    6.41   0
  -1  -1   8  342.75    4.66   0
   1  -1  -8  294.65    6.65   0
   0   1  -8   32.06    7.33   0
   0   1   8   26.99    7.48   0
   0  -1   8   37.39    9.00   0
   0  -1  -8   30.24    5.39   0
   1   1   8  219.71    8.04   0
   1  -1   8  219.09    9.26   0
  -1  -1  -8  217.02    6.13   0
   2   1   8  216.00    8.65   0
  -2   1  -8  153.26    6.42   0
   2  -1   8  190.60    9.05   0
   3   1   8  298.03    5.67   0
  -3   1  -8  236.88    9.50   0
  -3   1  -8  147.77    7.15   0
  -3  -1  -8  296.57    6.06   0
  -3  -1  -8  221.37    5.61   0
   4   1   8   15.04    5.09   0
  -4  -1  -8    5.39    5.30   0
  -4  -1  -8   -0.10    4.90   0
  -5  -1  -8    1.83    1.97   0
  -6   1  -8  204.91    5.51   0
  -6  -1  -8  157.81    4.00   0
  -7   1  -8    3.93    4.55   0
  -7  -1  -8   15.46    4.54   0
  11   2  -8   30.84    7.21   0
  11   2  -8   49.78    5.52   0
  11   2  -8   19.03    4.89   0
 -11   2   8    8.03    5.48   0
  11  -2  -8   42.94    6.29   0
  10   2  -8  -11.13    5.84   0
 -10   2   8   -7.79    5.55   0
  10   2  -8  -11.73    4.84   0
  10  -2  -8   -8.68    5.91   0
   9   2  -8   12.50    2.16   0
  -9   2   8   12.80    2.15   0
   9   2  -8   13.09    2.36   0
   9  -2  -8   13.03    1.50   0
   8   2  -8   21.25    5.01   0
  -8   2   8   49.60    6.76   0
   8  -2  -8   33.23    7.15   0
   7   2  -8  156.86    7.75   0
  -7   2   8  152.45    7.96   0
   7  -2  -8   92.69    8.20   0
   6   2  -8   11.13    6.03   0
  -6   2   8  -12.25    8.13   0
  -6  -2   8  -11.25    8.57   0
   6  -2  -8   20.23    8.24   0
  -5   2   8  289.09    7.78   0
   5   2  -8  262.53    8.81   0
  -5  -2   8  185.26    6.29   0
   5  -2  -8  208.59    8.21   0
  -4   2   8   33.05    5.17   0
   4   2  -8   32.96    4.75   0
  -4  -2   8   32.74    5.26   0
   4  -2  -8   33.49    4.76   0
  -3   2   8   56.84    5.43   0
   3   2  -8   55.06    5.04   0
  -3  -2   8   30.16    8.66   0
   3  -2  -8   44.96    6.86   0
  -2   2   8    1.05    6.61   0
   2   2  -8   19.44   10.98   0
  -2  -2   8   22.67    8.08   0
   2  -2  -8   19.85    6.27   0
  -1   2   8  100.21    4.70   0
   1   2  -8   75.67    9.13   0
  -1  -2   8  139.19    8.10   0
   1  -2  -8  131.14    5.87   0
   0   2  -8   29.32    4.81   0
   0   2   8   23.03    5.77   0
   0  -2  -8   25.93    5.20   0
   1   2   8   79.37    5.99   0
  -1   2  -8   89.39    7.84   0
  -1  -2  -8   65.47    4.91   0
  -1  -2  -8   80.83    4.43   0
   2   2   8  149.12    6.64   0
  -2   2  -8  121.93    7.39   0
  -2   2  -8  113.29    6.82   0
  -2  -2  -8  133.62    5.59   0
  -2  -2  -8  106.78    4.65   0
   3   2   8 1228.43   10.94   0
  -3  -2  -8  835.08    5.76   0
   4   2   8  397.12    8.85   0
  -4  -2  -8  217.78    4.66   0
  -4  -2  -8  317.13    4.41   0
   5   2   8    0.71    2.26   0
  -5  -2  -8    0.66    1.60   0
  -5  -2  -8    0.74    1.63   0
   6   2   8  354.33    5.32   0
   6   2   8  411.75    4.78   0
  -6  -2  -8  375.64    5.87   0
  -7   2  -8  695.64    6.72   0
  -7  -2  -8  672.72    6.18   0
  11   3  -8   77.88    6.48   0
  11   3  -8   55.34    6.64   0
  11   3  -8   79.21    5.47   0
 -11   3   8   55.37    5.73   0
  11  -3  -8   40.98    4.54   0
  10   3  -8  119.31    6.27   0
 -10   3   8  120.51    6.23   0
  10   3  -8   87.24    5.43   0
  10  -3  -8   97.50    6.34   0
   9   3  -8   -5.12    7.14   0
   9   3  -8    5.09    4.98   0
  -9   3   8   -0.01    6.38   0
   9  -3  -8   25.44    5.96   0
   8   3  -8   74.61    5.23   0
  -8   3   8  103.52    7.07   0
   8   3  -8   82.61    7.53   0
   8  -3  -8   56.24    4.97   0
   7   3  -8  570.17    8.72   0
  -7   3   8  455.31    6.62   0
   7   3  -8  652.63    9.28   0
   7  -3  -8  528.74    8.71   0
  -6   3   8  191.47    7.65   0
   6   3  -8  182.26    8.16   0
   6   3  -8  174.74    8.72   0
   6  -3  -8   97.89    9.05   0
   6  -3  -8  168.07    8.29   0
  -5   3   8  133.24    6.60   0
   5   3  -8  137.83    8.15   0
   5   3  -8  119.17    7.83   0
   5  -3  -8   58.77    7.36   0
   5  -3  -8   98.83    6.62   0
  -4   3   8   13.48    4.39   0
   4   3  -8   12.62    4.72   0
   4   3  -8   12.76    4.68   0
   4  -3  -8   13.06    4.72   0
   4  -3  -8   13.00    5.11   0
  -3   3   8   -8.36    5.56   0
   3   3  -8  -10.77    6.57   0
   3   3  -8    4.10    7.80   0
   3  -3  -8    2.57    6.70   0
   3  -3  -8   -3.72    6.00   0
  -2   3   8    6.80    5.45   0
   2   3  -8   12.00    5.11   0
   2   3  -8    4.24    7.43   0
   2  -3  -8   -0.82    6.76   0
   2  -3  -8    3.78    4.08   0
  -1   3   8   40.77    5.56   0
   1   3  -8   38.56    4.63   0
   1   3  -8   28.99    6.72   0
   1  -3  -8   24.61    3.80   0
   1  -3  -8   14.56    6.57   0
   0   3   8   15.96    5.24   0
   0   3  -8   17.10    4.97   0
   0   3  -8   15.17    5.75   0
   0  -3  -8   17.13    4.85   0
   0  -3  -8   19.99    6.11   0
   1   3   8  109.82    5.16   0
  -1   3  -8  114.02    6.73   0
  -1  -3  -8   93.36    4.55   0
  -1  -3  -8   99.80    4.77   0
   2   3   8  484.73    6.65   0
  -2   3  -8  438.68    4.23   0
  -2   3  -8  377.44    7.64   0
  -2  -3  -8  371.63    5.45   0
  -2  -3  -8  445.97    6.66   0
   3   3   8    3.22    5.36   0
  -3  -3  -8    3.13    4.72   0
  -3  -3  -8    2.93    4.39   0
   4   3   8  550.40    7.53   0
  -4  -3  -8  429.34    5.67   0
   5   3   8  328.22    7.56   0
  -5  -3  -8  263.89    4.27   0
  -5  -3  -8  324.93    5.65   0
   6   3   8  239.28    8.88   0
  -6  -3  -8  287.78    6.86   0
  -6  -3  -8  259.92    5.18   0
  11   4  -8   72.46    6.60   0
  11   4  -8   67.45    7.36   0
 -11   4   8   68.85    6.06   0
  11  -4  -8   38.41    6.17   0
  10   4  -8    6.76    5.08   0
  10   4  -8   14.73    4.74   0
 -10   4   8    2.43    4.68   0
  10  -4  -8  -12.41    5.98   0
   9   4  -8   14.20    6.71   0
  -9   4   8   -4.83    6.67   0
   9   4  -8   -0.24    5.08   0
   9  -4  -8   10.51    6.55   0
  -8   4   8  224.01    3.63   0
   8   4  -8  224.18    4.25   0
   8   4  -8  224.06    3.93   0
   8  -4  -8  224.32    4.14   0
  -7   4   8  474.68    7.48   0
   7   4  -8  544.09    7.79   0
   7   4  -8  433.68    6.15   0
   7  -4  -8  355.30    5.59   0
  -6   4   8   -5.72    6.28   0
   6   4  -8   21.51    7.19   0
   6   4  -8   -9.61    5.63   0
   6  -4  -8   11.33    6.32   0
  -5   4   8  567.46    7.35   0
   5   4  -8  523.14    8.54   0
   5   4  -8  496.89    8.52   0
   5  -4  -8  280.79    8.30   0
   5  -4  -8  358.45    5.44   0
  -4   4   8  165.42    5.74   0
   4   4  -8  144.40    7.07   0
   4   4  -8  174.26    8.20   0
   4  -4  -8  123.47    7.64   0
   4  -4  -8  109.79    4.55   0
  -3   4   8   22.65    2.35   0
   3   4  -8   22.69    2.35   0
   3   4  -8   23.08    1.96   0
   3  -4  -8   22.96    2.34   0
   3  -4  -8   23.46    2.45   0
  -2   4   8    7.01    2.12   0
   2   4  -8    6.86    2.29   0
   2   4  -8    6.54    1.70   0
   2  -4  -8    6.99    1.86   0
   2  -4  -8    6.93    2.22   0
  -1   4   8   51.97    3.77   0
   1   4  -8   70.35    5.46   0
   1   4  -8   65.27    9.23   0
   1  -4  -8   73.84    5.24   0
   1  -4  -8   77.55    5.97   0
   0   4  -8  386.04   12.84   0
   0   4  -8  351.40    6.25   0
   0   4   8  422.93    5.65   0
   0  -4  -8  412.53    5.38   0
   0  -4  -8  372.54    6.67   0
  -1   4  -8   11.05    6.09   0
   1   4   8    0.27    3.44   0
  -1  -4  -8    9.64    4.25   0
  -1  -4  -8    4.69    4.45   0
  -2   4  -8  127.30   13.28   0
  -2   4  -8  111.97    5.58   0
   2   4   8  161.02    5.15   0
  -2  -4  -8  149.93    4.45   0
  -2  -4  -8  141.65    6.21   0
  -3   4  -8   64.66    7.65   0
  -3   4  -8   79.91    9.03   0
   3   4   8  120.52    5.02   0
  -3  -4  -8  121.30    5.12   0
  -3  -4  -8  114.55    4.33   0
   4   4   8   32.50    4.81   0
  -4  -4  -8   38.22    4.15   0
  -4  -4  -8   42.92    5.04   0
   5   4   8   27.68    5.01   0
  -5  -4  -8    0.61    4.98   0
   6   4   8  180.05    6.59   0
  -6  -4  -8  180.45    5.51   0
  -6  -4  -8  143.30    3.95   0
  10   5  -8   28.48    6.90   0
 -10   5   8   32.67    4.83   0
  10   5  -8   62.75    6.72   0
  10  -5  -8   64.19    6.53   0
  -9   5   8  236.74    7.19   0
   9   5  -8  261.65    7.12   0
   9   5  -8  198.23    5.32   0
   9  -5  -8  273.91    6.63   0
   8   5  -8   17.82    6.49   0
  -8   5   8   27.75    6.50   0
   8   5  -8   82.35    6.49   0
   8  -5  -8   57.97    5.86   0
   7   5  -8  227.84    6.65   0
  -7   5   8  129.80    4.69   0
   7   5  -8  194.26    6.92   0
   7  -5  -8  202.48    6.26   0
   6   5  -8 1090.40    8.70   0
  -6   5   8 1045.11    7.89   0
   6   5  -8  767.10    6.72   0
   6  -5  -8 1034.59    7.82   0
   5   5  -8 1438.86    9.14   0
  -5   5   8  974.08    5.99   0
   5   5  -8 1375.76    9.51   0
   5  -5  -8 1376.54    8.16   0
  -4   5   8  179.20    4.33   0
   4   5  -8  181.61    5.08   0
   4   5  -8  228.43    7.33   0
   4  -5  -8  274.63    6.21   0
  -3   5   8  193.81    5.33   0
   3   5  -8  200.11    6.10   0
   3   5  -8  207.49    7.35   0
   3  -5  -8  178.51    6.95   0
   3  -5  -8  149.50    4.30   0
   2   5  -8  160.86    7.31   0
   2   5  -8   97.93    4.20   0
  -2   5   8  164.59    5.40   0
   2  -5  -8  137.17    5.49   0
   2  -5  -8  141.11    6.66   0
   1   5  -8  694.46    9.63   0
   1   5  -8  618.65    6.12   0
  -1   5   8  794.18    5.95   0
   1  -5  -8  775.99    5.96   0
   1  -5  -8  614.11    7.27   0
   0   5  -8    2.76    4.80   0
   0   5   8    2.83    4.62   0
   0   5  -8    3.41    5.37   0
   0  -5  -8    3.42    4.77   0
   0  -5  -8    2.65    4.75   0
  -1   5  -8   10.90    5.73   0
   1   5   8   -0.31    4.68   0
  -1  -5  -8    5.23    4.41   0
  -1  -5  -8   15.75    6.03   0
  -2   5  -8   18.18    5.37   0
  -2   5  -8   11.22    5.10   0
   2   5   8    8.90    4.35   0
  -2  -5  -8   15.47    5.49   0
  -2  -5  -8   11.83    4.14   0
  -3   5  -8   49.28    4.70   0
  -3   5  -8   44.23    5.77   0
   3   5   8   63.93    4.32   0
  -3  -5  -8   52.65    5.41   0
  -3  -5  -8   61.93    4.23   0
   4   5   8   33.20    4.71   0
  -4  -5  -8   37.86    4.65   0
  -4  -5  -8   28.59    4.85   0
   5   5   8   20.02    4.82   0
  -5  -5  -8   42.39    3.97   0
   6   5   8    1.81    1.53   0
 -10   6   8   65.20    7.10   0
  10   6  -8   35.11    5.78   0
  10   6  -8   35.99    6.96   0
  10  -6  -8   52.62    6.04   0
  -9   6   8  127.44    7.06   0
   9   6  -8   92.12    6.30   0
   9   6  -8  113.69    6.22   0
   9  -6  -8  103.39    5.52   0
  -8   6   8   -7.95    4.35   0
   8   6  -8   69.01    6.12   0
   8   6  -8   23.31    4.52   0
   8  -6  -8   30.18    5.60   0
  -7   6   8  108.91    5.35   0
   7   6  -8   94.07    6.37   0
   7   6  -8   89.19    5.94   0
   7  -6  -8  111.59    5.57   0
  -6   6   8   24.32    4.88   0
   6   6  -8   12.56    5.97   0
   6   6  -8    8.04    5.80   0
   6  -6  -8    3.25    5.28   0
  -5   6   8  711.03    6.36   0
   5   6  -8  483.50    5.59   0
   5   6  -8  650.66    7.13   0
   5  -6  -8  696.75    6.50   0
  -4   6   8   28.57    5.11   0
   4   6  -8   35.99    5.89   0
   4   6  -8   19.46    5.72   0
   4  -6  -8   24.69    5.30   0
   3   6  -8   57.32    6.08   0
   3   6  -8   62.69    5.61   0
  -3   6   8   57.25    5.20   0
   3  -6  -8   51.97    4.97   0
   2   6  -8   41.45    6.22   0
   2   6  -8   37.80    5.07   0
  -2   6   8   31.16    4.62   0
   2  -6  -8   47.00    4.69   0
   1   6  -8   50.82    5.02   0
   1   6  -8   43.97    4.88   0
  -1   6   8   46.04    4.59   0
   1  -6  -8   59.95    4.95   0
   0   6  -8   22.57    1.69   0
   0   6  -8   23.14    2.25   0
   0   6   8   22.87    1.66   0
   0  -6  -8   22.58    2.21   0
  -1   6  -8    0.80    1.63   0
  -1   6  -8    0.85    2.49   0
   1   6   8    0.77    1.53   0
  -1  -6  -8    0.79    2.45   0
   2   6   8    7.95    4.18   0
  -2   6  -8   11.14    4.89   0
  -2  -6  -8   25.23    3.97   0
  -3   6  -8   18.63    5.18   0
  -3   6  -8   17.57    5.48   0
   3   6   8   29.67    4.48   0
  -3  -6  -8   35.64    4.17   0
   4   6   8  631.39    4.92   0
  -4  -6  -8  631.02    5.43   0
   5   6   8   35.84    4.73   0
  -5  -6  -8   33.44    4.23   0
  -9   7   8   81.10    6.11   0
   9   7  -8    9.13    4.09   0
   9   7  -8   25.66    4.55   0
   9  -7  -8   41.67    5.36   0
  -8   7   8   12.47    5.26   0
   8   7  -8   19.15    5.53   0
   8   7  -8   -5.85    5.27   0
   8  -7  -8   10.83    3.70   0
  -7   7   8   41.21    4.85   0
   7   7  -8   51.32    5.68   0
   7   7  -8   53.14    5.35   0
   7  -7  -8   29.74    3.67   0
  -6   7   8   -0.84    4.59   0
   6   7  -8   -0.50    5.50   0
   6   7  -8    3.06    4.00   0
   6  -7  -8   14.11    4.75   0
  -5   7   8   55.99    4.66   0
   5   7  -8   30.94    3.99   0
   5   7  -8   38.11    5.40   0
   5  -7  -8   30.28    4.83   0
   4   7  -8   13.76    5.47   0
   4   7  -8   11.21    4.65   0
  -4   7   8   12.55    4.50   0
   4  -7  -8    7.59    3.17   0
   3   7  -8   -0.22    3.62   0
   3   7  -8   29.76    5.18   0
  -3   7   8    0.36    3.17   0
   3  -7  -8   13.91    3.23   0
   2   7  -8   16.85    3.57   0
   2   7  -8   12.84    6.11   0
  -2   7   8   19.14    4.46   0
   2  -7  -8   18.06    4.23   0
   1   7  -8    0.60    2.42   0
   1   7  -8    0.63    1.79   0
  -1   7   8    0.65    2.25   0
   1  -7  -8    0.60    2.21   0
   0   7  -8  107.82    6.64   0
   0   7  -8  108.64    4.76   0
   0   7   8  132.92    4.17   0
   0  -7  -8  113.45    4.34   0
  -1   7  -8  237.63    7.53   0
  -1   7  -8  178.21    4.65   0
   1   7   8  240.09    4.31   0
  -1  -7  -8  249.18    4.26   0
  -2   7  -8    2.35    2.20   0
   2   7   8    2.46    2.22   0
  -2  -7  -8    2.46    1.92   0
  -3   7  -8    0.22    4.63   0
  -3   7  -8    0.20    4.60   0
   3   7   8    0.16    4.32   0
  -3  -7  -8    0.17    4.07   0
  -4   7  -8  159.82    9.75   0
  -4   7  -8  141.89    8.43   0
   4   7   8  220.96    4.66   0
  -4  -7  -8  203.40    4.13   0
   5   7   8 1572.84    8.22   0
  -5  -7  -8 1574.59    7.40   0
   8   8  -8    2.92    3.96   0
  -8   8   8   12.28    5.17   0
   8   8  -8   12.51    4.62   0
   8  -8  -8    3.83    5.05   0
   7   8  -8   86.13    5.11   0
  -7   8   8  122.78    4.92   0
   7   8  -8   72.95    3.85   0
   7  -8  -8   95.50    5.19   0
  -6   8   8  104.82    5.06   0
   6   8  -8   72.72    3.96   0
   6   8  -8   59.36    4.06   0
   6  -8  -8   91.82    5.02   0
  -5   8   8  287.41    4.96   0
   5   8  -8  181.38    4.12   0
   5   8  -8  281.41    5.87   0
   5  -8  -8  305.30    5.06   0
   4   8  -8    2.75    1.81   0
   4   8  -8    3.00    1.99   0
  -4   8   8    2.81    2.40   0
   4  -8  -8    3.13    2.23   0
   3   8  -8    4.94    4.82   0
   3   8  -8   -2.74    4.74   0
  -3   8   8    0.71    3.13   0
   3  -8  -8    6.86    3.18   0
   2   8  -8   32.83    3.43   0
   2   8  -8   32.97    3.17   0
  -2   8   8   33.43    3.03   0
   2  -8  -8   32.60    3.27   0
   1   8  -8    4.41    2.30   0
   1   8  -8    4.25    2.28   0
  -1   8   8    4.14    2.00   0
   1  -8  -8    4.28    2.32   0
   0   8  -8    8.86    5.91   0
   0   8  -8    6.57    4.56   0
   0   8   8   12.16    4.19   0
   0  -8  -8    1.02    2.91   0
  -1   8  -8   49.47    6.44   0
   1   8   8   50.49    4.45   0
  -1   8  -8   49.46    4.45   0
  -1  -8  -8   60.36    3.99   0
  -2   8  -8   36.06    5.13   0
   2   8   8   55.03    4.16   0
  -2  -8  -8   51.33    3.99   0
  -3   8  -8   48.26    5.11   0
  -3   8  -8   29.34    9.44   0
   3   8   8   64.18    4.37   0
  -3  -8  -8   61.88    4.18   0
  -4   8  -8  150.81    5.78   0
  -4   8  -8  146.51    6.55   0
   4   8   8  242.40    4.53   0
  -4  -8  -8  177.83    4.23   0
  -7   9   8  111.23    4.89   0
   7   9  -8   65.15    5.30   0
   7   9  -8   63.62    4.99   0
   7  -9  -8   90.10    5.09   0
  -6   9   8  624.41    5.97   0
   6   9  -8  353.02    4.94   0
   6   9  -8  492.24    6.51   0
   6  -9  -8  623.50    5.78   0
   5   9  -8   83.19    3.70   0
   5   9  -8  122.36    5.36   0
  -5   9   8  137.29    4.67   0
   5  -9  -8  128.55    4.64   0
   4   9  -8    9.61    4.75   0
   4   9  -8   -1.48    5.12   0
  -4   9   8   -9.44    3.08   0
   4  -9  -8    6.39    4.05   0
   3   9  -8   74.61    4.50   0
   3   9  -8   71.54    5.22   0
  -3   9   8   96.57    4.49   0
   3  -9  -8   88.12    4.45   0
   2   9  -8  307.44    5.52   0
   2   9  -8  200.69    3.68   0
  -2   9   8  351.68    4.87   0
   2  -9  -8  338.26    4.55   0
   1   9  -8   16.23    5.26   0
   1   9  -8   -3.08    3.12   0
  -1   9   8    2.35    3.04   0
   1  -9  -8    4.00    4.27   0
   0   9  -8    1.58    5.69   0
   0   9   8    1.47    4.44   0
   0   9  -8    1.56    4.56   0
   0  -9  -8    1.46    4.38   0
  -1   9  -8   30.88    4.74   0
  -1   9  -8   21.90    5.40   0
   1   9   8   50.78    3.95   0
  -1  -9  -8   36.75    3.86   0
  -2   9  -8    4.93    4.27   0
  -2   9  -8   13.85    6.21   0
   2   9   8   17.27    4.20   0
  -2  -9  -8    1.44    4.05   0
  -3   9  -8   11.30    4.42   0
   3   9   8   12.53    4.30   0
  -3  -9  -8   19.70    4.11   0
  -6  10   8   36.04    4.47   0
   6  10  -8   22.21    5.14   0
   6  10  -8   26.88    3.71   0
   6 -10  -8   38.97    4.47   0
   5  10  -8   74.47    5.26   0
   5  10  -8   73.77    5.16   0
  -5  10   8   85.11    4.54   0
   5 -10  -8   75.33    3.13   0
   4  10  -8   -4.09    3.38   0
   4  10  -8   -7.86    4.72   0
  -4  10   8   -6.10    3.90   0
   4 -10  -8    7.88    3.74   0
   3  10  -8   83.86    3.85   0
   3  10  -8  121.01    4.90   0
  -3  10   8  141.87    4.43   0
   3 -10  -8  142.42    4.23   0
   2  10  -8   94.87    5.43   0
   2  10  -8  126.51    4.33   0
  -2  10   8  113.08    4.12   0
   2 -10  -8  139.47    4.25   0
   1  10  -8    6.25    2.13   0
  -1  10   8    5.94    1.94   0
   1  10  -8    6.45    2.45   0
   1 -10  -8    6.27    1.88   0
   0  10  -8  293.75    6.03   0
   0  10   8  311.90    4.60   0
   0  10  -8  288.88    4.87   0
   0 -10  -8  240.77    3.53   0
  -1  10  -8   37.56    4.87   0
  -1  10  -8   52.67    6.30   0
   1  10   8   44.43    4.42   0
  -1 -10  -8   51.49    3.87   0
   3  11  -8   34.39    4.58   0
   3  11  -8   50.88    4.28   0
  -3  11   8   44.03    3.13   0
   3 -11  -8   69.87    4.01   0
   2  11  -8   -6.23    5.18   0
  -2  11   8   -3.79    4.18   0
   2  11  -8   14.37    4.59   0
   2 -11  -8   15.55    3.92   0
   1  11  -8    3.36    5.04   0
  -1  11   8   10.21    3.16   0
   1  11  -8   -3.08    4.09   0
   1 -11  -8    7.58    4.10   0
  11   0  -9   38.62    4.12   0
 -11   0   9   23.95    4.36   0
  11   0  -9   33.78    9.48   0
   9   0  -9  203.07    6.25   0
  -9   0   9  176.04    5.96   0
   7   0  -9   61.01    5.71   0
  -7   0   9  110.24    6.62   0
   5   0  -9 1506.97   11.09   0
  -5   0   9 1349.05    8.04   0
   3   0  -9  452.98    8.26   0
  -3   0   9  842.28    9.85   0
  -1   0   9  358.42    9.22   0
   1   0  -9  311.95    7.53   0
   1   0   9  133.96   10.64   0
   3   0   9   32.21   10.83   0
  -3   0  -9   25.95    4.79   0
  -5   0  -9   31.56    4.83   0
  11   1  -9   42.80    5.95   0
  11   1  -9   42.49    4.33   0
 -11   1   9   43.11    5.64   0
  11   1  -9   40.11    7.77   0
  11  -1  -9   40.86    5.34   0
  10   1  -9    8.52    5.38   0
 -10   1   9    5.63    5.22   0
  10  -1  -9   16.43    5.47   0
   9   1  -9   49.13    5.76   0
  -9   1   9   37.35    4.29   0
   9  -1  -9   56.30    5.94   0
  -9  -1   9   32.06    6.20   0
   8   1  -9  155.35    6.91   0
  -8   1   9  149.29    6.82   0
   8  -1  -9  170.89    6.62   0
  -8  -1   9  136.13    6.32   0
   7   1  -9  101.92    5.63   0
  -7   1   9  123.63    7.58   0
   7  -1  -9  103.62    8.23   0
  -7  -1   9  148.16    7.28   0
   6   1  -9   55.81    5.86   0
  -6   1   9   57.14    7.24   0
   6  -1  -9   36.85    6.18   0
  -6  -1   9   48.71    5.25   0
   5   1  -9  338.36    9.25   0
  -5   1   9  354.98    8.29   0
   5  -1  -9  217.13    8.73   0
  -5  -1   9  315.95    7.63   0
   4   1  -9 1405.33   10.02   0
  -4   1   9 2056.90   11.42   0
   4  -1  -9 1573.96   11.98   0
  -4  -1   9 1891.58   11.02   0
   3   1  -9   -6.98   10.13   0
  -3   1   9    4.71    8.65   0
  -3  -1   9  -13.22    7.49   0
   3  -1  -9   12.17    8.74   0
   2   1  -9   28.16    2.17   0
  -2   1   9   28.18    2.35   0
  -2  -1   9   27.80    2.16   0
   2  -1  -9   27.65    1.62   0
   1   1  -9  -17.41    8.77   0
  -1   1   9   -4.72    7.66   0
  -1  -1   9   15.78    8.47   0
   1  -1  -9   -0.32    6.01   0
   0   1   9  638.64    9.71   0
   0   1  -9  541.69    8.71   0
   0  -1   9  566.55    6.25   0
   0  -1  -9  448.08    6.04   0
   1   1   9  337.49    6.31   0
   1  -1   9  330.65    6.19   0
  -1  -1  -9  230.72    6.01   0
  -2   1  -9    1.05    5.32   0
   2   1   9   26.79    3.13   0
   2  -1   9   11.91    8.19   0
   3   1   9   13.20    5.02   0
  -3   1  -9    3.83    5.03   0
  -3   1  -9    5.42    5.65   0
  -3  -1  -9    5.33    5.45   0
  -3  -1  -9    5.81    4.50   0
   4   1   9    2.65    2.25   0
  -4  -1  -9    2.67    2.26   0
  -4  -1  -9    2.78    1.72   0
  -5   1  -9   -3.13    3.73   0
  -5  -1  -9  -11.13    5.19   0
  -6   1  -9   98.12    5.06   0
  -6  -1  -9  113.41    3.92   0
  11   2  -9    2.21    5.94   0
 -11   2   9    1.98    5.09   0
  11   2  -9   12.15    5.61   0
  11  -2  -9   -8.55    5.87   0
  10   2  -9   21.49    3.35   0
  10   2  -9   21.15    3.13   0
 -10   2   9   20.59    3.18   0
  10  -2  -9   20.52    2.80   0
   9   2  -9  103.15    6.51   0
   9   2  -9  123.12    6.31   0
  -9   2   9  117.47    6.19   0
   9  -2  -9  138.66    6.56   0
   8   2  -9   71.68    6.73   0
  -8   2   9   93.43    6.75   0
   8  -2  -9   34.70    9.85   0
   8  -2  -9  101.92    7.04   0
   7   2  -9  -13.69    7.45   0
  -7   2   9    6.37    6.79   0
  -7  -2   9   11.68    7.27   0
   7  -2  -9   16.91    7.69   0
   6   2  -9  124.28    6.09   0
  -6   2   9  213.14    8.43   0
  -6  -2   9  155.07    7.56   0
   6  -2  -9  125.17    8.92   0
   5   2  -9  228.18    8.59   0
  -5   2   9  192.96    6.38   0
  -5  -2   9  232.69    8.70   0
   5  -2  -9  182.85    8.56   0
   4   2  -9    9.67    3.99   0
  -4   2   9   10.48    3.51   0
  -4  -2   9    9.62    3.99   0
   4  -2  -9    9.73    4.02   0
   3   2  -9   63.60    9.38   0
  -3   2   9   71.58    5.24   0
  -3  -2   9   63.55    8.35   0
   3  -2  -9   61.05    6.76   0
   2   2  -9  209.64    5.24   0
  -2   2   9  246.30    6.88   0
  -2  -2   9  193.11    8.05   0
   2  -2  -9  244.59    6.28   0
   1   2  -9    4.85    5.49   0
  -1   2   9   37.84    5.96   0
  -1  -2   9   26.56    7.40   0
   1  -2  -9   30.78    5.08   0
   0   2  -9   61.10    5.20   0
   0   2   9   78.01    6.57   0
   0  -2  -9   54.85    5.18   0
   1   2   9  165.55    7.05   0
  -1   2  -9  152.36    8.68   0
  -1  -2  -9  138.02    5.22   0
  -1  -2  -9  149.00    6.32   0
   2   2   9    1.97    4.98   0
  -2   2  -9    1.91    5.32   0
  -2   2  -9    1.94    5.36   0
  -2  -2  -9    1.96    5.46   0
  -2  -2  -9    1.94    4.32   0
   3   2   9  141.20    8.48   0
  -3  -2  -9   97.35    5.28   0
   4   2   9   88.21    9.54   0
  -4  -2  -9   68.89    4.89   0
  -4  -2  -9   58.31    3.80   0
   5   2   9  238.22    5.71   0
  -5  -2  -9  205.51    6.71   0
  -5  -2  -9  194.09    4.07   0
  -6   2  -9  567.02    6.70   0
  -6  -2  -9  550.84    5.98   0
  11   3  -9   -5.97    5.48   0
 -11   3   9    0.88    4.16   0
  11   3  -9   18.87    5.98   0
  11  -3  -9    7.33    4.48   0
  10   3  -9   28.86    4.45   0
  10   3  -9   47.13    6.57   0
 -10   3   9   18.14    6.12   0
  10  -3  -9   11.72    4.50   0
   9   3  -9   -0.84    4.77   0
  -9   3   9   -3.49    6.29   0
   9   3  -9   19.57    4.89   0
   9  -3  -9   11.59    6.34   0
   8   3  -9    1.91    6.59   0
  -8   3   9    7.07    6.86   0
   8   3  -9    5.17    6.28   0
   8  -3  -9   11.22    6.85   0
   7   3  -9  127.73    7.49   0
  -7   3   9  125.00    7.48   0
   7   3  -9  130.08    7.55   0
   7  -3  -9   74.40    9.40   0
   7  -3  -9   55.63    5.35   0
  -6   3   9   12.99    5.46   0
   6   3  -9   39.14    8.39   0
   6   3  -9   34.63    8.27   0
   6  -3  -9   28.24    8.38   0
   6  -3  -9   13.97    5.72   0
  -5   3   9    2.02    5.36   0
   5   3  -9    2.03    4.83   0
   5   3  -9    2.03    5.30   0
   5  -3  -9    2.05    4.93   0
   5  -3  -9    2.09    5.33   0
  -4   3   9  100.59    5.16   0
   4   3  -9   88.05    8.63   0
   4   3  -9  114.17    8.07   0
   4  -3  -9   80.44    7.76   0
   4  -3  -9  133.82    7.22   0
  -3   3   9    2.09    2.43   0
   3   3  -9    2.01    1.66   0
   3   3  -9    2.13    1.78   0
   3  -3  -9    1.96    2.37   0
   3  -3  -9    2.40    2.16   0
  -2   3   9   26.35    5.90   0
   2   3  -9   30.50    9.53   0
   2   3  -9   10.48    5.07   0
   2  -3  -9   16.29    5.36   0
   2  -3  -9   20.91    6.74   0
  -1   3   9   26.40    4.14   0
   1   3  -9   48.55    4.14   0
   1   3  -9   60.81    3.69   0
   1  -3  -9   60.23    5.33   0
   1  -3  -9   40.37    4.65   0
   0   3   9    4.95    3.86   0
   0   3  -9    3.69    4.15   0
   0   3  -9   -4.25    7.47   0
   0  -3  -9    7.07    4.92   0
   0  -3  -9   14.47    6.55   0
  -1   3  -9   30.21    6.82   0
   1   3   9   33.65    5.49   0
  -1  -3  -9   23.45    4.38   0
  -1  -3  -9   36.54    6.25   0
   2   3   9   63.35    5.58   0
  -2   3  -9   60.73    7.04   0
  -2   3  -9   41.78    5.62   0
  -2  -3  -9   71.11    5.01   0
  -2  -3  -9   51.95    5.46   0
   3   3   9  127.56    5.83   0
  -3  -3  -9   99.91    5.38   0
   4   3   9   -4.65    7.14   0
  -4  -3  -9    5.24    4.80   0
   5   3   9   44.04    7.77   0
  -5  -3  -9   37.35    5.11   0
  -5  -3  -9   39.60    5.14   0
   6   3   9   22.49   12.23   0
  -6  -3  -9   17.86    5.08   0
  -6  -3  -9   20.40    6.34   0
  10   4  -9   -8.52    4.84   0
 -10   4   9    9.70    6.24   0
  10   4  -9   11.94    6.54   0
  10  -4  -9    3.12    6.20   0
   9   4  -9    2.30    4.80   0
  -9   4   9   29.17    6.74   0
   9   4  -9  -19.87    6.94   0
   9  -4  -9   12.26    6.21   0
  -8   4   9  324.89    7.37   0
   8   4  -9  338.99    7.22   0
   8   4  -9  274.61    7.33   0
   8  -4  -9  276.30    7.34   0
  -7   4   9   90.78    4.96   0
   7   4  -9  125.50    7.09   0
   7   4  -9   92.49    5.09   0
   7  -4  -9   66.73    4.90   0
   6   4  -9 1010.24    9.41   0
  -6   4   9 1024.12    8.02   0
   6   4  -9  992.36    9.05   0
   6  -4  -9  694.67   11.10   0
   6  -4  -9  981.31    8.41   0
   5   4  -9  261.23    8.07   0
  -5   4   9  269.38    6.87   0
   5   4  -9  213.26    8.61   0
   5  -4  -9  176.32    8.81   0
   5  -4  -9  275.66    7.12   0
   4   4  -9  669.19    8.64   0
  -4   4   9  477.31    5.41   0
   4   4  -9  627.97    9.56   0
   4  -4  -9  500.09    8.70   0
   4  -4  -9  662.01    7.10   0
  -3   4   9  943.62    7.15   0
   3   4  -9  878.16    8.50   0
   3   4  -9  680.87    7.71   0
   3  -4  -9  915.79    7.06   0
   3  -4  -9  664.81    8.03   0
  -2   4   9 1323.30    7.38   0
   2   4  -9 1228.31    6.70   0
   2   4  -9 1196.88    8.55   0
   2  -4  -9 1235.72    7.39   0
   2  -4  -9 1074.14    8.83   0
  -1   4   9  290.73    5.73   0
   1   4  -9  267.09    5.40   0
   1   4  -9  258.32    6.37   0
   1  -4  -9  310.87    5.34   0
   1  -4  -9  254.48    6.91   0
   0   4   9   42.49    3.24   0
   0   4  -9   42.29    2.53   0
   0   4  -9   42.25    2.69   0
   0  -4  -9   42.32    2.78   0
   0  -4  -9   42.17    2.55   0
   1   4   9   95.29    5.10   0
  -1   4  -9   65.79    5.13   0
  -1  -4  -9  105.37    4.46   0
  -1  -4  -9   84.10    4.32   0
   2   4   9   24.62    4.95   0
  -2   4  -9    8.74    9.14   0
  -2   4  -9   13.23    5.01   0
  -2  -4  -9    4.11    4.31   0
  -2  -4  -9    1.82    5.44   0
   3   4   9  124.44    5.41   0
  -3  -4  -9   92.92    5.44   0
  -3  -4  -9  116.12    4.59   0
   4   4   9    9.42    6.13   0
  -4  -4  -9   16.74    4.80   0
  -4  -4  -9    8.45    5.09   0
   5   4   9    8.94    6.31   0
  -5  -4  -9   -3.79    3.46   0
  10   5  -9   49.28    6.49   0
 -10   5   9   38.58    4.96   0
  10   5  -9   32.99    5.13   0
  10  -5  -9   50.81    6.04   0
   9   5  -9   -1.48    6.53   0
  -9   5   9   26.34    6.81   0
   9   5  -9   25.60    6.26   0
   9  -5  -9   11.26    4.61   0
   8   5  -9   50.07    6.11   0
  -8   5   9   17.02    6.20   0
   8   5  -9   19.63    6.65   0
   8  -5  -9   35.24    5.98   0
  -7   5   9  321.60    5.06   0
   7   5  -9  291.85    5.54   0
   7   5  -9  388.05    7.58   0
   7  -5  -9  284.43    5.23   0
  -6   5   9   94.31    4.30   0
   6   5  -9  146.07    7.08   0
   6   5  -9  107.06    4.92   0
   6  -5  -9  145.99    6.09   0
  -5   5   9  582.86    6.71   0
   5   5  -9  562.29    7.92   0
   5   5  -9  412.77    5.89   0
   5  -5  -9  609.65    6.86   0
  -4   5   9  196.70    4.03   0
   4   5  -9  197.17    4.01   0
   4   5  -9  196.50    3.86   0
   4  -5  -9  197.28    3.56   0
   4  -5  -9  197.18    4.12   0
  -3   5   9 1512.17    7.64   0
   3   5  -9 1467.56    8.49   0
   3   5  -9 1366.52    8.56   0
   3  -5  -9 1058.85    5.73   0
   3  -5  -9 1052.90    8.93   0
  -2   5   9  195.62    5.53   0
   2   5  -9  163.79    5.64   0
   2   5  -9  188.81    8.00   0
   2  -5  -9  153.41    5.12   0
   2  -5  -9  163.76    6.68   0
  -1   5   9  209.92    5.13   0
   1   5  -9  210.70    4.80   0
   1   5  -9  209.60    4.73   0
   1  -5  -9  210.09    5.27   0
   1  -5  -9  209.66    5.52   0
   0   5  -9   62.46    5.37   0
   0   5  -9   45.71    5.14   0
   0   5   9   50.09    5.09   0
   0  -5  -9   52.77    4.46   0
   0  -5  -9   54.27    6.01   0
  -1   5  -9    7.89    4.64   0
   1   5   9   21.35    4.54   0
  -1  -5  -9   19.38    4.24   0
  -1  -5  -9   14.68    3.96   0
  -2   5  -9    1.87    4.00   0
  -2   5  -9    0.37    5.18   0
   2   5   9   -3.32    4.41   0
  -2  -5  -9   -4.39    4.01   0
  -2  -5  -9    7.53    4.35   0
  -3   5  -9   20.72    7.05   0
  -3   5  -9   19.78    8.77   0
   3   5   9   30.87    4.78   0
  -3  -5  -9   32.45    4.17   0
  -3  -5  -9   31.51    5.34   0
   4   5   9   64.58    4.91   0
  -4  -5  -9   50.64    4.21   0
  -4  -5  -9   34.13    5.05   0
   5   5   9   11.40    1.92   0
  -5  -5  -9   10.99    1.76   0
 -10   6   9   -4.87    6.71   0
  10   6  -9  -10.26    6.20   0
  10   6  -9   -3.76    6.25   0
  10  -6  -9   21.39    5.99   0
  -9   6   9   25.97    6.13   0
   9   6  -9   38.01    5.61   0
   9   6  -9    3.82    6.45   0
   9  -6  -9   -4.34    5.74   0
  -8   6   9   16.55    5.65   0
   8   6  -9   36.48    5.75   0
   8   6  -9    1.98    6.48   0
   8  -6  -9    0.51    4.10   0
  -7   6   9   93.02    5.85   0
   7   6  -9   84.00    6.59   0
   7   6  -9   64.45    4.70   0
   7  -6  -9   99.81    5.37   0
  -6   6   9  246.54    5.77   0
   6   6  -9  189.33    5.05   0
   6   6  -9  229.36    6.38   0
   6  -6  -9  218.73    5.68   0
  -5   6   9  154.64    4.95   0
   5   6  -9   94.89    4.95   0
   5   6  -9  112.50    5.68   0
   5  -6  -9  107.62    5.32   0
  -4   6   9   -0.31    4.57   0
   4   6  -9   12.12    6.49   0
   4   6  -9  -13.37    5.58   0
   4  -6  -9   13.62    3.53   0
  -3   6   9    2.71    3.36   0
   3   6  -9    8.56    7.07   0
   3   6  -9   -8.60    5.16   0
   3  -6  -9    8.86    4.82   0
  -2   6   9  127.00    3.67   0
   2   6  -9  124.71    5.85   0
   2   6  -9  161.59    5.33   0
   2  -6  -9  204.91    5.03   0
   1   6  -9  136.65    5.14   0
   1   6  -9  158.64    8.02   0
  -1   6   9  173.47    4.85   0
   1  -6  -9  164.30    4.35   0
   1  -6  -9  119.90    4.92   0
   0   6  -9   20.71    2.28   0
   0   6  -9   21.44    1.56   0
   0   6   9   21.45    2.40   0
   0  -6  -9   21.38    1.51   0
   0  -6  -9   20.87    1.84   0
  -1   6  -9   12.09    4.85   0
   1   6   9   15.64    4.64   0
  -1  -6  -9   29.66    3.99   0
  -1  -6  -9    0.46    3.94   0
  -2   6  -9  130.75    5.31   0
   2   6   9  166.42    4.80   0
  -2   6  -9  115.05    5.45   0
  -2  -6  -9  149.90    4.44   0
  -3   6  -9    7.81    2.20   0
  -3   6  -9    8.01    1.96   0
   3   6   9    8.47    1.66   0
  -3  -6  -9    7.54    2.19   0
   4   6   9   78.21    4.50   0
  -4  -6  -9   84.87    4.31   0
  -9   7   9   13.51    6.10   0
   9   7  -9  -14.27    5.63   0
   9   7  -9   11.74    5.71   0
   9  -7  -9  -10.46    5.22   0
  -8   7   9   42.37    4.23   0
   8   7  -9   67.46    5.79   0
   8   7  -9   66.70    6.14   0
   8  -7  -9   46.57    5.60   0
  -7   7   9   16.33    5.29   0
   7   7  -9   25.59    5.77   0
   7   7  -9   -4.12    5.31   0
   7  -7  -9   -6.69    5.33   0
  -6   7   9  154.56    5.42   0
   6   7  -9  111.71    4.62   0
   6   7  -9  142.44    5.99   0
   6  -7  -9  162.99    4.99   0
  -5   7   9   -4.02    3.39   0
   5   7  -9    6.32    4.06   0
   5   7  -9   -2.94    3.91   0
   5  -7  -9   11.78    4.55   0
  -4   7   9    3.03    1.53   0
   4   7  -9    2.82    1.52   0
   4   7  -9    2.64    2.00   0
   4  -7  -9    3.38    1.77   0
   3   7  -9   45.36    5.02   0
   3   7  -9   17.09    5.74   0
  -3   7   9   33.06    4.18   0
   3  -7  -9    9.32    4.50   0
   2   7  -9  154.39    5.34   0
   2   7  -9  156.72    6.56   0
  -2   7   9  178.20    4.76   0
   2  -7  -9  188.41    4.76   0
   1   7  -9   13.08    4.44   0
   1   7  -9   35.69    6.80   0
  -1   7   9   31.30    4.03   0
   1  -7  -9   35.70    3.95   0
   0   7  -9  134.56    8.02   0
   0   7  -9  139.31    4.80   0
   0   7   9  173.84    4.63   0
   0  -7  -9  180.99    4.15   0
  -1   7  -9   64.04    9.59   0
  -1   7  -9   46.02    4.41   0
   1   7   9   42.32    3.18   0
  -1  -7  -9   67.72    4.17   0
  -2   7  -9    6.13    5.15   0
   2   7   9    6.03    4.11   0
  -2  -7  -9    6.28    4.15   0
  -3   7  -9   88.12    5.35   0
  -3   7  -9   91.66    5.61   0
   3   7   9  107.14    4.61   0
  -3  -7  -9  112.09    4.26   0
   4   7   9  436.62    5.81   0
  -4  -7  -9  440.83    5.37   0
   8   8  -9   22.62    5.33   0
  -8   8   9   22.58    5.49   0
   8   8  -9    3.47    4.82   0
   8  -8  -9    6.69    5.22   0
   7   8  -9   19.75    5.22   0
  -7   8   9   15.44    4.86   0
   7   8  -9   -1.02    5.50   0
   7  -8  -9   19.76    5.17   0
   6   8  -9  331.43    6.29   0
  -6   8   9  335.83    5.57   0
   6   8  -9  315.31    6.45   0
   6  -8  -9  240.81    4.09   0
  -5   8   9  110.29    4.82   0
   5   8  -9   89.26    5.25   0
   5   8  -9   94.75    5.76   0
   5  -8  -9  103.57    4.54   0
  -4   8   9   37.11    4.21   0
   4   8  -9   11.60    3.73   0
   4   8  -9   49.78    5.66   0
   4  -8  -9   32.38    4.56   0
   3   8  -9   25.15    4.82   0
   3   8  -9   38.71    5.22   0
  -3   8   9   27.78    3.13   0
   3  -8  -9   28.93    4.51   0
   2   8  -9  215.97    5.14   0
   2   8  -9  166.30    6.01   0
  -2   8   9  215.74    4.76   0
   2  -8  -9  146.37    3.44   0
   1   8  -9    0.97    4.32   0
   1   8  -9    6.43    4.57   0
  -1   8   9   -1.19    3.00   0
   1  -8  -9    2.43    2.97   0
   0   8  -9    5.76    1.55   0
   0   8  -9    5.51    2.44   0
   0   8   9    6.07    1.93   0
   0  -8  -9    6.43    2.22   0
  -1   8  -9   52.26    7.55   0
   1   8   9   70.85    4.57   0
  -1   8  -9   51.97    4.36   0
  -1  -8  -9   78.64    4.37   0
  -2   8  -9   64.85    4.54   0
   2   8   9  105.53    4.19   0
  -2  -8  -9   90.90    4.02   0
  -3   8  -9    4.15    5.04   0
  -3   8  -9    3.88    5.54   0
   3   8   9    4.26    4.58   0
  -3  -8  -9    4.30    4.19   0
  -7   9   9  417.66    6.19   0
   7   9  -9  255.12    4.88   0
   7   9  -9  352.63    6.28   0
   7  -9  -9  412.61    6.01   0
  -6   9   9  187.64    5.20   0
   6   9  -9  196.80    5.86   0
   6   9  -9  166.54    5.42   0
   6  -9  -9  177.41    4.68   0
  -5   9   9   67.17    3.45   0
   5   9  -9   99.78    5.32   0
   5   9  -9   78.94    5.80   0
   5  -9  -9   98.33    4.64   0
   4   9  -9   10.09    4.93   0
   4   9  -9   14.31    5.47   0
  -4   9   9   34.91    4.47   0
   4  -9  -9   19.26    3.11   0
   3   9  -9 1219.93    7.19   0
   3   9  -9  842.00    6.45   0
  -3   9   9 1339.65    6.52   0
   3  -9  -9 1281.11    6.16   0
   2   9  -9   38.12    4.08   0
   2   9  -9   59.44    4.32   0
  -2   9   9   26.29    3.11   0
   2  -9  -9   32.08    3.25   0
   1   9  -9   23.95    5.74   0
   1   9  -9   24.29    4.30   0
  -1   9   9   23.70    4.47   0
   1  -9  -9   23.97    4.09   0
   0   9  -9  -12.04    5.64   0
   0   9  -9    8.26    4.30   0
   0   9   9    2.61    4.24   0
   0  -9  -9   -1.69    3.04   0
  -1   9  -9   49.86    4.48   0
  -1   9  -9   50.11    6.42   0
   1   9   9   58.50    4.10   0
  -1  -9  -9   67.00    3.94   0
  -2   9  -9   17.90    4.32   0
   2   9   9   16.60    3.25   0
  -2  -9  -9   26.46    3.92   0
  -5  10   9   19.22    4.54   0
   5  10  -9    7.69    4.88   0
   5  10  -9   20.40    3.65   0
   5 -10  -9   27.17    2.91   0
   4  10  -9   24.52    3.80   0
   4  10  -9    6.94    3.47   0
  -4  10   9   29.31    4.31   0
   4 -10  -9   19.46    4.04   0
   3  10  -9  284.60    5.96   0
   3  10  -9  303.05    5.29   0
  -3  10   9  341.34    3.85   0
   3 -10  -9  220.78    4.40   0
   2  10  -9  375.39    4.44   0
   2  10  -9  374.56    4.46   0
  -2  10   9  375.14    3.68   0
   2 -10  -9  374.51    3.56   0
   1  10  -9   -4.58    5.47   0
   1  10  -9   -1.73    4.08   0
  -1  10   9   24.27    3.95   0
   1 -10  -9   23.30    4.19   0
   0  10  -9   10.68    2.27   0
   0  10   9   10.59    2.00   0
   0  10  -9   11.44    2.10   0
   0 -10  -9   10.97    2.16   0
  10   0 -10  -13.02    5.76   0
 -10   0  10   26.03    5.25   0
   8   0 -10   38.67    5.80   0
  -8   0  10   25.80    4.03   0
   6   0 -10  280.75    8.69   0
  -6   0  10  161.64    5.39   0
   4   0 -10  951.45    9.31   0
  -4   0  10 1381.35    8.75   0
  -2   0  10 1148.09    8.32   0
   2   0 -10 1150.24   10.53   0
   0   0  10 2297.89   10.89   0
   0   0 -10 2297.62   10.66   0
  -2   0 -10   51.24    4.88   0
   2   0  10   56.22    8.85   0
  -4   0 -10    5.33    3.83   0
  11   1 -10   41.95    5.58   0
  11   1 -10   36.99    5.60   0
 -11   1  10   -3.48    5.46   0
  11  -1 -10   44.74    5.25   0
  10   1 -10   74.14    5.49   0
 -10   1  10   88.20    5.45   0
  10  -1 -10   94.93    6.13   0
  10  -1 -10   59.61   12.51   0
   9   1 -10   -1.01    6.02   0
  -9   1  10   11.13    5.47   0
   9  -1 -10    6.44    4.42   0
  -9  -1  10   18.16    5.39   0
   8   1 -10    3.21    5.90   0
  -8   1  10    2.53    6.01   0
   8  -1 -10  -16.08    6.33   0
  -8  -1  10   18.73    5.37   0
   7   1 -10   -0.20    6.47   0
  -7   1  10   -7.20    6.41   0
   7  -1 -10    0.69    4.91   0
  -7  -1  10    0.96    4.20   0
   6   1 -10   -4.07    7.35   0
  -6   1  10    3.12    5.14   0
   6  -1 -10    8.23    7.71   0
  -6  -1  10   13.73    4.88   0
   5   1 -10  865.22   10.17   0
  -5   1  10  987.03    9.38   0
   5  -1 -10  662.59   10.20   0
  -5  -1  10  928.79    8.91   0
   4   1 -10   -9.97    9.35   0
  -4   1  10   16.15    7.98   0
  -4  -1  10   30.80    7.23   0
   4  -1 -10   27.96    9.25   0
   3   1 -10   55.71    7.11   0
  -3   1  10  126.22    7.85   0
  -3  -1  10   89.97    7.60   0
   3  -1 -10   61.19    5.86   0
   2   1 -10   25.62   10.48   0
  -2   1  10   28.30    5.90   0
  -2  -1  10   29.99    7.83   0
   2  -1 -10   41.95    7.07   0
  -1   1  10 1869.66   12.28   0
   1   1 -10 1466.00   11.80   0
  -1  -1  10 1752.90   13.68   0
   1  -1 -10 1790.99    9.20   0
   0   1  10   40.74    8.84   0
   0   1 -10   57.80    6.85   0
   0  -1  10   57.96    8.87   0
   0  -1 -10   51.11    6.31   0
   1   1  10    5.01    1.91   0
   1  -1  10    5.03    1.89   0
  -1  -1 -10    4.56    1.97   0
   2   1  10    5.94    8.55   0
  -2   1 -10    1.33    4.88   0
   3   1  10    6.99    5.13   0
  -3   1 -10    1.84    7.85   0
  -3   1 -10    0.87    6.33   0
  -3  -1 -10    2.77    3.84   0
  -3  -1 -10    0.37    4.65   0
   4   1  10    2.42    4.74   0
  -4  -1 -10    7.82    5.80   0
  -4  -1 -10   17.91    5.20   0
  -5   1 -10   64.70    5.14   0
  -5  -1 -10   51.81    3.91   0
  11   2 -10   71.19    4.23   0
  11   2 -10   95.28    5.55   0
 -11   2  10   81.65    5.88   0
  11  -2 -10   68.14    5.57   0
  10   2 -10   53.89    5.54   0
 -10   2  10   30.90    5.91   0
  10   2 -10   28.50    5.42   0
  10  -2 -10   33.75    4.41   0
   9   2 -10   12.06    5.71   0
  -9   2  10    3.59    4.33   0
   9  -2 -10    6.62    6.40   0
   8   2 -10    2.37    2.01   0
  -8   2  10    1.89    2.22   0
   8  -2 -10    1.51    1.71   0
   7   2 -10   65.77    6.38   0
  -7   2  10   89.05    6.84   0
  -7  -2  10   35.89    4.59   0
   7  -2 -10   54.02    6.83   0
   6   2 -10   25.05    2.01   0
  -6   2  10   24.90    2.43   0
  -6  -2  10   24.62    2.00   0
   6  -2 -10   24.78    1.78   0
   5   2 -10    2.09    4.86   0
  -5   2  10    2.07    5.37   0
  -5  -2  10    2.20    5.01   0
   5  -2 -10    2.16    5.07   0
   4   2 -10   -6.97    6.22   0
  -4   2  10   12.45    5.65   0
  -4  -2  10  -14.04    7.53   0
   4  -2 -10   17.66    7.98   0
   3   2 -10   24.15    6.94   0
  -3   2  10   32.52    7.06   0
  -3  -2  10   24.42    8.11   0
   3  -2 -10   30.20    6.61   0
   2   2 -10  151.16   10.81   0
  -2   2  10  169.57    7.00   0
  -2  -2  10  165.32    8.09   0
   2  -2 -10  170.74    6.42   0
   1   2 -10  147.78    6.17   0
  -1   2  10  227.46    7.45   0
  -1  -2  10  182.86    8.18   0
   1  -2 -10  206.02    5.85   0
   0   2 -10    5.63    2.36   0
   0   2  10    6.47    1.95   0
   0  -2 -10    5.76    2.09   0
   1   2  10   -6.76    7.03   0
  -1   2 -10    1.59    7.28   0
  -1  -2 -10    0.43    4.68   0
  -1  -2 -10   12.39    6.06   0
   2   2  10  157.30    7.79   0
  -2   2 -10  115.04    6.49   0
  -2   2 -10  113.56    6.79   0
  -2  -2 -10  108.32    4.53   0
  -2  -2 -10   89.54    5.75   0
   3   2  10  110.80    9.99   0
  -3  -2 -10   62.02    4.04   0
   4   2  10    4.54    2.01   0
  -4  -2 -10    4.65    2.39   0
  -4  -2 -10    4.92    1.74   0
   5   2  10   42.86    2.90   0
  -5  -2 -10   30.67    3.62   0
  -5  -2 -10   48.78    6.73   0
  10   3 -10    0.73    1.33   0
  10   3 -10    0.65    1.16   0
 -10   3  10    0.72    1.08   0
  10  -3 -10    0.70    1.07   0
   9   3 -10   94.95    6.58   0
  -9   3  10  119.56    6.24   0
   9   3 -10   63.84    4.82   0
   9  -3 -10   57.71    4.81   0
   8   3 -10   35.72    6.02   0
   8   3 -10   22.34    6.03   0
  -8   3  10   36.93    4.69   0
   8  -3 -10    8.54   10.17   0
   8  -3 -10    7.28    4.83   0
   7   3 -10  153.32    6.51   0
   7   3 -10  136.34    6.99   0
  -7   3  10  194.38    7.05   0
   7  -3 -10   96.83    8.66   0
   7  -3 -10  110.97    6.86   0
   6   3 -10   94.81    7.39   0
   6   3 -10   72.80    5.31   0
  -6   3  10   91.06    7.31   0
   6  -3 -10   55.57    7.04   0
   6  -3 -10   72.69    5.34   0
  -5   3  10   74.73    7.39   0
   5   3 -10   49.78    7.62   0
   5   3 -10   58.96    5.61   0
   5  -3 -10   50.47    7.49   0
   5  -3 -10   53.44    5.40   0
  -4   3  10  359.37    7.69   0
   4   3 -10  244.72    6.91   0
   4   3 -10  213.81    6.67   0
   4  -3 -10  194.63    8.31   0
   4  -3 -10  284.65    7.51   0
  -3   3  10  474.05    7.11   0
   3   3 -10  491.54    9.79   0
   3   3 -10  480.55    8.38   0
   3  -3 -10  464.41    7.24   0
   3  -3 -10  356.84    8.24   0
  -2   3  10   76.50    6.39   0
   2   3 -10   82.29   10.45   0
   2   3 -10   52.80    5.47   0
   2  -3 -10   62.34    4.23   0
   2  -3 -10   56.33    6.96   0
  -1   3  10  102.01    5.91   0
   1   3 -10   70.46   12.08   0
   1   3 -10   98.81    7.09   0
   1  -3 -10  100.13    5.32   0
   1  -3 -10   71.22    6.53   0
   0   3 -10   57.06   12.78   0
   0   3  10   66.40    5.81   0
   0   3 -10   53.77    6.92   0
   0  -3 -10   53.51    4.70   0
   0  -3 -10   23.50    6.44   0
  -1   3 -10   48.30    6.59   0
   1   3  10   64.43    6.51   0
  -1  -3 -10   52.01    4.60   0
  -1  -3 -10   58.13    6.03   0
   2   3  10    0.54    5.91   0
  -2   3 -10   -1.89    6.28   0
  -2   3 -10    4.01    5.72   0
  -2  -3 -10    2.95    4.37   0
  -2  -3 -10   -6.21    5.66   0
   3   3  10   95.97    6.50   0
  -3  -3 -10   61.68    4.10   0
   4   3  10    1.19    7.94   0
  -4  -3 -10   12.49    4.66   0
  -4  -3 -10   13.13    5.03   0
   5   3  10    0.60    1.59   0
  -5  -3 -10   21.63    4.75   0
  -5  -3 -10    6.27    5.13   0
  10   4 -10    3.23    2.38   0
 -10   4  10    3.06    2.38   0
  10   4 -10    2.61    1.90   0
  10  -4 -10    2.98    2.43   0
   9   4 -10   15.10    6.30   0
  -9   4  10    6.05    5.95   0
   9   4 -10   10.73    4.58   0
   9  -4 -10   19.11    6.41   0
   8   4 -10   27.83    2.82   0
   8   4 -10   34.23    4.80   0
  -8   4  10   10.05    5.03   0
   8  -4 -10   36.59    6.32   0
   7   4 -10   30.55    2.76   0
  -7   4  10   30.75    2.71   0
   7   4 -10   30.50    2.90   0
   7  -4 -10   31.44    2.80   0
   6   4 -10   19.83    4.97   0
  -6   4  10   29.04    5.82   0
   6   4 -10   -9.67    7.32   0
   6  -4 -10   -3.04    7.44   0
   6  -4 -10   -7.39    4.49   0
  -5   4  10   81.79    6.22   0
   5   4 -10   82.34    7.20   0
   5   4 -10   73.91    7.17   0
   5  -4 -10   49.81    7.25   0
   5  -4 -10   52.80    4.69   0
   4   4 -10  505.86    6.48   0
  -4   4  10  719.89    7.29   0
   4   4 -10  646.31    9.50   0
   4  -4 -10  485.78    8.77   0
   4  -4 -10  498.97    5.34   0
  -3   4  10  944.66    7.08   0
   3   4 -10  873.71    8.46   0
   3   4 -10  841.74   10.18   0
   3  -4 -10  851.05    7.19   0
   3  -4 -10  673.25    8.37   0
  -2   4  10  362.57    6.23   0
   2   4 -10  283.64    7.36   0
   2   4 -10  348.04    6.95   0
   2  -4 -10  246.05    4.29   0
   2  -4 -10  282.26    7.42   0
  -1   4  10  360.75    6.33   0
   1   4 -10  315.26   11.66   0
   1   4 -10  272.63    6.57   0
   1  -4 -10  328.68    5.74   0
   1  -4 -10  195.10    5.32   0
   0   4  10  398.28    5.96   0
   0   4 -10  276.41   14.27   0
   0   4 -10  296.04    6.17   0
   0  -4 -10  391.85    5.54   0
   0  -4 -10  221.23    4.95   0
   1   4  10  211.14    5.47   0
  -1   4 -10  198.31    6.07   0
  -1  -4 -10  171.40    4.46   0
  -1  -4 -10  200.53    6.43   0
   2   4  10  139.77    5.67   0
  -2   4 -10   90.46    5.46   0
  -2   4 -10  108.09    8.10   0
  -2  -4 -10  133.35    4.60   0
  -2  -4 -10  104.27    4.30   0
   3   4  10  237.11    6.71   0
  -3  -4 -10  136.88    4.24   0
  -3  -4 -10  164.27    4.64   0
   4   4  10   67.68    6.08   0
  -4  -4 -10   66.16    4.66   0
  10   5 -10    7.05    6.76   0
  10   5 -10    4.21    5.71   0
 -10   5  10   28.09    5.92   0
  10  -5 -10   15.91    4.61   0
   9   5 -10    7.94    4.83   0
  -9   5  10   10.94    4.95   0
   9   5 -10   22.78    4.55   0
   9  -5 -10   11.19    4.62   0
   8   5 -10   45.76    4.85   0
  -8   5  10   69.33    6.46   0
   8   5 -10   51.16    6.82   0
   8  -5 -10   62.59    6.68   0
  -7   5  10   19.96    2.27   0
   7   5 -10   20.41    2.31   0
   7   5 -10   19.59    2.09   0
   7  -5 -10   19.53    2.02   0
  -6   5  10    2.93    3.98   0
   6   5 -10   32.92    6.71   0
   6   5 -10    7.81    4.73   0
   6  -5 -10   15.60    5.39   0
  -5   5  10  288.09    5.85   0
   5   5 -10  209.95    5.56   0
   5   5 -10  183.78    5.06   0
   5  -5 -10  191.09    7.48   0
   5  -5 -10  171.29    4.34   0
  -4   5  10  355.04    5.98   0
   4   5 -10  250.21    5.94   0
   4   5 -10  222.60    5.13   0
   4  -5 -10  255.88    7.31   0
   4  -5 -10  357.50    6.04   0
   3   5 -10    6.90    6.11   0
  -3   5  10   20.62    5.04   0
   3   5 -10   29.93    7.55   0
   3  -5 -10    4.64    4.69   0
   3  -5 -10   20.73    6.27   0
  -2   5  10  684.59    5.05   0
   2   5 -10  835.43   10.48   0
   2   5 -10  839.38    7.25   0
   2  -5 -10  956.67    6.44   0
   2  -5 -10  585.83    6.42   0
  -1   5  10  421.83    4.67   0
   1   5 -10  537.37   10.90   0
   1   5 -10  525.76    6.10   0
   1  -5 -10  648.14    5.94   0
   1  -5 -10  572.09    7.20   0
   0   5  10  -13.26    4.79   0
   0   5 -10    3.21   10.83   0
   0   5 -10   12.66    4.77   0
   0  -5 -10    8.86    4.43   0
   0  -5 -10    2.48    5.34   0
   1   5  10   15.79    4.62   0
  -1   5 -10   24.52    5.41   0
  -1  -5 -10   25.88    4.03   0
  -1  -5 -10   18.56    4.03   0
   2   5  10  300.97    5.64   0
  -2   5 -10  191.26   10.40   0
  -2   5 -10  194.05    6.06   0
  -2  -5 -10  247.02    6.18   0
  -2  -5 -10  270.46    4.83   0
   3   5  10  136.19    5.28   0
  -3  -5 -10  102.23    4.04   0
  -3  -5 -10  114.81    4.33   0
   4   5  10   17.18    5.24   0
  -4  -5 -10   -5.55    4.95   0
  -4  -5 -10   31.92    4.37   0
  -9   6  10    9.71    4.77   0
   9   6 -10  -12.11    4.11   0
   9   6 -10   13.71    4.36   0
   9  -6 -10    9.26    5.53   0
  -8   6  10   44.58    4.56   0
   8   6 -10   55.37    5.86   0
   8   6 -10   90.78    4.86   0
   8  -6 -10   65.94    5.91   0
  -7   6  10   24.27    4.15   0
   7   6 -10   14.63    6.46   0
   7   6 -10   26.65    6.11   0
   7  -6 -10   49.34    5.37   0
  -6   6  10  158.91    5.76   0
   6   6 -10  133.81    6.47   0
   6   6 -10  140.54    6.40   0
   6  -6 -10  126.82    5.31   0
  -5   6  10   10.83    3.59   0
   5   6 -10   12.36    6.26   0
   5   6 -10   11.44    5.37   0
   5  -6 -10  -13.26    5.13   0
  -4   6  10   12.28    3.41   0
   4   6 -10    8.76    4.85   0
   4   6 -10   14.99    5.60   0
   4  -6 -10   15.17    3.68   0
  -3   6  10  190.24    5.05   0
   3   6 -10  176.78    7.73   0
   3   6 -10  172.61    5.79   0
   3  -6 -10  208.00    5.19   0
  -2   6  10   39.35    2.73   0
   2   6 -10   38.96    2.89   0
   2   6 -10   39.45    3.26   0
   2  -6 -10   39.34    2.65   0
   2  -6 -10   39.06    3.26   0
   1   6 -10  147.06    5.44   0
  -1   6  10  150.38    4.93   0
   1   6 -10  142.92    8.05   0
   1  -6 -10  158.63    4.34   0
   1  -6 -10  126.45    6.33   0
   0   6 -10    0.78    4.79   0
   0   6 -10    0.77    8.96   0
   0   6  10    0.84    4.66   0
   0  -6 -10    0.78    4.37   0
   0  -6 -10    0.84    5.92   0
  -1   6 -10   57.50    4.59   0
   1   6  10  102.65    4.78   0
  -1  -6 -10   98.00    4.16   0
  -1  -6 -10   94.61    5.80   0
  -2   6 -10   43.41    2.94   0
  -2   6 -10   29.74    5.49   0
   2   6  10   44.44    4.80   0
  -2  -6 -10   36.71    5.71   0
  -2  -6 -10   51.50    4.30   0
  -3   6 -10    9.76    7.13   0
  -3   6 -10   11.27    9.20   0
   3   6  10   10.99    4.69   0
  -3  -6 -10   17.13    4.10   0
  -8   7  10   22.33    5.39   0
   8   7 -10    9.41    5.76   0
   8   7 -10  -13.88    4.31   0
   8  -7 -10    3.56    3.86   0
  -7   7  10   11.88    5.41   0
   7   7 -10    4.39    4.38   0
   7   7 -10   22.68    4.23   0
   7  -7 -10    1.74    3.97   0
  -6   7  10    3.75    1.98   0
   6   7 -10    3.20    1.80   0
   6   7 -10    3.42    2.30   0
   6  -7 -10    3.04    2.11   0
  -5   7  10    6.28    1.91   0
   5   7 -10    6.24    1.50   0
   5   7 -10    6.22    1.92   0
   5  -7 -10    5.59    1.99   0
  -4   7  10    3.79    4.36   0
   4   7 -10   21.63    6.53   0
   4   7 -10   32.33    5.23   0
   4  -7 -10   -0.12    4.45   0
  -3   7  10   35.07    4.54   0
   3   7 -10   21.85    4.89   0
   3   7 -10   -4.27    5.10   0
   3  -7 -10    6.11    4.65   0
  -2   7  10   16.56    3.20   0
   2   7 -10   16.31    4.87   0
   2   7 -10   15.19    6.45   0
   2  -7 -10   18.67    4.09   0
   1   7 -10  262.83    5.75   0
   1   7 -10  217.01    5.27   0
  -1   7  10  271.23    4.95   0
   1  -7 -10  259.53    4.94   0
   0   7 -10   22.59    8.24   0
   0   7 -10   21.33    4.53   0
   0   7  10    0.65    3.37   0
   0  -7 -10   26.25    4.29   0
  -1   7 -10   75.79    4.38   0
  -1   7 -10   85.22    5.34   0
   1   7  10  106.27    4.57   0
  -1  -7 -10   77.02    4.28   0
  -2   7 -10    8.70    5.03   0
  -2   7 -10   12.93    4.08   0
   2   7  10   19.14    4.15   0
  -2  -7 -10   18.31    4.06   0
  -3   7 -10    8.93    1.88   0
  -3   7 -10    8.64    1.52   0
   3   7  10    9.22    1.97   0
  -3  -7 -10    9.32    1.50   0
   7   8 -10   62.18    4.25   0
  -7   8  10   50.11    3.89   0
   7   8 -10   77.85    5.94   0
   7  -8 -10   47.29    3.75   0
   6   8 -10  393.06    6.70   0
  -6   8  10  398.24    5.79   0
   6   8 -10  353.26    7.05   0
   6  -8 -10  384.37    5.64   0
   5   8 -10   16.48    3.32   0
  -5   8  10   15.99    3.41   0
   5   8 -10   16.15    2.98   0
   5  -8 -10   15.57    2.51   0
  -4   8  10   11.53    3.16   0
   4   8 -10   12.30    3.81   0
   4   8 -10    2.86    4.56   0
   4  -8 -10    2.02    3.24   0
  -3   8  10  272.60    4.80   0
   3   8 -10  286.57    5.57   0
   3   8 -10  206.45    5.24   0
   3  -8 -10  224.26    3.76   0
   2   8 -10  216.46    5.24   0
   2   8 -10  206.55    7.05   0
  -2   8  10  238.64    4.67   0
   2  -8 -10  245.80    4.88   0
   1   8 -10   51.89    6.57   0
   1   8 -10   55.71    4.35   0
  -1   8  10   64.36    4.55   0
   1  -8 -10   63.27    4.45   0
   0   8 -10   24.38    7.47   0
   0   8 -10   26.16    4.29   0
   0   8  10    2.44    3.30   0
   0  -8 -10   25.45    4.33   0
  -1   8 -10   24.31    9.17   0
  -1   8 -10   60.80    4.73   0
   1   8  10   83.41    4.25   0
  -1  -8 -10   81.62    4.33   0
  -2   8 -10    1.65    2.29   0
   2   8  10    2.03    2.11   0
  -2  -8 -10    1.76    1.89   0
  -6   9  10   34.57    4.79   0
   6   9 -10   38.22    5.59   0
   6   9 -10   28.16    5.84   0
   6  -9 -10   36.92    4.29   0
  -5   9  10   35.11    4.61   0
   5   9 -10   38.06    5.31   0
   5   9 -10   22.61    5.85   0
   5  -9 -10   30.84    3.15   0
  -4   9  10  102.31    4.55   0
   4   9 -10   91.35    4.82   0
   4   9 -10   79.85    5.71   0
   4  -9 -10   98.77    4.52   0
   3   9 -10    6.81    4.96   0
   3   9 -10   26.74    5.51   0
  -3   9  10    6.75    4.41   0
   3  -9 -10   -0.38    4.34   0
   2   9 -10  448.29    7.32   0
   2   9 -10  310.20    4.43   0
  -2   9  10  561.69    5.43   0
   2  -9 -10  627.35    5.62   0
   1   9 -10   79.29    6.58   0
   1   9 -10   80.13    4.64   0
  -1   9  10  114.49    4.24   0
   1  -9 -10  116.88    4.52   0
   0   9 -10    9.84    7.14   0
   0   9 -10   46.88    4.86   0
   0   9  10   31.05    4.41   0
   0  -9 -10   19.91    3.93   0
   9   0 -11   45.15    5.87   0
  -9   0  11   56.05    5.56   0
   7   0 -11   39.81    6.00   0
  -7   0  11    0.30    5.72   0
   5   0 -11  186.94    8.69   0
  -5   0  11  185.84    6.71   0
  -3   0  11   56.22    7.50   0
   3   0 -11   29.17    6.97   0
  -1   0  11 2275.16   13.90   0
   1   0 -11 1950.29   10.90   0
   1   0  11  217.89    9.58   0
  -3   0 -11  967.38    8.37   0
  10   1 -11   -8.09    5.36   0
 -10   1  11  -10.37    4.06   0
  10  -1 -11   12.26    5.31   0
 -10  -1  11    1.66    5.05   0
   9   1 -11   10.21    5.71   0
  -9   1  11    6.49    5.15   0
   9  -1 -11    5.29    5.93   0
  -9  -1  11  -25.78    5.36   0
   8   1 -11   -8.22    4.21   0
  -8   1  11    7.18    4.09   0
   8  -1 -11   33.53    6.19   0
  -8  -1  11   11.52    3.90   0
   7   1 -11   31.85    4.46   0
  -7   1  11   36.52    6.22   0
   7  -1 -11   50.91    6.76   0
  -7  -1  11   25.54    4.12   0
   6   1 -11   76.46    7.03   0
  -6   1  11   50.64    4.70   0
   6  -1 -11   64.04    7.17   0
  -6  -1  11   62.40    6.22   0
   5   1 -11  270.08    8.53   0
  -5   1  11  275.40    7.02   0
  -5  -1  11  177.98    5.23   0
   5  -1 -11  171.62    8.70   0
   4   1 -11   16.47    8.92   0
  -4   1  11   31.24    5.09   0
  -4  -1  11   -5.21    6.28   0
   4  -1 -11   22.17    6.18   0
   3   1 -11   29.74    3.22   0
  -3   1  11   66.52    4.48   0
  -3  -1  11   47.22    6.80   0
   3  -1 -11   57.30    8.06   0
   2   1 -11  275.86    5.23   0
  -2   1  11  338.47    8.87   0
  -2  -1  11  279.37    7.99   0
   2  -1 -11  242.51    5.65   0
  -1   1  11  179.92    8.22   0
   1   1 -11  109.45    7.65   0
  -1  -1  11  147.02    8.41   0
   1  -1 -11  176.23    6.25   0
   0   1  11  334.19    4.89   0
   0   1 -11  334.21    5.25   0
   0  -1  11  334.27    4.52   0
   0  -1 -11  334.46    5.03   0
   1   1  11   44.87    8.11   0
  -1  -1 -11   37.57    4.66   0
   1  -1  11   65.42    8.49   0
   2   1  11   24.91    8.84   0
  -2   1 -11   31.75    4.92   0
  -2   1 -11   40.20    8.07   0
  -2  -1 -11   33.34    4.33   0
  -3   1 -11   11.05    4.42   0
   3   1  11  -12.12    4.44   0
  -3   1 -11    7.22    6.50   0
  -3  -1 -11   15.88    3.90   0
  -3  -1 -11   12.35    4.84   0
   4   1  11   94.13    4.11   0
  -4  -1 -11   95.48    4.89   0
  -4  -1 -11   88.06    7.16   0
  10   2 -11   -1.90    5.53   0
  10   2 -11   -0.59    3.79   0
 -10   2  11    7.37    5.69   0
  10  -2 -11   11.48    5.51   0
   9   2 -11    0.16    4.06   0
  -9   2  11   -0.55    5.88   0
   9  -2 -11   -0.55    8.29   0
   9  -2 -11    8.24    6.22   0
   8   2 -11   74.56    6.34   0
  -8   2  11   93.81    6.09   0
   8  -2 -11   70.80    6.81   0
   7   2 -11   16.98    1.65   0
  -7   2  11   17.35    2.46   0
  -7  -2  11   17.01    1.74   0
   7  -2 -11   16.64    1.98   0
   6   2 -11   43.59    6.57   0
  -6   2  11   35.45    6.74   0
  -6  -2  11   55.31    6.27   0
   6  -2 -11   15.78    7.56   0
   5   2 -11   79.35    5.41   0
  -5   2  11  116.12    6.95   0
  -5  -2  11   93.89    6.71   0
   5  -2 -11   73.89    8.20   0
   4   2 -11   51.75    8.64   0
  -4   2  11   73.45    5.51   0
  -4  -2  11  101.87    6.79   0
   4  -2 -11   56.31    7.24   0
   3   2 -11   27.39    9.06   0
  -3   2  11   11.27    7.84   0
  -3  -2  11   -1.84    8.01   0
   3  -2 -11   20.76    6.80   0
   2   2 -11   32.69   10.51   0
  -2   2  11   23.81    5.67   0
  -2  -2  11   59.64    7.50   0
   2  -2 -11   44.09    6.38   0
   1   2 -11  167.45   10.95   0
  -1   2  11  198.29    7.54   0
  -1  -2  11  200.33    7.77   0
   1  -2 -11  192.50    5.61   0
   0   2  11  101.00    7.23   0
   0   2 -11   72.58    8.81   0
   0  -2 -11   87.37    5.11   0
   1   2  11   29.40    8.00   0
  -1   2 -11   -2.98    6.13   0
  -1  -2 -11    8.41    5.20   0
  -1  -2 -11   13.29    5.84   0
   2   2  11   64.45   10.09   0
  -2   2 -11   40.46    5.31   0
  -2   2 -11   52.52    6.92   0
  -2  -2 -11   53.47    5.53   0
   3   2  11   90.32   10.70   0
  -3  -2 -11   59.98    5.55   0
  -3  -2 -11   86.82    4.99   0
   4   2  11   24.04   13.32   0
  -4  -2 -11   10.62    4.61   0
  -4  -2 -11   22.21    4.98   0
  10   3 -11   40.72    4.14   0
 -10   3  11   84.67    6.22   0
  10   3 -11   55.38    4.38   0
  10  -3 -11   50.43    4.50   0
   9   3 -11  110.83    5.56   0
   9   3 -11   91.35    5.74   0
  -9   3  11   80.77    5.98   0
   9  -3 -11   88.87    6.14   0
   8   3 -11  193.15    5.19   0
  -8   3  11  172.12    5.16   0
   8   3 -11  236.40    6.94   0
   8  -3 -11  172.71    9.34   0
   8  -3 -11  159.41    5.32   0
   7   3 -11  -22.84    6.38   0
   7   3 -11   24.33    6.41   0
  -7   3  11   24.64    6.15   0
   7  -3 -11   10.22    7.42   0
   7  -3 -11   -2.18    4.98   0
   6   3 -11   18.44    6.83   0
   6   3 -11   16.15    6.86   0
  -6   3  11   -2.94    4.75   0
   6  -3 -11   -2.50    6.54   0
   6  -3 -11  -12.98    6.95   0
   5   3 -11  -19.26    5.10   0
  -5   3  11    8.15    6.54   0
   5   3 -11    0.97    5.04   0
   5  -3 -11    2.93    6.89   0
   5  -3 -11    6.11    7.05   0
   4   3 -11   19.48    7.28   0
  -4   3  11   11.43    6.12   0
   4   3 -11    3.30    5.29   0
   4  -3 -11    7.87    7.03   0
   4  -3 -11   13.10    4.58   0
   3   3 -11   85.32    8.49   0
  -3   3  11   87.03    6.72   0
   3   3 -11   81.39    7.33   0
   3  -3 -11   72.34    5.71   0
   3  -3 -11   63.81    7.65   0
   2   3 -11    9.98   10.35   0
  -2   3  11   21.42    4.64   0
   2   3 -11   26.50    7.33   0
   2  -3 -11   24.77    5.71   0
   2  -3 -11    8.94    7.36   0
   1   3 -11    0.52    4.82   0
  -1   3  11   17.27    6.31   0
   1   3 -11    8.32    6.50   0
   1  -3 -11   14.54    4.81   0
   1  -3 -11    9.68    4.62   0
   0   3 -11   75.16    5.19   0
   0   3  11  110.90    6.25   0
   0   3 -11  119.99    6.07   0
   0  -3 -11  119.18    5.12   0
   0  -3 -11   97.40    6.48   0
  -1   3 -11   21.19    6.27   0
   1   3  11   11.20    7.02   0
  -1  -3 -11   19.49    4.57   0
  -1  -3 -11    0.14    6.10   0
   2   3  11   29.78    6.76   0
  -2   3 -11   14.81    5.48   0
  -2   3 -11   21.54    6.14   0
  -2  -3 -11   26.12    4.02   0
  -2  -3 -11   29.21    4.22   0
   3   3  11   74.91    8.78   0
  -3  -3 -11   43.87    5.14   0
   4   3  11   24.89    5.13   0
  -4  -3 -11   22.29    4.58   0
  -4  -3 -11   25.29    4.71   0
  10   4 -11  -11.05    5.52   0
 -10   4  11    6.61    4.38   0
  10   4 -11  -10.55    5.43   0
  10  -4 -11   -5.54    4.24   0
   9   4 -11  108.31    4.56   0
  -9   4  11  149.69    6.92   0
   9   4 -11  124.02    6.16   0
   9  -4 -11   87.42    4.81   0
   8   4 -11   33.24    4.59   0
   8   4 -11   19.15    4.69   0
  -8   4  11  -12.97    4.80   0
   8  -4 -11    7.01    6.72   0
   7   4 -11   29.67    4.84   0
   7   4 -11    8.66    6.31   0
  -7   4  11    0.24    6.87   0
   7  -4 -11   10.70    7.83   0
   7  -4 -11    5.64    6.98   0
  -6   4  11    8.10    6.38   0
   6   4 -11   18.71    4.85   0
   6   4 -11   21.69    6.67   0
   6  -4 -11   12.35    7.57   0
   6  -4 -11    9.45    4.75   0
  -5   4  11   18.42    5.61   0
   5   4 -11   10.51    6.65   0
   5   4 -11    5.21    6.65   0
   5  -4 -11   -1.00    6.63   0
   5  -4 -11    5.97    4.30   0
  -4   4  11  393.63    6.39   0
   4   4 -11  303.47    6.53   0
   4   4 -11  403.84    7.37   0
   4  -4 -11  305.68    7.84   0
   4  -4 -11  452.66    6.35   0
  -3   4  11   11.97    4.02   0
   3   4 -11   26.91    6.48   0
   3   4 -11   36.21    8.39   0
   3  -4 -11   28.82    5.31   0
   3  -4 -11   46.71    7.21   0
  -2   4  11  164.88    4.62   0
   2   4 -11  280.32    9.90   0
   2   4 -11  291.20    7.06   0
   2  -4 -11  299.11    5.54   0
   2  -4 -11  252.62    7.00   0
  -1   4  11  146.45    5.83   0
   1   4 -11  135.07    4.66   0
   1   4 -11  128.14    6.18   0
   1  -4 -11  117.13    4.79   0
   1  -4 -11   86.41    6.83   0
   0   4 -11  656.20    6.76   0
   0   4  11 1026.03    7.94   0
   0   4 -11 1031.89    8.55   0
   0  -4 -11  995.75    6.48   0
   0  -4 -11  804.62    7.87   0
   1   4  11   35.77    6.17   0
  -1   4 -11   30.84    5.97   0
  -1  -4 -11   35.22    4.53   0
  -1  -4 -11   42.70    5.56   0
   2   4  11  513.67    6.10   0
  -2   4 -11  513.57    6.27   0
  -2   4 -11  514.32    5.66   0
  -2  -4 -11  513.93    6.26   0
  -2  -4 -11  514.38    6.16   0
   3   4  11   74.78    6.41   0
  -3  -4 -11   53.20    3.85   0
  -3  -4 -11   88.06    4.84   0
   9   5 -11    3.48    4.53   0
   9   5 -11   -8.36    6.02   0
  -9   5  11   -1.63    4.77   0
   9  -5 -11   19.48    4.42   0
  -8   5  11   -9.84    6.89   0
   8   5 -11    1.35    6.24   0
   8   5 -11    6.84    4.58   0
   8  -5 -11   10.23    6.54   0
  -7   5  11   10.48    4.39   0
   7   5 -11   18.29    6.80   0
   7   5 -11   10.37    6.70   0
   7  -5 -11    0.52    5.87   0
  -6   5  11   14.04    5.42   0
   6   5 -11    5.68    4.91   0
   6   5 -11    3.96    5.86   0
   6  -5 -11   31.75    6.00   0
  -5   5  11   16.45    5.16   0
   5   5 -11   -4.67    4.93   0
   5   5 -11    1.31    6.25   0
   5  -5 -11   -6.47    6.67   0
   5  -5 -11   17.71    5.53   0
  -4   5  11  145.59    5.59   0
   4   5 -11  169.91    7.76   0
   4   5 -11  200.06    6.79   0
   4  -5 -11  160.39    5.71   0
   4  -5 -11  144.07    7.28   0
   3   5 -11  314.16    6.51   0
  -3   5  11  401.95    5.79   0
   3   5 -11  332.28    8.43   0
   3  -5 -11  360.93    5.41   0
   3  -5 -11  290.95    7.76   0
  -2   5  11  158.65    5.55   0
   2   5 -11  136.16    6.06   0
   2   5 -11  130.08    8.20   0
   2  -5 -11  131.92    3.67   0
   2  -5 -11  126.90    6.56   0
  -1   5  11   19.48    4.80   0
   1   5 -11    6.79    9.56   0
   1   5 -11   21.23    5.38   0
   1  -5 -11    4.50    3.42   0
   1  -5 -11   17.92    4.34   0
   0   5  11  562.94    6.02   0
   0   5 -11  454.14    6.23   0
   0   5 -11  438.14    6.12   0
   0  -5 -11  557.82    5.30   0
   0  -5 -11  407.13    7.26   0
   1   5  11 1070.06    7.34   0
  -1   5 -11 1153.64    8.75   0
  -1  -5 -11 1298.72    6.76   0
  -1  -5 -11 1037.12    8.36   0
   2   5  11  249.72    5.42   0
  -2   5 -11  249.79    5.01   0
  -2   5 -11  250.04    5.28   0
  -2  -5 -11  249.83    4.66   0
  -2  -5 -11  249.82    4.65   0
   3   5  11   26.26    5.60   0
  -3  -5 -11   22.46    5.20   0
  -3  -5 -11   22.63    4.34   0
  -9   6  11  108.27    6.78   0
   9   6 -11   54.73    6.13   0
   9   6 -11   54.59    4.86   0
   9  -6 -11   69.50    6.04   0
  -8   6  11   11.15    5.71   0
   8   6 -11   -0.32    5.53   0
   8   6 -11   -1.15    5.84   0
   8  -6 -11   -4.69    5.29   0
  -7   6  11   19.54    5.26   0
   7   6 -11   16.82    5.70   0
   7   6 -11   15.40    5.99   0
   7  -6 -11   22.30    3.97   0
  -6   6  11    1.99    5.35   0
   6   6 -11   -5.60    5.68   0
   6   6 -11  -16.39    6.70   0
   6  -6 -11   14.24    5.48   0
  -5   6  11    6.09    5.26   0
   5   6 -11   19.57    6.37   0
   5   6 -11   16.80    6.83   0
   5  -6 -11   -0.13    5.38   0
  -4   6  11   50.18    4.81   0
   4   6 -11   17.03    7.12   0
   4   6 -11   33.55    5.43   0
   4  -6 -11   40.75    5.21   0
  -3   6  11    6.05    4.82   0
   3   6 -11  -25.77    7.21   0
   3   6 -11   21.67    4.99   0
   3  -6 -11   -2.83    4.44   0
   3  -6 -11    7.13    6.88   0
  -2   6  11  252.81    5.16   0
   2   6 -11  234.39    8.63   0
   2   6 -11  250.56    5.94   0
   2  -6 -11  265.70    5.07   0
   2  -6 -11  224.93    7.07   0
   1   6 -11   19.34    4.68   0
  -1   6  11   23.61    4.89   0
   1   6 -11   17.29    7.98   0
   1  -6 -11   24.19    4.51   0
   1  -6 -11   11.95    6.01   0
   0   6  11   57.31    4.93   0
   0   6 -11   67.10    5.46   0
   0   6 -11   68.41   10.09   0
   0  -6 -11   55.42    3.27   0
   0  -6 -11   43.49    6.41   0
   1   6  11   22.19    4.89   0
  -1   6 -11   10.76    4.52   0
  -1  -6 -11   21.97    4.04   0
  -1  -6 -11   33.68    4.25   0
   2   6  11  150.31    4.86   0
  -2   6 -11   87.25   11.16   0
  -2   6 -11  158.89    5.95   0
  -2  -6 -11  114.00    4.59   0
  -2  -6 -11  154.49    4.17   0
  -8   7  11  -25.38    6.28   0
   8   7 -11  -11.75    5.89   0
   8   7 -11    2.69    4.34   0
   8  -7 -11    6.20    5.14   0
  -7   7  11   -9.16    3.84   0
   7   7 -11  -13.57    6.40   0
   7   7 -11    5.14    4.42   0
   7  -7 -11    0.48    3.65   0
  -6   7  11   -4.16    4.68   0
   6   7 -11   -4.80    6.72   0
   6   7 -11  -14.06    5.97   0
   6  -7 -11   10.28    4.94   0
  -5   7  11   80.63    4.61   0
   5   7 -11   54.36    6.33   0
   5   7 -11   80.41    5.38   0
   5  -7 -11   63.97    5.23   0
  -4   7  11   91.53    3.74   0
   4   7 -11   93.79    7.31   0
   4   7 -11   85.80    5.72   0
   4  -7 -11   94.44    5.16   0
  -3   7  11    3.38    4.72   0
   3   7 -11    4.99    5.11   0
   3   7 -11   -0.93    3.83   0
   3  -7 -11   31.01    4.69   0
  -2   7  11   86.74    4.90   0
   2   7 -11   73.62    5.16   0
   2   7 -11   56.54    7.72   0
   2  -7 -11   92.30    4.72   0
  -1   7  11   -6.32    4.63   0
   1   7 -11    5.37    4.71   0
   1   7 -11   -5.29    7.57   0
   1  -7 -11    9.96    4.03   0
   0   7  11   -4.32    4.87   0
   0   7 -11   -1.01    8.73   0
   0   7 -11   10.05    4.57   0
   0  -7 -11   17.91    4.03   0
   1   7  11    4.83    4.70   0
  -1   7 -11   12.29    5.13   0
  -1  -7 -11    2.56    4.22   0
  -6   8  11   16.41    4.93   0
   6   8 -11  -10.95    5.92   0
   6   8 -11   -9.43    5.71   0
   6  -8 -11   -9.02    4.70   0
   5   8 -11    1.39    2.42   0
  -5   8  11    1.41    1.63   0
   5   8 -11    1.39    1.54   0
   5  -8 -11    1.66    2.49   0
  -4   8  11    8.60    4.34   0
   4   8 -11    6.89    5.22   0
   4   8 -11    5.57    6.59   0
   4  -8 -11   12.52    3.37   0
  -3   8  11  113.94    5.05   0
   3   8 -11   75.90    4.96   0
   3   8 -11   86.67    5.25   0
   3  -8 -11   76.04    3.62   0
  -2   8  11  156.02    4.91   0
   2   8 -11  115.58    4.72   0
   2   8 -11  103.10    6.94   0
   2  -8 -11  158.23    4.84   0
  -1   8  11   34.15    4.67   0
   1   8 -11   34.07    6.86   0
   1   8 -11   41.54    4.69   0
   1  -8 -11   45.97    4.20   0
   0   8 -11   91.29    8.94   0
   0   8 -11  105.82    5.22   0
   0   8  11  105.38    4.63   0
   0  -8 -11  143.03    4.67   0
  -4   9  11    7.06    2.21   0
   4   9 -11    6.99    2.29   0
   4   9 -11    7.08    2.38   0
   4  -9 -11    7.04    2.30   0
  -3   9  11  443.79    2.49   0
   3   9 -11  355.65    8.10   0
   3   9 -11  365.66    5.59   0
   3  -9 -11  382.45    5.16   0
  10   0 -12   80.18    5.55   0
 -10   0  12   77.56    5.24   0
   8   0 -12    8.73    4.28   0
  -8   0  12   -2.94    5.51   0
   6   0 -12  103.73    7.41   0
  -6   0  12   97.94    6.12   0
  -4   0  12   78.56    4.68   0
   4   0 -12   78.67    8.54   0
  -2   0  12  386.31    8.59   0
   2   0 -12  357.14    9.00   0
   0   0  12  131.70    9.12   0
   0   0 -12  153.03    5.83   0
  -2   0 -12 1441.33    8.48   0
   2   0  12 1442.02    8.16   0
  10   1 -12   14.30    4.72   0
 -10   1  12   -2.27    3.81   0
 -10  -1  12    7.50    5.29   0
  10  -1 -12    7.92    4.93   0
   9   1 -12   14.11    5.27   0
  -9   1  12   16.48    3.91   0
   9  -1 -12   -0.91    4.11   0
  -9  -1  12   -3.12    4.96   0
   8   1 -12  284.71    6.64   0
  -8   1  12  289.83    6.66   0
   8  -1 -12  179.74    5.22   0
  -8  -1  12  249.91    5.96   0
   7   1 -12   55.10    6.51   0
  -7   1  12   87.03    5.78   0
  -7  -1  12   75.13    5.96   0
   7  -1 -12   68.12    7.00   0
   6   1 -12   42.17    6.79   0
  -6   1  12   62.08    4.49   0
  -6  -1  12   50.33    4.34   0
   6  -1 -12   50.74    6.79   0
   5   1 -12    1.58    7.52   0
  -5   1  12   26.45    6.41   0
  -5  -1  12   14.35    4.17   0
   5  -1 -12   10.95    7.98   0
   4   1 -12    6.81    8.04   0
  -4   1  12    2.51    4.61   0
  -4  -1  12  -16.68    6.35   0
   4  -1 -12   20.88    8.07   0
   3   1 -12   13.79    7.35   0
  -3   1  12   39.86    5.13   0
  -3  -1  12   54.00    6.86   0
   3  -1 -12   48.86    7.35   0
  -2   1  12   63.98    7.52   0
   2   1 -12   59.43   10.12   0
  -2  -1  12   49.04    6.72   0
   2  -1 -12   61.55    6.65   0
  -1   1  12  383.46    8.73   0
   1   1 -12  276.65    7.90   0
  -1  -1  12  327.58    9.16   0
   1  -1 -12  315.43    6.69   0
   0   1  12   32.72    7.72   0
   0   1 -12    8.40    5.98   0
   0  -1  12    0.66    8.69   0
   0  -1 -12    8.41    5.13   0
   1   1  12   12.87    8.12   0
  -1  -1 -12   11.35    5.17   0
   1  -1  12    8.39    7.07   0
  -2   1 -12    6.48    4.75   0
   2   1  12   18.39   10.31   0
  -2   1 -12    6.31    7.20   0
  -2  -1 -12    6.07    4.12   0
   3   1  12  858.34    7.15   0
  -3   1 -12  858.20    6.72   0
  -3   1 -12  857.55    7.49   0
  -3  -1 -12  857.90    6.92   0
  -3  -1 -12  857.88    6.95   0
  10   2 -12   40.98    4.13   0
  10   2 -12   38.15    3.82   0
 -10   2  12   69.23    5.58   0
  10  -2 -12   35.74    4.20   0
   9   2 -12   79.35    5.34   0
  -9   2  12  106.12    5.75   0
   9  -2 -12   55.66    7.19   0
   9  -2 -12   91.72    5.81   0
   8   2 -12   23.47    5.49   0
  -8   2  12   17.94    4.32   0
   8  -2 -12   21.70    4.83   0
   7   2 -12  260.12    6.68   0
  -7   2  12  316.50    7.19   0
  -7  -2  12  256.22    6.25   0
   7  -2 -12  178.15    5.53   0
   6   2 -12    2.56    6.55   0
  -6   2  12   36.93    4.67   0
  -6  -2  12   23.85    5.58   0
   6  -2 -12   -6.32    7.05   0
   5   2 -12   -2.60    6.87   0
  -5   2  12   24.21    4.80   0
  -5  -2  12   21.78    4.31   0
   5  -2 -12    5.30    7.98   0
   4   2 -12    1.25    8.09   0
  -4   2  12    9.61    6.75   0
  -4  -2  12    3.65    4.54   0
   4  -2 -12   -9.66    5.10   0
   3   2 -12    9.02    8.60   0
  -3   2  12   14.21    5.15   0
  -3  -2  12   13.27    7.02   0
   3  -2 -12   -4.63    6.68   0
   2   2 -12   56.73    2.80   0
  -2   2  12   17.22    5.63   0
  -2  -2  12   36.12    7.58   0
   2  -2 -12   41.41    5.95   0
  -1   2  12    0.25    1.90   0
   1   2 -12    0.28    1.62   0
   1  -2 -12    0.26    1.96   0
   0   2  12    1.98    7.36   0
   0   2 -12   12.63    6.92   0
   0   2 -12   -3.24    7.75   0
   0  -2 -12    5.16    4.47   0
   0  -2 -12    6.93    6.18   0
   1   2  12   -8.57    9.05   0
  -1   2 -12    3.69    6.21   0
  -1  -2 -12   10.73    4.51   0
  -1  -2 -12    4.87    4.58   0
  -2   2 -12   14.01    6.02   0
   2   2  12   26.01    8.55   0
  -2   2 -12   18.23    5.22   0
  -2  -2 -12   -5.66    5.79   0
   3   2  12   30.41   10.82   0
  -3  -2 -12   30.76    5.11   0
  -3  -2 -12   61.00    4.76   0
   9   3 -12  195.83    6.17   0
   9   3 -12  231.80    5.85   0
  -9   3  12  152.93    5.04   0
   9  -3 -12  135.55   10.46   0
   9  -3 -12  197.75    6.71   0
   8   3 -12  209.27    6.48   0
  -8   3  12  117.57    4.91   0
   8   3 -12  206.68    6.45   0
   8  -3 -12  150.83    7.94   0
   8  -3 -12  116.81    5.32   0
   7   3 -12   12.82    1.91   0
   7   3 -12   12.55    1.57   0
  -7   3  12   12.98    1.64   0
   7  -3 -12   13.10    1.51   0
   7  -3 -12   13.22    2.09   0
   6   3 -12  -13.41    6.37   0
  -6   3  12   -3.85    6.89   0
   6   3 -12   14.11    6.02   0
   6  -3 -12   -2.40    7.26   0
   6  -3 -12  -12.95    7.09   0
   5   3 -12   18.67    6.72   0
  -5   3  12   -3.92    6.53   0
   5   3 -12    3.39    6.14   0
   5  -3 -12    0.61    6.35   0
   5  -3 -12   -5.24    6.83   0
   4   3 -12    9.00    6.88   0
  -4   3  12   -3.36    6.77   0
   4   3 -12   -8.16    6.85   0
   4  -3 -12    7.44    7.13   0
   4  -3 -12   -1.06    6.32   0
   3   3 -12   82.87    8.98   0
  -3   3  12  117.46    6.83   0
   3   3 -12   85.68    7.55   0
   3  -3 -12   84.69    5.97   0
   3  -3 -12   66.86    7.03   0
   2   3 -12   14.57    9.61   0
  -2   3  12    0.90    6.65   0
   2   3 -12   14.48    6.46   0
   2  -3 -12    5.10    4.96   0
   2  -3 -12   -2.49    6.61   0
   1   3 -12   34.09    3.28   0
  -1   3  12  -26.11    6.63   0
   1   3 -12    5.06    6.13   0
   1  -3 -12   -7.47    5.00   0
   1  -3 -12   -4.68    6.59   0
   0   3  12  161.11    7.23   0
   0   3 -12  123.73    6.39   0
   0   3 -12  109.02    9.75   0
   0  -3 -12  111.30    4.67   0
   0  -3 -12   96.84    6.22   0
  -1   3 -12    4.37    6.10   0
   1   3  12  -14.42    6.43   0
  -1   3 -12    3.70    6.80   0
  -1  -3 -12  -15.72    4.84   0
  -1  -3 -12    2.08    5.63   0
  -2   3 -12   11.01    1.96   0
   2   3  12   10.97    1.93   0
  -2   3 -12   11.07    1.87   0
  -2  -3 -12   10.63    2.43   0
  -2  -3 -12   10.46    1.60   0
   3   3  12   90.32    2.63   0
  -3  -3 -12   66.29    5.59   0
   9   4 -12   72.66    5.87   0
   9   4 -12   88.14    6.12   0
  -9   4  12   91.10    6.28   0
   9  -4 -12   81.62    6.40   0
   8   4 -12   13.46    6.29   0
   8   4 -12   14.77    5.63   0
  -8   4  12    8.95    4.79   0
   8  -4 -12   22.80    6.07   0
   7   4 -12    0.55    2.44   0
  -7   4  12    0.57    1.97   0
   7   4 -12    0.55    1.51   0
   7  -4 -12    0.50    2.12   0
   7  -4 -12    0.54    1.78   0
   6   4 -12   -8.64    6.55   0
  -6   4  12    4.87    6.68   0
   6   4 -12   22.25    6.26   0
   6  -4 -12   -3.23    6.48   0
   6  -4 -12   -5.32    4.99   0
   5   4 -12   -2.41    2.04   0
  -5   4  12    0.02    1.57   0
   5   4 -12   -0.42    1.95   0
   5  -4 -12   -4.39    1.52   0
   5  -4 -12    0.01    1.82   0
   4   4 -12   29.02    4.84   0
   4   4 -12   52.18    7.17   0
  -4   4  12   39.32    5.76   0
   4  -4 -12   28.73    4.28   0
   4  -4 -12   46.59    7.10   0
   3   4 -12   37.79    7.78   0
  -3   4  12   23.15    4.48   0
   3   4 -12   40.58    6.69   0
   3  -4 -12   34.42    5.61   0
   3  -4 -12   33.32    7.05   0
   2   4 -12   37.96    9.52   0
  -2   4  12   37.57    5.86   0
   2   4 -12   48.46    6.40   0
   2  -4 -12   22.74    3.70   0
   2  -4 -12   23.99    6.99   0
   1   4 -12  128.50   13.55   0
  -1   4  12  201.11    6.31   0
   1   4 -12  170.65    6.52   0
   1  -4 -12  180.79    5.18   0
   1  -4 -12  141.40    7.11   0
   0   4 -12  270.27   13.90   0
   0   4  12  404.06    6.80   0
   0   4 -12  311.65    6.43   0
   0  -4 -12  378.42    5.39   0
   0  -4 -12  265.66    6.86   0
   1   4  12  521.08    7.44   0
  -1   4 -12  480.47    7.68   0
  -1   4 -12  423.43   10.03   0
  -1  -4 -12  537.66    5.39   0
  -1  -4 -12  459.36    7.33   0
   2   4  12  225.94    7.33   0
  -2   4 -12  167.30    6.25   0
  -2   4 -12  173.54    7.26   0
  -2  -4 -12  199.89    4.99   0
  -2  -4 -12  143.85    4.62   0
   8   5 -12   15.92    5.49   0
  -8   5  12   29.25    6.31   0
   8   5 -12   12.37    6.39   0
   8  -5 -12    0.97    5.67   0
  -7   5  12   62.74    6.50   0
   7   5 -12   51.48    6.31   0
   7   5 -12   63.50    4.65   0
   7  -5 -12   55.48    6.14   0
  -6   5  12   36.82    5.55   0
   6   5 -12   17.78    6.89   0
   6   5 -12    9.26    4.80   0
   6  -5 -12   31.02    6.79   0
   6  -5 -12   31.68    4.32   0
  -5   5  12   29.46    5.45   0
   5   5 -12   19.79    5.11   0
   5   5 -12   41.71    6.45   0
   5  -5 -12   26.39    6.57   0
   5  -5 -12   27.95    5.93   0
  -4   5  12   25.22    4.08   0
   4   5 -12   20.41    5.35   0
   4   5 -12   37.88    6.42   0
   4  -5 -12   44.06    5.04   0
   4  -5 -12   38.43    6.82   0
   3   5 -12  191.98    6.23   0
  -3   5  12  141.64    4.36   0
   3   5 -12  157.39    7.93   0
   3  -5 -12  221.43    5.65   0
   3  -5 -12  163.87    7.33   0
  -2   5  12   25.55    5.43   0
   2   5 -12    7.58    7.96   0
   2   5 -12   10.45    6.15   0
   2  -5 -12   21.62    3.53   0
   2  -5 -12    7.20    6.61   0
  -1   5  12  185.94    5.56   0
   1   5 -12  177.98    4.89   0
   1   5 -12  202.30    6.54   0
   1  -5 -12  151.11    3.85   0
   1  -5 -12  162.56    7.31   0
   0   5 -12  218.08    5.49   0
   0   5  12  259.38    6.27   0
   0   5 -12  273.53    6.34   0
   0  -5 -12  293.23    5.24   0
   0  -5 -12  211.24    4.85   0
  -1   5 -12   62.17    5.48   0
   1   5  12   58.86    5.34   0
  -1   5 -12   79.29    5.72   0
  -1  -5 -12   99.63    4.59   0
  -1  -5 -12   92.88    6.42   0
   2   5  12  212.38    6.46   0
  -2   5 -12  164.82    6.37   0
  -2   5 -12  140.44    7.78   0
  -2  -5 -12  185.38    5.99   0
  -2  -5 -12  172.22    4.49   0
  -8   6  12   19.65    2.42   0
   8   6 -12   19.61    1.64   0
   8   6 -12   19.67    1.82   0
   8  -6 -12   20.07    1.59   0
  -7   6  12   79.92    6.09   0
   7   6 -12   55.93    6.14   0
   7   6 -12   40.03    7.03   0
   7  -6 -12   57.37    5.79   0
  -6   6  12   64.10    5.82   0
   6   6 -12   62.05    6.23   0
   6   6 -12   46.33    6.26   0
   6  -6 -12   34.84    4.15   0
  -5   6  12   30.75    3.90   0
   5   6 -12    0.52    5.15   0
   5   6 -12   32.94    5.80   0
   5  -6 -12   21.55    5.42   0
  -4   6  12   40.99    5.42   0
   4   6 -12   40.71    5.53   0
   4   6 -12   40.94    5.20   0
   4  -6 -12   41.12    3.83   0
   4  -6 -12   41.05    5.47   0
  -3   6  12    2.97    2.20   0
   3   6 -12    3.02    2.25   0
   3   6 -12    3.03    1.58   0
   3  -6 -12    3.29    1.90   0
   3  -6 -12    2.51    1.73   0
  -2   6  12   50.40    4.88   0
   2   6 -12   69.00    7.64   0
   2   6 -12   43.95    5.42   0
   2  -6 -12   76.61    4.83   0
   2  -6 -12   33.70    6.81   0
   1   6 -12   18.44    5.01   0
  -1   6  12   51.35    5.33   0
   1   6 -12   19.71    8.37   0
   1  -6 -12   21.17    4.38   0
   1  -6 -12    9.77    6.91   0
   0   6  12   36.30    5.35   0
   0   6 -12   16.93    3.91   0
   0   6 -12    8.76    5.17   0
   0  -6 -12   38.40    4.59   0
   0  -6 -12   11.46    5.95   0
   1   6  12   47.53    5.09   0
  -1   6 -12   51.48    5.57   0
  -1  -6 -12   75.54    4.25   0
  -1  -6 -12   59.93    6.18   0
  -6   7  12   34.89    2.88   0
   6   7 -12   34.63    2.80   0
   6   7 -12   34.96    2.82   0
   6  -7 -12   34.53    2.77   0
  -5   7  12    1.67    2.17   0
   5   7 -12    1.84    1.76   0
   5   7 -12    1.91    1.51   0
   5  -7 -12    1.81    1.65   0
  -4   7  12   -3.82    1.70   0
   4   7 -12    6.39    6.57   0
   4   7 -12   -5.09    5.65   0
   4  -7 -12    5.61    4.66   0
  -3   7  12   54.92    4.86   0
   3   7 -12   18.04    5.44   0
   3   7 -12   47.63    4.90   0
   3  -7 -12   46.35    3.44   0
  -2   7  12   10.14    3.60   0
   2   7 -12    9.39    4.59   0
   2   7 -12    5.17    6.88   0
   2  -7 -12   10.27    4.34   0
  -1   7  12   -0.96    4.85   0
   1   7 -12   15.87    4.93   0
   1   7 -12   29.18    8.00   0
   1  -7 -12   -0.21    4.47   0
   0   7  12    3.84    5.09   0
   0   7 -12   -9.86    9.18   0
   0   7 -12    8.17    5.15   0
   0  -7 -12    4.78    4.53   0
  -4   8  12   25.28    5.41   0
   4   8 -12   18.40    4.17   0
   4   8 -12   32.51    5.23   0
   4  -8 -12   43.07    4.63   0
  -3   8  12   23.59    4.87   0
   3   8 -12   22.98    5.19   0
   3   8 -12    1.32    5.10   0
   3  -8 -12   22.89    4.45   0
   9   0 -13   10.90    3.72   0
  -9   0  13    0.96    3.64   0
   7   0 -13   44.63    6.22   0
  -7   0  13   32.28    4.23   0
  -5   0  13   54.69    6.29   0
   5   0 -13   38.13    7.49   0
  -3   0  13  -10.49    6.30   0
   3   0 -13   -0.23    6.49   0
  -1   0  13   35.85    6.50   0
   1   0 -13   17.98    5.99   0
   1   0  13   81.59    9.99   0
   9   1 -13   74.12    5.34   0
  -9   1  13   78.05    5.63   0
  -9  -1  13   62.88    5.40   0
   9  -1 -13   62.97    5.74   0
   8   1 -13  165.03    6.33   0
  -8   1  13  139.80    6.28   0
  -8  -1  13  140.95    6.02   0
   8  -1 -13  114.51    6.34   0
   7   1 -13   97.39    4.90   0
  -7   1  13  143.35    5.86   0
  -7  -1  13  133.38    4.49   0
   7  -1 -13  147.49    7.18   0
   6   1 -13   21.16    4.70   0
  -6   1  13   -5.38    6.24   0
  -6  -1  13    9.47    4.01   0
   6  -1 -13   11.83    5.39   0
   5   1 -13   59.17    7.46   0
  -5   1  13   22.87    4.61   0
  -5  -1  13   25.12    4.46   0
   5  -1 -13   21.80    5.89   0
   4   1 -13    6.52    8.06   0
  -4   1  13   42.46    4.88   0
  -4  -1  13   62.05    6.17   0
   4  -1 -13   65.09    7.89   0
  -3   1  13   12.91    6.56   0
   3   1 -13   26.35    9.52   0
  -3  -1  13   -9.02    5.84   0
   3  -1 -13    5.03    7.38   0
  -2   1  13   74.31    6.82   0
   2   1 -13   73.90    8.62   0
  -2  -1  13   73.68    6.49   0
   2  -1 -13   77.41    6.17   0
  -1   1  13  171.05    7.93   0
   1   1 -13  135.47    7.66   0
  -1  -1  13  175.27    8.31   0
   1  -1 -13  156.42    5.84   0
   0   1  13   13.11    6.83   0
   0   1 -13   14.06    5.65   0
   0  -1  13    9.76    7.39   0
   0  -1 -13    9.74    4.97   0
   1   1  13   19.02    7.86   0
  -1  -1 -13    7.75    4.67   0
  -2   1 -13  317.10    6.65   0
   2   1  13  286.34    6.43   0
  -2   1 -13  289.08    8.63   0
  -2  -1 -13  336.91    5.91   0
  -2  -1 -13  224.98    6.35   0
   9   2 -13   22.16    5.15   0
  -9   2  13   -9.25    5.67   0
   9  -2 -13    2.19    6.48   0
   9  -2 -13   -5.76    5.38   0
   8   2 -13  506.37    7.40   0
  -8   2  13  370.61    5.95   0
   8  -2 -13  483.26    7.86   0
   7   2 -13   54.82    6.35   0
  -7   2  13   54.99    5.94   0
  -7  -2  13   48.90    5.37   0
   7  -2 -13   40.02    6.92   0
   6   2 -13  130.30    6.86   0
  -6   2  13  121.07    6.35   0
  -6  -2  13  133.00    6.13   0
   6  -2 -13   59.08    5.68   0
   5   2 -13  120.76    7.02   0
  -5   2  13   98.72    4.09   0
  -5  -2  13   98.61    3.69   0
   5  -2 -13   98.73    3.62   0
   4   2 -13  107.56    6.34   0
  -4   2  13  178.16    7.43   0
  -4  -2  13  106.69    4.87   0
   4  -2 -13   97.41    7.61   0
   3   2 -13   23.45    6.44   0
  -3   2  13    6.88    6.85   0
  -3  -2  13   11.16    6.60   0
   3  -2 -13   10.80    6.17   0
  -2   2  13   12.58    6.68   0
   2   2 -13   17.58   10.73   0
   2  -2 -13   17.67    5.68   0
  -1   2  13   14.25    7.03   0
   1   2 -13  -20.15    8.41   0
   1  -2 -13   13.24    5.27   0
   0   2  13   48.68    7.19   0
   0   2 -13   49.38    6.43   0
   0   2 -13   27.09    6.92   0
   0  -2 -13   47.06    4.82   0
   0  -2 -13   39.34    5.36   0
   1   2  13   -6.74    7.89   0
  -1   2 -13   -4.54    6.80   0
  -1   2 -13   -4.80    5.80   0
  -1  -2 -13   -6.52    4.72   0
  -1  -2 -13   16.98    4.57   0
  -2   2 -13   24.42    5.34   0
   2   2  13   29.38    8.39   0
  -2   2 -13   19.78    6.50   0
  -2  -2 -13  -18.91    5.99   0
   9   3 -13  245.28    6.55   0
   9   3 -13  235.69    5.90   0
  -9   3  13  282.18    6.49   0
   9  -3 -13  176.70    9.27   0
   9  -3 -13  212.83    6.34   0
   8   3 -13   -4.12    5.62   0
  -8   3  13   12.54    4.28   0
   8   3 -13   10.61    5.73   0
   8  -3 -13   -2.70    6.93   0
   8  -3 -13    0.61    6.15   0
   7   3 -13   41.68    6.20   0
   7   3 -13   37.64    6.13   0
  -7   3  13   23.67    6.19   0
   7  -3 -13   30.76    7.45   0
   7  -3 -13    4.26    6.83   0
   6   3 -13  120.86    5.08   0
  -6   3  13  185.72    7.05   0
   6   3 -13  136.14    6.39   0
   6  -3 -13  119.08    6.92   0
   6  -3 -13  106.33    7.30   0
   5   3 -13  310.08    7.31   0
  -5   3  13  339.81    7.80   0
   5   3 -13  317.45    7.01   0
   5  -3 -13  245.44    7.43   0
   5  -3 -13  251.65    8.20   0
   4   3 -13   33.01    7.04   0
  -4   3  13   40.10    6.55   0
   4   3 -13   23.76    6.55   0
   4  -3 -13   35.31    6.46   0
   4  -3 -13   43.81    6.99   0
   3   3 -13   -4.10    8.20   0
  -3   3  13    3.42    7.20   0
   3   3 -13    2.14    6.99   0
   3  -3 -13   -8.80    4.29   0
   3  -3 -13  -20.96    4.99   0
   2   3 -13    7.82    4.50   0
  -2   3  13   27.18    7.18   0
   2   3 -13   -9.48    6.87   0
   2  -3 -13    6.53    5.42   0
   2  -3 -13  -10.91    5.42   0
   1   3 -13   -9.10    6.58   0
  -1   3  13   32.32    7.32   0
   1   3 -13    9.51    4.97   0
   1  -3 -13   12.13    4.63   0
   1  -3 -13   -5.84    7.18   0
   0   3  13   16.48    7.50   0
   0   3 -13   13.64    6.04   0
   0   3 -13    7.35    7.51   0
   0  -3 -13   22.45    4.63   0
   0  -3 -13   20.55    4.98   0
   1   3  13   37.76    8.42   0
  -1   3 -13   26.65    6.07   0
  -1   3 -13   33.60    6.16   0
  -1  -3 -13   44.25    4.67   0
  -1  -3 -13   38.63    5.95   0
   8   4 -13  -13.24    6.02   0
   8   4 -13   -0.42    5.67   0
  -8   4  13   17.68    6.19   0
   8  -4 -13   11.43    7.27   0
   8  -4 -13    3.49    5.91   0
   7   4 -13    2.12    6.23   0
  -7   4  13   -9.83    6.02   0
   7   4 -13   23.81    6.33   0
   7  -4 -13    0.03    6.27   0
   7  -4 -13    9.30    6.49   0
   6   4 -13   -2.27    4.57   0
  -6   4  13   14.78    6.68   0
   6   4 -13   20.28    6.37   0
   6  -4 -13   18.95    6.59   0
   6  -4 -13  -16.98    6.50   0
   5   4 -13  292.51    7.24   0
  -5   4  13  356.45    7.68   0
   5   4 -13  299.22    7.81   0
   5  -4 -13  234.70    7.46   0
   5  -4 -13  285.24    7.34   0
   4   4 -13    8.27    1.62   0
   4   4 -13    7.52    2.06   0
  -4   4  13    7.69    1.53   0
   4  -4 -13    8.45    1.99   0
   4  -4 -13    8.17    1.89   0
   3   4 -13   11.17    7.24   0
  -3   4  13   22.39    4.74   0
   3   4 -13   22.67    5.96   0
   3  -4 -13   22.70    4.09   0
   3  -4 -13   17.37    6.86   0
   2   4 -13   14.30    9.63   0
  -2   4  13   51.64    5.88   0
   2   4 -13   30.23    6.25   0
   2  -4 -13    9.78    5.20   0
   2  -4 -13   17.20    5.19   0
   1   4 -13   36.20    5.41   0
   1   4 -13   26.46    5.94   0
  -1   4  13   64.27    6.36   0
   1  -4 -13   42.10    4.95   0
   1  -4 -13   28.04    5.09   0
   0   4  13   76.91    6.30   0
   0   4 -13   89.38    6.55   0
   0   4 -13   45.28    5.07   0
   0  -4 -13   78.29    4.52   0
   0  -4 -13   56.66    6.50   0
   1   4  13   35.88    7.20   0
  -1   4 -13   29.84    6.03   0
  -1   4 -13   40.40    5.90   0
  -1  -4 -13   55.30    4.67   0
  -1  -4 -13   16.50    6.44   0
   7   5 -13   41.89    4.64   0
  -7   5  13   51.34    6.80   0
   7   5 -13   90.24    6.12   0
   7  -5 -13   47.61    6.02   0
   6   5 -13   23.22    5.94   0
  -6   5  13   23.61    4.61   0
   6   5 -13   10.89    4.85   0
   6  -5 -13   25.43    6.64   0
   6  -5 -13   23.06    4.66   0
  -5   5  13    7.73    6.36   0
   5   5 -13   13.02    4.84   0
   5   5 -13   26.94    6.54   0
   5  -5 -13  -15.24    6.49   0
   5  -5 -13    7.27    6.21   0
  -4   5  13    4.13    1.61   0
   4   5 -13    3.58    2.06   0
   4   5 -13    3.93    1.51   0
   4  -5 -13    3.63    2.43   0
   4  -5 -13    4.47    1.95   0
   3   5 -13    8.99    6.09   0
   3   5 -13   -9.74    5.20   0
  -3   5  13  -16.85    5.47   0
   3  -5 -13   15.91    4.80   0
   3  -5 -13    7.45    6.38   0
   2   5 -13   14.91    8.29   0
  -2   5  13   -0.45    5.43   0
   2   5 -13   -1.22    5.76   0
   2  -5 -13    7.01    3.57   0
   2  -5 -13   14.18    4.59   0
   1   5 -13   43.39    5.15   0
  -1   5  13    5.17    4.34   0
   1   5 -13   -2.75    5.47   0
   1  -5 -13   15.00    4.54   0
   1  -5 -13  -12.44    4.51   0
   0   5 -13    5.58    4.53   0
   0   5  13   46.98    6.06   0
   0   5 -13   20.81    5.99   0
   0  -5 -13   40.79    4.28   0
   0  -5 -13   23.19    6.52   0
  -6   6  13   -8.38    4.30   0
   6   6 -13   18.49    6.26   0
   6   6 -13    6.35    4.72   0
   6  -6 -13    3.03    5.27   0
  -5   6  13   65.22    5.29   0
   5   6 -13   64.85    5.03   0
   5   6 -13   64.94    5.20   0
   5  -6 -13   64.96    4.48   0
  -4   6  13    0.62    5.61   0
   4   6 -13    0.63    5.03   0
   4   6 -13    0.60    5.26   0
   4  -6 -13    0.56    4.05   0
   4  -6 -13    0.58    5.03   0
  -3   6  13   17.55    5.15   0
   3   6 -13  -17.79    6.93   0
   3   6 -13    2.00    5.08   0
   3  -6 -13  -13.08    5.05   0
   3  -6 -13   15.43    6.66   0
  -2   6  13    4.02    5.47   0
   2   6 -13    3.71    2.49   0
   2   6 -13    3.74    1.88   0
   2  -6 -13    3.55    1.78   0
   2  -6 -13    3.89    2.44   0
   1   6 -13   35.06    5.45   0
  -1   6  13   32.78    5.76   0
   1   6 -13   29.62    9.54   0
   1  -6 -13   28.33    4.40   0
   1  -6 -13   24.85    5.19   0
   8   0 -14   53.00    3.00   0
  -8   0  14   53.31    2.67   0
  -6   0  14   43.77    5.43   0
   6   0 -14   28.87    7.37   0
  -4   0  14    9.53    6.31   0
   4   0 -14   21.07    9.12   0
  -2   0  14   15.20    6.22   0
   2   0 -14   16.91    6.93   0
   0   0  14    7.66    7.51   0
   0   0 -14    3.13    5.35   0
   8   1 -14   14.71    4.06   0
  -8   1  14   13.67    5.73   0
  -8  -1  14   44.17    5.10   0
   8  -1 -14   20.37    5.65   0
   7   1 -14   12.22    1.91   0
  -7   1  14   11.99    1.75   0
  -7  -1  14   12.28    2.03   0
   7  -1 -14   11.98    2.44   0
   6   1 -14   28.80    4.75   0
  -6   1  14   38.61    4.23   0
  -6  -1  14   22.70    3.90   0
   6  -1 -14   23.17    7.49   0
   5   1 -14   20.43    7.24   0
  -5   1  14   21.63    5.84   0
  -5  -1  14   22.33    5.91   0
   5  -1 -14    0.32    3.21   0
  -4   1  14  242.62    6.50   0
   4   1 -14  242.81    6.60   0
  -4  -1  14  242.65    7.04   0
   4  -1 -14  243.34    7.41   0
  -3   1  14   -6.66    5.99   0
   3   1 -14   16.73    9.21   0
  -3  -1  14   -3.99    5.81   0
   3  -1 -14    8.84    6.68   0
  -2   1  14   10.53    4.75   0
   2   1 -14   21.17    8.26   0
  -2  -1  14    6.66    7.04   0
   2  -1 -14   -5.68    5.80   0
  -1   1  14   23.39    6.35   0
   1   1 -14   29.42    6.68   0
  -1  -1  14    9.76    6.91   0
   1  -1 -14   27.11    5.55   0
   0   1  14   -8.04    7.43   0
   0   1 -14    2.51    5.60   0
   0  -1 -14    2.52    5.31   0
   8   2 -14  119.49    4.64   0
  -8   2  14  165.16    6.01   0
   8  -2 -14  128.80    6.72   0
   7   2 -14   -5.37    5.99   0
  -7   2  14   20.36    5.56   0
  -7  -2  14   -3.16    3.99   0
   7  -2 -14   20.42    7.20   0
   6   2 -14   81.78    6.68   0
  -6   2  14  103.12    6.63   0
  -6  -2  14   72.90    5.50   0
   6  -2 -14   39.80    5.61   0
   5   2 -14  397.15    4.92   0
  -5   2  14  396.35    4.80   0
  -5  -2  14  398.09    4.53   0
   5  -2 -14  397.07    4.87   0
   4   2 -14  198.29    5.20   0
  -4   2  14  198.43    5.47   0
  -4  -2  14  199.26    5.12   0
   4  -2 -14  198.94    4.53   0
   3   2 -14   91.19    9.64   0
  -3   2  14  194.26    7.80   0
   3  -2 -14  164.49    6.65   0
  -2   2  14   26.15    2.01   0
   2   2 -14   25.53    2.47   0
   2  -2 -14   26.19    2.38   0
  -1   2  14   96.54    7.29   0
   1   2 -14  100.00    7.35   0
   1   2 -14   51.65    8.24   0
   1  -2 -14   93.04    5.55   0
   1  -2 -14   89.54    7.61   0
   0   2  14    4.32    8.26   0
   0   2 -14   10.34    7.89   0
   0   2 -14   26.72    7.14   0
   0  -2 -14   32.63    5.09   0
   0  -2 -14   24.97    5.05   0
   7   3 -14   29.12    5.69   0
   7   3 -14   47.69    6.09   0
  -7   3  14   60.64    5.78   0
   7  -3 -14   10.89    6.56   0
   7  -3 -14   21.93    5.00   0
   6   3 -14   63.88    6.69   0
  -6   3  14   81.74    6.87   0
   6   3 -14  110.63    6.47   0
   6  -3 -14   47.96    6.24   0
   6  -3 -14   39.82    7.35   0
   5   3 -14  169.00    6.71   0
  -5   3  14  188.60    7.38   0
   5   3 -14  178.67    6.97   0
   5  -3 -14  123.28    6.59   0
   5  -3 -14  147.39    7.70   0
   4   3 -14  177.92    6.37   0
  -4   3  14  249.36    7.63   0
   4   3 -14  248.69    7.11   0
   4  -3 -14  204.52    6.85   0
   4  -3 -14  176.28    7.30   0
   3   3 -14   21.73    6.58   0
  -3   3  14   43.91    7.46   0
   3   3 -14   32.71    6.85   0
   3  -3 -14   32.70    4.44   0
   3  -3 -14   10.00    6.62   0
   2   3 -14  -13.33   10.39   0
  -2   3  14   28.01    5.28   0
   2   3 -14   25.12    6.71   0
   2  -3 -14   12.68    5.57   0
   2  -3 -14   29.82    6.69   0
  -1   3  14   82.75    6.90   0
   1   3 -14   57.76    7.01   0
   1   3 -14   62.58    4.69   0
   1  -3 -14   44.12    4.76   0
   1  -3 -14   22.19    7.09   0
   7   4 -14    0.06    4.45   0
   7   4 -14   23.09    5.54   0
  -7   4  14   28.25    6.65   0
   7  -4 -14    8.36    6.07   0
   7  -4 -14   -3.45    6.25   0
   6   4 -14  109.83    6.62   0
  -6   4  14  155.34    7.26   0
   6   4 -14   87.98    6.26   0
   6  -4 -14  121.74    7.65   0
   6  -4 -14   97.85    7.72   0
   5   4 -14   90.20    6.36   0
   5   4 -14   64.37    6.70   0
  -5   4  14   90.67    6.81   0
   5  -4 -14   66.99    6.82   0
   5  -4 -14   57.26    5.21   0
   4   4 -14    7.50    7.33   0
   4   4 -14   18.52    6.88   0
  -4   4  14   20.03    6.51   0
   4  -4 -14    5.58    4.49   0
   4  -4 -14   22.15    6.13   0
   3   4 -14   38.45    3.10   0
  -3   4  14   38.46    3.41   0
   3   4 -14   37.87    3.05   0
   3  -4 -14   37.64    2.79   0
   3  -4 -14   38.30    3.27   0
   2   4 -14   24.77    4.58   0
  -2   4  14   29.81    6.94   0
   2   4 -14   46.35    6.39   0
   2  -4 -14   18.54    4.89   0
   2  -4 -14   -4.13    5.34   0
   1   4 -14    0.31    1.97   0
   1   4 -14    0.27    2.19   0
  -1   4  14    0.26    2.42   0
   1  -4 -14    0.35    2.10   0
   1  -4 -14    0.40    2.36   0
   5   5 -14    6.30    4.72   0
  -5   5  14  -13.91    5.88   0
   5   5 -14   39.85    5.96   0
   5  -5 -14    2.72    6.14   0
   5  -5 -14   -0.67    6.03   0
   4   5 -14   23.87    6.79   0
  -4   5  14   28.72    6.46   0
   4   5 -14   32.04    6.32   0
   4  -5 -14   18.70    5.72   0
   4  -5 -14   26.97    6.73   0
   3   5 -14    0.24    1.61   0
   3   5 -14    0.25    2.24   0
  -3   5  14    0.24    2.37   0
   3  -5 -14    0.23    1.95   0
   3  -5 -14    0.24    2.29   0
  -5   0  15   42.75    3.53   0
   5   0 -15   42.54    4.43   0
  -3   0  15   17.06    5.55   0
   3   0 -15   16.81    8.23   0
   6   1 -15   27.24    6.36   0
  -6   1  15   31.21    5.41   0
  -6  -1  15   45.29    5.19   0
   6  -1 -15   -1.26    7.55   0
  -5   1  15  161.09    5.15   0
   5   1 -15  160.97    5.30   0
  -5  -1  15  160.99    4.77   0
   5  -1 -15  160.67    5.48   0
  -4   1  15  109.90    6.82   0
   4   1 -15   58.79    9.48   0
  -4  -1  15   97.11    5.90   0
   4  -1 -15   62.38    7.13   0
  -3   1  15   34.28    6.35   0
   3   1 -15   37.02    5.41   0
  -3  -1  15   44.69    5.74   0
   3  -1 -15   26.64    7.12   0
   5   2 -15   18.23    7.66   0
  -5   2  15   41.23    5.89   0
   5  -2 -15   38.39    8.31   0
  -4   2  15  266.90    4.84   0
   4   2 -15  266.57    4.94   0
   4  -2 -15  267.06    5.15   0
  -3   2  15   40.31    6.36   0
   3   2 -15   32.54   10.57   0
   3  -2 -15   60.62    6.79   0
;
_shelx_hkl_checksum              41958
loop_
_space_group_symop_operation_xyz
'x, y, z'
'-x+1/2, y+1/2, -z+1/2'
'-x, -y, -z'
'x-1/2, -y-1/2, z-1/2'
loop_
_atom_site_label
_atom_site_type_symbol
_atom_site_fract_x
_atom_site_fract_y
_atom_site_fract_z
_atom_site_U_iso_or_equiv
_atom_site_adp_type
_atom_site_occupancy
_atom_site_site_symmetry_order
_atom_site_calc_flag
W1 W 0.35256(7) 0.57934(6) 0.03227(6) 0.02514(16) Uani 1 1 d
W2 W 0.61942(7) 0.63866(6) 0.05309(6) 0.02463(16) Uani 1 1 d
W3 W 0.57144(7) 0.43201(6) 0.14586(6) 0.02445(16) Uani 1 1 d
I1 I 0.53718(12) 0.65761(10) 0.24072(10) 0.0310(3) Uani 1 1 d
I2 I 0.40468(12) 0.80205(9) -0.06087(10) 0.0317(3) Uani 1 1 d
I3 I 0.29782(12) 0.36513(10) 0.13370(10) 0.0330(3) Uani 1 1 d
I4 I 0.14645(12) 0.50656(9) -0.17208(10) 0.0302(3) Uani 1 1 d
I5 I 0.80779(12) 0.84960(9) 0.12423(10) 0.0310(3) Uani 1 1 d
I6 I 0.13167(14) 0.70045(12) 0.07440(12) 0.0451(3) Uani 1 1 d
loop_
_atom_site_aniso_label
_atom_site_aniso_U_11
_atom_site_aniso_U_22
_atom_site_aniso_U_33
_atom_site_aniso_U_23
_atom_site_aniso_U_13
_atom_site_aniso_U_12
W1 0.0264(3) 0.0201(3) 0.0245(4) -0.0014(3) 0.0040(3) 0.0006(3)
W2 0.0282(3) 0.0173(3) 0.0234(3) -0.0008(3) 0.0035(3) -0.0006(3)
W3 0.0266(3) 0.0175(3) 0.0238(3) -0.0004(3) 0.0027(3) -0.0012(2)
I1 0.0363(6) 0.0256(5) 0.0250(6) -0.0063(5) 0.0041(5) -0.0003(4)
I2 0.0337(6) 0.0205(5) 0.0329(6) 0.0008(4) 0.0026(5) 0.0014(4)
I3 0.0359(6) 0.0307(6) 0.0305(6) -0.0002(5) 0.0098(5) -0.0035(5)
I4 0.0312(6) 0.0227(5) 0.0302(6) 0.0008(4) 0.0034(5) 0.0005(4)
I5 0.0377(6) 0.0225(5) 0.0278(6) -0.0044(4) 0.0060(5) -0.0063(4)
I6 0.0407(7) 0.0450(7) 0.0487(8) -0.0096(6) 0.0151(6) 0.0060(6)
loop_
_atom_type_symbol
_atom_type_description
_atom_type_scat_dispersion_real
_atom_type_scat_dispersion_imag
_atom_type_scat_source
W W -0.8490 6.8722 'International Tables Vol C Tables 4.2.6.8 and 6.1.1.4'
I I -0.4742 1.8119 'International Tables Vol C Tables 4.2.6.8 and 6.1.1.4'
loop_
_geom_angle_atom_site_label_1
_geom_angle_atom_site_label_2
_geom_angle_atom_site_label_3
_geom_angle
_geom_angle_site_symmetry_1
_geom_angle_site_symmetry_3
W3 W1 W2 60.01(3) 3_665 3_665
W3 W1 W2 60.35(3) 3_665 .
W2 W1 W2 90.11(3) 3_665 .
W3 W1 W3 90.12(3) 3_665 .
W2 W1 W3 60.29(2) 3_665 .
W2 W1 W3 59.61(2) . .
W3 W1 I1 122.65(4) 3_665 .
W2 W1 I1 122.25(4) 3_665 .
W2 W1 I1 62.32(3) . .
W3 W1 I1 62.00(3) . .
W3 W1 I4 62.00(3) 3_665 .
W2 W1 I4 61.19(3) 3_665 .
W2 W1 I4 122.35(4) . .
W3 W1 I4 121.46(4) . .
I1 W1 I4 174.93(5) . .
W3 W1 I6 133.16(4) 3_665 .
W2 W1 I6 134.96(4) 3_665 .
W2 W1 I6 134.89(4) . .
W3 W1 I6 136.72(5) . .
I1 W1 I6 88.30(4) . .
I4 W1 I6 86.77(4) . .
W3 W1 I3 121.60(4) 3_665 .
W2 W1 I3 61.59(3) 3_665 .
W2 W1 I3 120.70(4) . .
W3 W1 I3 61.12(3) . .
I1 W1 I3 89.03(4) . .
I4 W1 I3 89.78(4) . .
I6 W1 I3 89.75(4) . .
W3 W1 I2 61.44(3) 3_665 .
W2 W1 I2 121.45(4) 3_665 .
W2 W1 I2 60.20(3) . .
W3 W1 I2 119.79(4) . .
I1 W1 I2 89.01(4) . .
I4 W1 I2 91.97(4) . .
I6 W1 I2 87.87(4) . .
I3 W1 I2 176.96(5) . .
W3 W2 W1 59.96(3) . 3_665
W3 W2 W1 60.24(2) . .
W1 W2 W1 89.89(3) 3_665 .
W3 W2 W3 90.01(3) . 3_665
W1 W2 W3 60.16(2) 3_665 3_665
W1 W2 W3 59.53(3) . 3_665
W3 W2 I2 122.81(4) . .
W1 W2 I2 122.13(4) 3_665 .
W1 W2 I2 62.59(3) . .
W3 W2 I2 62.02(3) 3_665 .
W3 W2 I4 62.19(3) . 3_665
W1 W2 I4 61.76(3) 3_665 3_665
W1 W2 I4 122.43(4) . 3_665
W3 W2 I4 121.89(4) 3_665 3_665
I2 W2 I4 174.47(4) . 3_665
W3 W2 I3 121.80(4) . 3_665
W1 W2 I3 61.84(3) 3_665 3_665
W1 W2 I3 120.67(4) . 3_665
W3 W2 I3 61.16(3) 3_665 3_665
I2 W2 I3 88.66(4) . 3_665
I4 W2 I3 90.23(4) 3_665 3_665
W3 W2 I1 61.55(3) . .
W1 W2 I1 121.51(4) 3_665 .
W1 W2 I1 60.49(3) . .
W3 W2 I1 119.99(4) 3_665 .
I2 W2 I1 89.31(4) . .
I4 W2 I1 91.55(4) 3_665 .
I3 W2 I1 176.66(4) 3_665 .
W3 W2 I5 136.77(4) . .
W1 W2 I5 132.48(4) 3_665 .
W1 W2 I5 137.55(4) . .
W3 W2 I5 133.12(4) 3_665 .
I2 W2 I5 87.43(4) . .
I4 W2 I5 87.08(4) 3_665 .
I3 W2 I5 85.21(4) 3_665 .
I1 W2 I5 92.05(4) . .
W1 W3 W2 60.03(3) 3_665 .
W1 W3 W1 89.88(3) 3_665 .
W2 W3 W1 60.15(3) . .
W1 W3 W2 60.12(3) 3_665 3_665
W2 W3 W2 89.99(3) . 3_665
W1 W3 W2 59.54(2) . 3_665
W1 W3 I3 121.69(4) 3_665 .
W2 W3 I3 121.93(4) . .
W1 W3 I3 61.80(3) . .
W2 W3 I3 61.59(3) 3_665 .
W1 W3 I2 62.19(3) 3_665 3_665
W2 W3 I2 122.22(4) . 3_665
W1 W3 I2 119.89(4) . 3_665
W2 W3 I2 60.39(3) 3_665 3_665
I3 W3 I2 88.02(4) . 3_665
W1 W3 I1 122.03(4) 3_665 .
W2 W3 I1 62.00(3) . .
W1 W3 I1 60.61(3) . .
W2 W3 I1 120.11(4) 3_665 .
I3 W3 I1 88.65(4) . .
I2 W3 I1 175.67(5) 3_665 .
W1 W3 I4 61.35(3) 3_665 3_665
W2 W3 I4 60.96(3) . 3_665
W1 W3 I4 121.11(4) . 3_665
W2 W3 I4 121.47(4) 3_665 3_665
I3 W3 I4 176.36(4) . 3_665
I2 W3 I4 92.02(4) 3_665 3_665
I1 W3 I4 91.12(4) . 3_665
W1 W3 I5 135.64(4) 3_665 2_645
W2 W3 I5 129.69(4) . 2_645
W1 W3 I5 134.03(4) . 2_645
W2 W3 I5 140.30(4) 3_665 2_645
I3 W3 I5 90.90(4) . 2_645
I2 W3 I5 92.98(4) 3_665 2_645
I1 W3 I5 84.30(4) . 2_645
I4 W3 I5 85.46(4) 3_665 2_645
W1 I1 W3 57.39(3) . .
W1 I1 W2 57.19(3) . .
W3 I1 W2 56.45(3) . .
W2 I2 W3 57.58(3) . 3_665
W2 I2 W1 57.21(3) . .
W3 I2 W1 56.37(3) 3_665 .
W3 I3 W2 57.24(3) . 3_665
W3 I3 W1 57.09(3) . .
W2 I3 W1 56.57(3) 3_665 .
W2 I4 W1 57.05(3) 3_665 .
W2 I4 W3 56.85(3) 3_665 3_665
W1 I4 W3 56.65(3) . 3_665
W3 I5 W2 123.28(5) 2_655 .
loop_
_geom_bond_atom_site_label_1
_geom_bond_atom_site_label_2
_geom_bond_distance
_geom_bond_site_symmetry_2
W1 W3 2.6594(11) 3_665
W1 W2 2.6612(9) 3_665
W1 W2 2.6754(10) .
W1 W3 2.6779(9) .
W1 I1 2.7701(13) .
W1 I4 2.7938(13) .
W1 I6 2.7960(15) .
W1 I3 2.8111(13) .
W1 I2 2.8251(13) .
W2 W3 2.6607(9) .
W2 W1 2.6612(9) 3_665
W2 W3 2.6815(10) 3_665
W2 I2 2.7617(13) .
W2 I4 2.7787(13) 3_665
W2 I3 2.8046(15) 3_665
W2 I1 2.8190(15) .
W2 I5 2.8956(12) .
W3 W1 2.6593(11) 3_665
W3 W2 2.6815(10) 3_665
W3 I3 2.7931(14) .
W3 I2 2.8053(13) 3_665
W3 I1 2.8070(13) .
W3 I4 2.8111(13) 3_665
W3 I5 2.8863(13) 2_645
I2 W3 2.8053(13) 3_665
I3 W2 2.8045(15) 3_665
I4 W2 2.7786(13) 3_665
I4 W3 2.8111(13) 3_665
I5 W3 2.8863(13) 2_655
