#------------------------------------------------------------------------------
#$Date: 2017-06-05 03:10:41 +0300 (Mon, 05 Jun 2017) $
#$Revision: 197401 $
#$URL: file:///home/coder/svn-repositories/cod/cif/4/34/57/4345763.cif $
#------------------------------------------------------------------------------
#
# This file is available in the Crystallography Open Database (COD),
# http://www.crystallography.net/
#
# All data on this site have been placed in the public domain by the
# contributors.
#
data_4345763
loop_
_publ_author_name
'Str\"obele, Markus'
'Meyer, Hans-J\"urgen'
_publ_section_title
;
 A Reaction Cycle for Octahedral Tungsten Iodide Clusters.
;
_journal_issue                   10
_journal_name_full               'Inorganic chemistry'
_journal_page_first              5880
_journal_page_last               5884
_journal_paper_doi               10.1021/acs.inorgchem.7b00537
_journal_volume                  56
_journal_year                    2017
_chemical_formula_sum            'I12.73 W6'
_chemical_formula_weight         2719.17
_space_group_crystal_system      triclinic
_space_group_IT_number           2
_space_group_name_Hall           '-P 1'
_space_group_name_H-M_alt        'P -1'
_symmetry_space_group_name_Hall  '-P 1'
_symmetry_space_group_name_H-M   'P -1'
_audit_creation_method           SHELXL-2014/7
_cell_angle_alpha                89.997(6)
_cell_angle_beta                 106.695(7)
_cell_angle_gamma                98.770(7)
_cell_formula_units_Z            2
_cell_length_a                   9.9618(10)
_cell_length_b                   10.9049(8)
_cell_length_c                   13.0586(10)
_cell_measurement_reflns_used    10663
_cell_measurement_temperature    293(2)
_cell_measurement_theta_max      25.186
_cell_measurement_theta_min      2.162
_cell_volume                     1341.5(2)
_computing_cell_refinement       'STOE IPDS-Software'
_computing_data_collection       'STOE IPDS-Software'
_computing_data_reduction        'STOE IPDS-Software'
_computing_structure_refinement  'SHELXL-2014/7 (Sheldrick, 2014)'
_computing_structure_solution    'SHELXL-2014/7 (Sheldrick, 2014)'
_diffrn_ambient_temperature      293(2)
_diffrn_measured_fraction_theta_full 0.999
_diffrn_measured_fraction_theta_max 0.999
_diffrn_measurement_device_type  'STOE IPDSIIT'
_diffrn_measurement_method       Oscillation
_diffrn_radiation_type           MoK\a
_diffrn_radiation_wavelength     0.71073
_diffrn_reflns_av_R_equivalents  0.0404
_diffrn_reflns_av_unetI/netI     0.0503
_diffrn_reflns_Laue_measured_fraction_full 0.999
_diffrn_reflns_Laue_measured_fraction_max 0.999
_diffrn_reflns_limit_h_max       11
_diffrn_reflns_limit_h_min       -11
_diffrn_reflns_limit_k_max       13
_diffrn_reflns_limit_k_min       -13
_diffrn_reflns_limit_l_max       15
_diffrn_reflns_limit_l_min       -15
_diffrn_reflns_number            10663
_diffrn_reflns_point_group_measured_fraction_full 0.999
_diffrn_reflns_point_group_measured_fraction_max 0.999
_diffrn_reflns_theta_full        25.186
_diffrn_reflns_theta_max         25.186
_diffrn_reflns_theta_min         2.162
_exptl_absorpt_coefficient_mu    40.261
_exptl_absorpt_correction_T_max  0.0913
_exptl_absorpt_correction_T_min  0.0097
_exptl_absorpt_correction_type   numerical
_exptl_absorpt_process_details   'STOE X-Red/X-Shape/Lana'
_exptl_crystal_colour            red
_exptl_crystal_density_diffrn    6.732
_exptl_crystal_description       Plate
_exptl_crystal_F_000             2238
_exptl_crystal_size_max          0.05
_exptl_crystal_size_mid          0.03
_exptl_crystal_size_min          0.02
_refine_diff_density_max         1.664
_refine_diff_density_min         -1.489
_refine_diff_density_rms         0.360
_refine_ls_extinction_method     none
_refine_ls_goodness_of_fit_ref   0.985
_refine_ls_hydrogen_treatment    none
_refine_ls_matrix_type           full
_refine_ls_number_parameters     173
_refine_ls_number_reflns         4808
_refine_ls_number_restraints     0
_refine_ls_restrained_S_all      0.985
_refine_ls_R_factor_all          0.0710
_refine_ls_R_factor_gt           0.0384
_refine_ls_shift/su_max          0.000
_refine_ls_shift/su_mean         0.000
_refine_ls_structure_factor_coef Fsqd
_refine_ls_weighting_details
'w=1/[\s^2^(Fo^2^)+(0.0432P)^2^] where P=(Fo^2^+2Fc^2^)/3'
_refine_ls_weighting_scheme      calc
_refine_ls_wR_factor_gt          0.0684
_refine_ls_wR_factor_ref         0.0770
_reflns_Friedel_coverage         0.000
_reflns_number_gt                3564
_reflns_number_total             4808
_reflns_threshold_expression     'I > 2\s(I)'
_cod_data_source_file            ic7b00537_si_001.cif
_cod_data_source_block           W6I12_73
_cod_depositor_comments
'Adding full bibliography for 4345762--4345763.cif.'
_cod_database_code               4345763
_shelx_shelxl_version_number     2014/7
_shelx_space_group_comment
;
The symmetry employed for this shelxl refinement is uniquely defined
by the following loop, which should always be used as a source of
symmetry information in preference to the above space-group names.
They are only intended as comments.
;
_shelx_res_file
;

    D:\Test\W6I13.res created by SHELXL-2014/7


TITL
CELL  0.71073  9.96180 10.90490 13.05860 89.99700 106.69500 98.77000
ZERR 2  0.00100  0.00080  0.00100  0.00600  0.00700  0.00700
LATT 1
SFAC W I
UNIT 12 25.47
PLAN 30
FMAP 2
L.S. 20
SHEL 0.835 99.0
OMIT 1 0 6
ACTA
WGHT    0.043200
FVAR       0.07252
W1    1   -0.173653   -0.106069    0.439570    11.00000    0.06166    0.02632 =
         0.01942   -0.00009    0.01269    0.01182
W2    1   -0.066814    0.124745    0.407390    11.00000    0.05959    0.02630 =
         0.02128   -0.00071    0.01682    0.01032
W3    1    0.073075   -0.061521    0.396496    11.00000    0.06309    0.02935 =
         0.02025    0.00065    0.01974    0.01996
W4    1    0.173050    0.441835    0.063059    11.00000    0.05548    0.02684 =
         0.02914   -0.00086    0.02137    0.01475
W5    1   -0.076170    0.418259    0.103816    11.00000    0.05319    0.02541 =
         0.02172    0.00303    0.01170    0.01212
W6    1    0.065096    0.643792    0.092461    11.00000    0.06103    0.01857 =
         0.02179    0.00146    0.01915    0.00867
I1    2    0.032573    0.310135    0.571628    11.00000    0.07533    0.02812 =
         0.03308    0.00046    0.02349    0.01735
I2    2   -0.174569   -0.040171    0.231749    11.00000    0.06108    0.03596 =
         0.02304   -0.00670    0.01165    0.01159
I3    2   -0.327822    0.085098    0.452514    11.00000    0.05457    0.04803 =
         0.03755    0.00218    0.01873    0.01408
I4    2    0.196252    0.177704    0.361286    11.00000    0.05440    0.03353 =
         0.03147    0.00233    0.02183    0.00911
I5    2   -0.185596    0.311536    0.269584    11.00000    0.05993    0.03554 =
         0.02949    0.00558    0.02470    0.01527
I6    2    0.183011    0.862814    0.228906    11.00000    0.06533    0.03581 =
         0.03133   -0.00626    0.02578    0.00466
I7    2   -0.426524   -0.266512    0.348533    11.00000    0.08498    0.05190 =
         0.05197   -0.00155    0.01766    0.00650
I8    2    0.328596    0.673846    0.052169    11.00000    0.05315    0.04994 =
         0.04152   -0.00230    0.02393    0.01074
I9    2    0.169469    0.508372    0.268307    11.00000    0.06124    0.03493 =
         0.03294    0.00292    0.01988    0.02075
I10   2   -0.027635    0.800662   -0.071526    11.00000    0.07490    0.02455 =
         0.03228   -0.00238    0.02793    0.01042
I11   2   -0.200148    0.624115    0.135521    11.00000    0.06678    0.03684 =
         0.02665   -0.00989    0.01786    0.01223
I12   2    0.425237    0.354755    0.162990    11.00000    0.05166    0.05884 =
         0.06662   -0.00264    0.01254    0.02473
I13   2    0.455473    0.082903    0.056209     0.73715    0.07421    0.05525 =
         0.07254   -0.00028    0.03037    0.01278
HKLF 4

REM
REM R1 =  0.0384 for    3564 Fo > 4sig(Fo)  and  0.0710 for all    4808 data
REM    173 parameters refined using      0 restraints

END

WGHT      0.0432      0.0000

REM Highest difference peak  1.664,  deepest hole -1.489,  1-sigma level  0.360
Q1    1  -0.0596 -0.1577  0.3986  11.00000  0.05    1.66
Q2    1   0.0200  1.0401 -0.0815  11.00000  0.05    1.39
Q3    1  -0.2881  0.2845  0.4239  11.00000  0.05    1.39
Q4    1  -0.3706  0.1209  0.2393  11.00000  0.05    1.35
Q5    1   0.1519  0.3946  0.5546  11.00000  0.05    1.34
Q6    1  -0.0772  0.3556  0.6155  11.00000  0.05    1.29
Q7    1  -0.2354  0.3735  0.2152  11.00000  0.05    1.29
Q8    1   0.0651  0.2217  0.4007  11.00000  0.05    1.28
Q9    1  -0.5324 -0.4626  0.2983  11.00000  0.05    1.27
Q10   1   0.0449  0.3427  0.0639  11.00000  0.05    1.26
Q11   1   0.4411  0.6241 -0.0221  11.00000  0.05    1.26
Q12   1  -0.2031  0.2559  0.2987  11.00000  0.05    1.26
Q13   1   0.3413  0.8438  0.2443  11.00000  0.05    1.22
Q14   1  -0.3132 -0.2043  0.1350  11.00000  0.05    1.21
Q15   1  -0.1629  0.0223  0.2588  11.00000  0.05    1.19
Q16   1   0.3653 -0.0674 -0.0017  11.00000  0.05    1.19
Q17   1  -0.0768  0.6994  0.1037  11.00000  0.05    1.16
Q18   1  -0.0724  0.4043  0.4195  11.00000  0.05    1.16
Q19   1  -0.2331 -0.1093  0.1360  11.00000  0.05    1.16
Q20   1   0.3133  0.4169  0.0197  11.00000  0.05    1.16
Q21   1  -0.4563 -0.3121  0.2236  11.00000  0.05    1.16
Q22   1   0.4371  0.0715  0.1512  11.00000  0.05    1.14
Q23   1   0.1730  0.6571  0.1459  11.00000  0.05    1.14
Q24   1  -0.4535 -0.4171  0.4593  11.00000  0.05    1.14
Q25   1  -0.3326  0.5218  0.1197  11.00000  0.05    1.13
Q26   1   0.3813  0.0963  0.2852  11.00000  0.05    1.13
Q27   1  -0.0455 -0.1026  0.2823  11.00000  0.05    1.12
Q28   1   0.3111  0.0697  0.3980  11.00000  0.05    1.12
Q29   1  -0.2120  0.7416  0.1781  11.00000  0.05    1.11
Q30   1  -0.0913  0.4369  0.5514  11.00000  0.05    1.11
;
_shelx_res_checksum              46169
_shelx_hkl_file
;
   1   0   0 2803.53   27.86   0
   2   0   0   11.48    2.84   0
   3   0   0  526.27    6.02   0
  -3   0   0  525.68    5.95   0
   4   0   0  107.96    5.14   0
  -4   0   0  108.33    4.65   0
   5   0   0  326.86    6.93   0
  -5   0   0  327.12    6.84   0
   6   0   0   80.24    4.11   0
  -6   0   0   79.52    4.35   0
   7   0   0  148.12    6.05   0
  -7   0   0  148.00    6.19   0
  -8   0   0 1009.14   11.78   0
  -8   0   0 1010.76   11.95   0
   9   0   0   78.05    4.27   0
  -9   0   0   78.33    3.82   0
 -10   0   0    2.22    2.28   0
 -10   0   0    1.60    2.44   0
  11   0   0   13.84    1.73   0
 -11   0   0   14.37    1.83   0
 -11   1   0   11.58    1.63   0
 -11   1   0   12.16    1.79   0
 -10   1   0   15.92    2.02   0
 -10   1   0   17.93    2.26   0
  -9   1   0   16.90    1.87   0
  -9   1   0   17.19    2.11   0
  -8   1   0   77.25    4.28   0
  -8   1   0   76.63    4.18   0
  -7   1   0    2.91    1.66   0
  -6   1   0    8.98    2.17   0
  -6   1   0    8.80    2.31   0
  -5   1   0    4.26    2.29   0
  -5   1   0    4.46    1.98   0
  -4   1   0  996.64    7.45   0
  -4   1   0  996.93    6.69   0
  -3   1   0  -14.69    1.66   0
   3  -1   0   -1.65    1.57   0
  -2   1   0   50.96    4.36   0
   2  -1   0   51.02    4.08   0
  -1   1   0    0.46    1.68   0
  -1   1   0    0.54    2.36   0
   1   1   0    0.41    1.86   0
   1   1   0    0.36    1.71   0
   2   1   0   81.94    4.17   0
  -2  -1   0   81.75    4.03   0
   3   1   0   43.88    2.92   0
  -3  -1   0   44.27    3.38   0
   4   1   0 1097.52   11.12   0
  -4  -1   0 1098.11   10.66   0
  -5  -1   0   31.08    2.12   0
  -5  -1   0   30.89    1.86   0
   6   1   0    8.24    2.58   0
  -6  -1   0    7.98    2.89   0
   7   1   0   18.09    1.67   0
  -7  -1   0   17.93    1.63   0
  -8  -1   0   67.24    3.93   0
  -8  -1   0   66.84    3.56   0
   9   1   0    6.90    1.80   0
  -9  -1   0    7.42    1.74   0
 -10  -1   0   32.72    1.77   0
 -10  -1   0   -5.88    2.23   0
  11   1   0    9.21    2.17   0
 -11   2   0   11.43    1.80   0
 -11   2   0   11.29    1.60   0
 -10   2   0   22.42    2.27   0
 -10   2   0   22.41    1.53   0
  -9   2   0   26.05    2.05   0
  -9   2   0   18.57    2.40   0
  -8   2   0   26.26    2.67   0
  -8   2   0   25.75    2.50   0
  -7   2   0   22.70    1.96   0
  -7   2   0    0.96    2.47   0
  -6   2   0    9.02    2.11   0
  -6   2   0    8.54    2.38   0
  -5   2   0  134.53    5.12   0
  -5   2   0  135.37    4.60   0
  -4   2   0  161.69    5.00   0
   4  -2   0  101.55    5.07   0
  -3   2   0  437.75    6.77   0
   3  -2   0  437.55    7.03   0
  -2   2   0    7.25    1.84   0
  -2   2   0    6.50    1.75   0
   2  -2   0    6.56    1.57   0
  -1   2   0  121.85    4.97   0
  -1   2   0  121.90    4.90   0
   0   2   0   27.70    2.86   0
   0   2   0   28.24    3.19   0
   0  -2   0    6.53    1.82   0
   1   2   0   84.66    3.45   0
   1   2   0   84.69    2.97   0
  -1  -2   0   84.87    3.06   0
  -1  -2   0   85.08    3.20   0
   2   2   0  303.98    4.94   0
  -2  -2   0  304.46    5.20   0
  -3  -2   0  179.28    4.96   0
  -3  -2   0  180.11    5.45   0
   4   2   0  111.20    4.97   0
  -4  -2   0  110.57    4.60   0
   5   2   0   16.40    1.74   0
  -5  -2   0   16.25    2.44   0
  -6  -2   0    8.91    2.40   0
  -7  -2   0   24.28    1.87   0
  -7  -2   0   23.53    2.29   0
  -8  -2   0  -20.87    2.13   0
  -8  -2   0  -17.61    1.67   0
  -8  -2   0  -13.46    2.25   0
   9   2   0   25.81    2.19   0
  -9  -2   0   25.89    2.48   0
  -9  -2   0   25.64    2.28   0
 -10  -2   0   -1.99    2.06   0
 -10  -2   0    3.96    2.13   0
 -11  -2   0   15.34    2.25   0
 -11  -2   0   15.29    1.64   0
 -11   3   0   -7.67    1.88   0
 -11   3   0    0.04    1.67   0
 -10   3   0    1.01    2.46   0
 -10   3   0   -3.39    1.82   0
  -9   3   0   48.23    3.20   0
  -9   3   0   47.70    2.55   0
  -8   3   0   16.91    1.98   0
  -8   3   0   16.72    2.09   0
  -7   3   0   11.28    2.03   0
  -7   3   0   28.92    2.45   0
  -6   3   0  236.59    4.90   0
  -6   3   0  237.27    5.10   0
  -5   3   0  730.41    5.15   0
  -5   3   0  729.50    5.22   0
  -4   3   0 1922.89   12.24   0
   4  -3   0 1923.37   11.73   0
  -3   3   0  223.30    5.95   0
   3  -3   0  223.43    5.71   0
  -2   3   0   77.13    2.95   0
  -2   3   0   77.16    2.69   0
   2  -3   0   77.40    3.40   0
  -1   3   0   57.74    2.77   0
  -1   3   0   57.76    3.28   0
   1  -3   0   57.66    2.69   0
   0   3   0   72.43    4.38   0
   0  -3   0   71.54    3.62   0
   0  -3   0   71.85    4.36   0
   1   3   0  102.92    3.39   0
   1   3   0  103.18    2.71   0
   2   3   0  139.19    4.74   0
  -2  -3   0  138.76    5.12   0
  -2  -3   0  138.55    5.41   0
   3   3   0 1614.74   16.19   0
  -3  -3   0 1615.12   16.43   0
  -4  -3   0 1389.35   13.03   0
  -4  -3   0 1388.80   13.42   0
   5   3   0  185.67    6.24   0
  -5  -3   0  186.48    6.26   0
   6   3   0    6.42    1.83   0
  -6  -3   0    6.02    2.08   0
  -7  -3   0   32.66    3.41   0
  -7  -3   0   33.27    2.99   0
  -8  -3   0   57.22    2.69   0
  -8  -3   0   46.28    2.50   0
   9   3   0    1.71    2.36   0
  -9  -3   0    1.69    1.63   0
  -9  -3   0    1.74    2.35   0
 -10  -3   0    0.03    2.49   0
 -10  -3   0    0.07    2.46   0
 -11   4   0    2.57    1.64   0
 -11   4   0   -8.49    2.30   0
 -10   4   0   -4.60    1.64   0
 -10   4   0    5.04    2.37   0
 -10   4   0   17.12    2.34   0
  -9   4   0   24.29    1.94   0
  -9   4   0   23.99    1.96   0
  -8   4   0  257.18    4.52   0
  -8   4   0  256.68    5.38   0
  -7   4   0   18.53    1.67   0
  -7   4   0   19.24    2.17   0
  -7   4   0   19.02    2.06   0
  -6   4   0    1.64    3.39   0
   6  -4   0    1.42    3.48   0
  -5   4   0  121.65    4.75   0
   5  -4   0  122.04    4.73   0
  -4   4   0   55.48    2.72   0
   4  -4   0   55.47    2.57   0
  -3   4   0   71.83    2.87   0
   3  -4   0   55.16    2.64   0
  -2   4   0   58.81    3.41   0
  -2   4   0   59.18    3.40   0
   2  -4   0   59.42    2.97   0
   2  -4   0   59.31    3.34   0
  -1   4   0 1007.33   11.82   0
   1  -4   0 1006.52   11.60   0
   0   4   0 1283.80   11.54   0
   0  -4   0 1284.40   11.79   0
   1   4   0    4.44    1.82   0
   1   4   0    4.27    1.82   0
  -1  -4   0    4.09    2.35   0
  -1  -4   0    3.57    1.95   0
   2   4   0   12.12    1.62   0
   2   4   0   11.57    1.58   0
  -2  -4   0   12.30    2.13   0
  -2  -4   0   12.37    2.30   0
   3   4   0   27.15    2.98   0
  -3  -4   0   27.14    2.66   0
  -3  -4   0   27.09    3.06   0
  -4  -4   0  100.48    5.40   0
  -4  -4   0   99.56    5.42   0
  -5  -4   0   11.83    2.47   0
  -5  -4   0  -11.15    2.42   0
   6   4   0   88.57    3.64   0
  -6  -4   0   88.80    4.02   0
   7   4   0  223.02    5.67   0
  -7  -4   0  223.05    6.43   0
   8   4   0   44.84    3.09   0
  -8  -4   0   44.98    3.06   0
  -9  -4   0   -1.18    1.83   0
  -9  -4   0   10.57    2.17   0
 -10  -4   0   -4.55    1.84   0
 -10  -4   0    1.29    2.17   0
 -10  -4   0   -3.27    2.27   0
 -11   5   0  -17.67    1.96   0
 -11   5   0    0.52    1.52   0
 -10   5   0   17.46    1.99   0
 -10   5   0  -14.94    1.99   0
 -10   5   0    0.51    2.14   0
  -9   5   0    4.82    1.60   0
  -9   5   0   17.31    1.69   0
  -9   5   0   16.46    2.22   0
  -8   5   0   93.21    4.27   0
  -8   5   0   92.86    3.94   0
  -7   5   0   38.93    2.76   0
  -7   5   0   39.11    2.54   0
  -6   5   0  101.80    5.09   0
   6  -5   0  101.83    5.42   0
  -5   5   0   46.07    2.93   0
   5  -5   0   46.19    2.80   0
  -4   5   0   -4.04    1.76   0
   4  -5   0   -6.57    2.34   0
  -3   5   0    2.27    2.24   0
  -3   5   0   -0.18    2.20   0
   3  -5   0   22.70    2.44   0
   3  -5   0   13.99    2.49   0
  -2   5   0  126.66    5.10   0
   2  -5   0  127.33    5.16   0
  -1   5   0  151.06    5.62   0
  -1   5   0  151.12    5.73   0
   1  -5   0  151.08    5.82   0
   0   5   0  402.23    6.70   0
   0  -5   0  402.33    6.70   0
   1   5   0   37.16    1.95   0
   1   5   0   22.16    2.18   0
  -1  -5   0   21.46    2.28   0
  -1  -5   0    6.22    1.62   0
   2   5   0    5.61    1.64   0
  -2  -5   0    5.64    1.59   0
  -2  -5   0    5.67    2.38   0
   3   5   0    9.10    1.85   0
  -3  -5   0  -19.41    2.07   0
  -3  -5   0  -13.06    2.35   0
   4   5   0   79.10    3.61   0
  -4  -5   0   78.95    4.48   0
   5   5   0   12.38    1.83   0
  -5  -5   0   11.77    1.56   0
  -6  -5   0   57.06    3.56   0
  -6  -5   0   57.14    4.42   0
   7   5   0   63.81    3.44   0
  -7  -5   0   63.51    3.49   0
  -8  -5   0    1.63    1.65   0
  -8  -5   0    2.16    1.97   0
  -9  -5   0   -1.81    2.40   0
  -9  -5   0    0.18    1.54   0
 -11   6   0  -24.97    2.31   0
 -11   6   0   10.08    2.06   0
 -11   6   0   -7.40    1.52   0
 -10   6   0   11.28    2.20   0
 -10   6   0   10.80    2.23   0
  -9   6   0    4.40    2.45   0
  -9   6   0    4.37    2.31   0
  -8   6   0   -4.56    1.92   0
  -8   6   0   19.24    2.45   0
  -7   6   0   32.60    3.02   0
  -7   6   0   33.06    2.80   0
  -6   6   0  122.68    4.69   0
  -6   6   0  112.33    4.72   0
  -5   6   0  103.17    4.67   0
  -5   6   0   60.19    3.67   0
   5  -6   0   82.44    3.96   0
  -4   6   0   12.10    1.90   0
   4  -6   0   12.40    1.62   0
  -3   6   0   35.34    2.85   0
   3  -6   0   35.26    2.98   0
  -2   6   0   28.21    2.22   0
  -2   6   0   38.88    2.38   0
   2  -6   0   19.47    1.87   0
  -1   6   0  123.22    5.16   0
   1  -6   0  116.94    4.60   0
   1  -6   0  104.17    5.05   0
   0   6   0    4.81    2.03   0
   0   6   0    4.67    2.27   0
   0  -6   0    3.94    1.51   0
   0  -6   0    4.13    2.43   0
   1   6   0   19.91    1.96   0
  -1  -6   0   21.45    2.15   0
  -1  -6   0   19.36    1.78   0
   2   6   0   42.08    2.81   0
   2   6   0   32.24    2.73   0
  -2  -6   0   33.14    3.40   0
   3   6   0   29.58    2.75   0
   3   6   0   44.25    4.25   0
  -3  -6   0   44.23    3.55   0
   4   6   0  104.52    5.13   0
   4   6   0  105.05    4.83   0
   5   6   0   58.85    4.25   0
  -5  -6   0   59.36    3.83   0
   6   6   0    1.70    1.65   0
  -6  -6   0    2.29    2.12   0
  -6  -6   0    2.18    1.78   0
   7   6   0    0.70    2.44   0
  -7  -6   0   15.69    2.37   0
  -8  -6   0   -5.91    1.56   0
  -8  -6   0    4.60    2.23   0
  -9  -6   0    5.97    1.69   0
  -9  -6   0    0.17    1.73   0
 -10   7   0    3.80    1.68   0
 -10   7   0    4.37    2.27   0
  -9   7   0    3.87    1.96   0
  -9   7   0    3.77    1.90   0
  -8   7   0   22.12    1.63   0
  -8   7   0   13.52    1.63   0
   8  -7   0   17.76    1.81   0
  -7   7   0    2.12    1.54   0
  -7   7   0    2.13    2.31   0
   7  -7   0    2.08    2.09   0
  -6   7   0   58.05    3.37   0
   6  -7   0   57.74    2.95   0
  -5   7   0   84.00    4.14   0
  -5   7   0   83.50    4.46   0
   5  -7   0   84.34    4.42   0
  -4   7   0   87.19    3.80   0
  -4   7   0   86.56    4.01   0
  -3   7   0    7.23    2.30   0
   3  -7   0    7.21    2.23   0
  -2   7   0    4.76    2.33   0
  -2   7   0    5.10    1.50   0
   2  -7   0    4.99    1.99   0
  -1   7   0   13.21    1.77   0
  -1   7   0    1.45    2.30   0
   1  -7   0    2.30    1.66   0
   1  -7   0   -6.68    2.04   0
   0   7   0   30.10    2.78   0
   0  -7   0   44.00    3.09   0
   0  -7   0   43.99    2.53   0
   1   7   0   14.03    2.43   0
  -1  -7   0   14.49    2.14   0
  -1  -7   0   13.54    2.41   0
   2   7   0  122.22    4.88   0
  -2  -7   0  163.33    4.77   0
  -2  -7   0  161.03    4.55   0
   3   7   0  101.83    4.90   0
   3   7   0  102.27    4.63   0
  -3  -7   0  102.44    5.43   0
   4   7   0   80.41    3.79   0
   4   7   0   79.87    4.27   0
  -4  -7   0   79.99    3.79   0
  -4  -7   0   79.90    4.42   0
  -5  -7   0    4.95    2.39   0
  -5  -7   0    4.64    1.85   0
   6   7   0    8.34    2.05   0
  -6  -7   0    8.60    1.97   0
   7   7   0  -17.84    2.28   0
  -7  -7   0  -10.30    1.78   0
   8   7   0    0.27    1.80   0
  -8  -7   0    0.29    2.45   0
 -10   8   0    0.66    2.03   0
 -10   8   0    0.62    1.99   0
  -9   8   0    0.13    2.11   0
  -9   8   0    0.15    1.65   0
  -8   8   0    0.61    1.54   0
   8  -8   0    0.59    2.37   0
  -7   8   0   17.62    2.14   0
   7  -8   0   17.51    1.52   0
  -6   8   0   28.29    2.86   0
   6  -8   0   27.95    3.19   0
  -5   8   0    6.84    1.79   0
   5  -8   0    7.24    1.56   0
  -4   8   0    8.56    2.33   0
   4  -8   0    4.20    1.91   0
   4  -8   0   15.22    2.21   0
  -3   8   0   90.46    4.99   0
  -3   8   0   90.30    4.81   0
   3  -8   0   90.23    4.70   0
  -2   8   0   45.99    3.09   0
   2  -8   0   46.05    3.22   0
  -1   8   0   27.02    2.96   0
  -1   8   0   33.62    9.24   0
   1  -8   0   22.74    7.21   0
   0   8   0   72.35    4.11   0
   0   8   0   56.68    3.53   0
   0  -8   0   58.86    3.86   0
   0  -8   0   65.96    3.76   0
   1   8   0   43.65    2.68   0
  -1  -8   0   43.60    2.92   0
  -1  -8   0   44.38    3.37   0
   2   8   0   12.79    2.10   0
  -2  -8   0   12.82    2.19   0
   3   8   0    6.59    1.50   0
  -3  -8   0    7.10    1.74   0
   4   8   0   32.19    1.74   0
   4   8   0   32.29    2.08   0
  -4  -8   0   32.48    2.30   0
  -5  -8   0    2.19    1.57   0
  -5  -8   0   -0.57    2.35   0
   6   8   0   20.39    2.07   0
  -6  -8   0   17.86    1.78   0
   7   8   0  -11.28    1.68   0
  -7  -8   0   -4.50    2.30   0
  -9   9   0   51.80    3.89   0
  -9   9   0   52.23    4.08   0
   9  -9   0   52.31    3.94   0
  -8   9   0   45.02    3.44   0
   8  -9   0   44.06    3.38   0
  -7   9   0    8.54    2.35   0
   7  -9   0    8.75    2.10   0
  -6   9   0    0.16    2.15   0
   6  -9   0    0.24    2.31   0
  -5   9   0   25.51    1.86   0
   5  -9   0   40.15    1.90   0
  -4   9   0   27.80    1.69   0
   4  -9   0   28.01    1.64   0
   4  -9   0   28.00    2.18   0
  -3   9   0    3.62    2.32   0
   3  -9   0    4.43    1.50   0
   3  -9   0    3.53    1.81   0
  -2   9   0   83.46    4.33   0
   2  -9   0   82.80    3.75   0
   2  -9   0   83.07    4.21   0
  -1   9   0   28.17    2.02   0
   1  -9   0   27.66    2.04   0
   1  -9   0   28.26    2.16   0
   0   9   0   37.73    3.20   0
   0   9   0   28.20    1.63   0
   0  -9   0   35.98    2.66   0
   0  -9   0   31.31    3.10   0
   1   9   0    7.86    2.30   0
   1   9   0    8.13    2.45   0
  -1  -9   0    7.73    1.93   0
   2   9   0   59.90    3.93   0
  -2  -9   0   60.44    3.73   0
   3   9   0   20.52    2.47   0
   3   9   0   18.71    2.40   0
  -3  -9   0   21.72    1.96   0
   4   9   0    1.88    2.32   0
   4   9   0    1.79    2.38   0
  -4  -9   0    1.92    2.40   0
   5   9   0  -13.18    1.66   0
  -5  -9   0   27.23    2.20   0
  -5  -9   0    7.36    2.28   0
   6   9   0   45.92    2.58   0
  -6  -9   0   46.16    2.53   0
  -6  -9   0   45.66    3.44   0
   7   9   0   14.66    2.00   0
  -7  -9   0   11.84    2.24   0
  -7  -9   0   16.49    1.73   0
  -8  10   0   67.27    3.64   0
   8 -10   0   66.73    4.13   0
  -7  10   0   11.75    2.08   0
   7 -10   0   11.97    1.73   0
  -6  10   0   32.48    1.84   0
   6 -10   0    9.06    2.38   0
  -5  10   0    2.29    1.58   0
  -5  10   0   -1.86    2.42   0
   5 -10   0    8.29    1.97   0
  -4  10   0   36.48    2.72   0
   4 -10   0   35.86    3.24   0
   4 -10   0   35.62    3.02   0
   3 -10   0   -8.06    1.61   0
   3 -10   0   -0.27    2.28   0
  -2  10   0    3.31    1.91   0
   2 -10   0   12.30    1.72   0
  -1  10   0   10.81    2.48   0
   1 -10   0   26.18    2.02   0
   0  10   0    0.85    2.39   0
   0  10   0    0.81    2.13   0
   0 -10   0    0.85    1.83   0
   1  10   0   29.09    2.55   0
   1  10   0   28.82    2.59   0
  -1 -10   0   29.27    3.38   0
   2  10   0   -5.12    1.54   0
   2  10   0   -4.80    1.77   0
  -2 -10   0   -4.54    1.78   0
   3  10   0   15.91    2.11   0
  -3 -10   0    0.93    1.99   0
   4  10   0    2.82    1.86   0
  -4 -10   0    2.70    1.54   0
  -4 -10   0    3.43    2.04   0
   5  10   0   24.34    1.68   0
  -5 -10   0   23.78    2.06   0
   6  10   0    5.06    2.38   0
  -6 -10   0    3.66    1.68   0
  -6 -10   0   -3.13    1.76   0
  -7  11   0   27.00    2.39   0
   7 -11   0   27.14    2.43   0
  -6  11   0   26.77    2.31   0
   6 -11   0   27.03    2.23   0
  -5  11   0   64.04    2.95   0
  -5  11   0   64.06    3.36   0
   5 -11   0   63.65    3.48   0
  -4  11   0  151.94    4.80   0
  -4  11   0  127.44    5.05   0
  -3  11   0  -17.13    2.00   0
   3 -11   0  -11.51    1.52   0
   3 -11   0   13.57    2.21   0
  -2  11   0   16.31    1.82   0
  -2  11   0   16.45    2.02   0
   2 -11   0   15.78    1.70   0
   2 -11   0   15.87    2.00   0
  -1  11   0   15.08    1.62   0
  -1  11   0   14.66    2.29   0
   1 -11   0   14.50    2.47   0
   0  11   0    1.70    1.62   0
   0  11   0    1.64    2.35   0
   0 -11   0    1.66    2.34   0
   1  11   0   87.23    3.82   0
  -1 -11   0   86.73    4.40   0
   2  11   0   28.12    2.25   0
  -2 -11   0   28.43    2.02   0
  -2 -11   0   27.50    2.43   0
   3  11   0   20.86    3.21   0
   3  11   0   42.47    3.43   0
  -3 -11   0   20.89    3.11   0
   4  11   0   18.84    1.95   0
  -4 -11   0   20.76    1.80   0
  -6  12   0    0.54    2.26   0
   6 -12   0    0.47    2.12   0
  -5  12   0  144.59    4.72   0
  -5  12   0  145.29    4.67   0
  -4  12   0  233.87    8.13   0
   4 -12   0  233.83    8.04   0
  -3  12   0    0.74    1.72   0
  -3  12   0    0.66    1.87   0
   3 -12   0    0.68    2.42   0
  -2  12   0    2.57    2.18   0
   2 -12   0   20.08    1.72   0
  -1  12   0   35.92    2.32   0
   1 -12   0   11.24    1.52   0
   1 -12   0   31.89    2.21   0
   0  12   0    7.39    1.50   0
   0 -12   0    7.36    1.66   0
   0 -12   0    7.39    1.86   0
   1  12   0  185.38    5.15   0
  -1 -12   0  227.26    4.85   0
   2  12   0   28.68    3.24   0
  -2 -12   0   29.47    3.29   0
   3  12   0   -0.46    2.31   0
  -3 -12   0  -12.71    2.10   0
  -3  13   0   46.99    2.76   0
   3 -13   0   47.21    2.97   0
   3 -13   0   44.72    2.56   0
  -2  13   0    1.45    2.45   0
  -2  13   0    1.43    1.50   0
  -1  13   0   41.34    3.03   0
  -1  13   0   41.76    2.84   0
   0  13   0   42.30    3.42   0
   0 -13   0   42.41    3.48   0
   0 -13   0   41.93    2.52   0
   0 -13   1   28.88    2.82   0
   0  13  -1   29.39    2.77   0
  -1  13  -1   71.61    4.22   0
  -1  13  -1   71.88    4.22   0
   2 -13   1  142.89    5.41   0
  -2  13  -1  142.79    4.88   0
  -2  13  -1  143.34    5.35   0
  -3  13  -1   80.53    4.00   0
  -3  13  -1   80.77    3.98   0
  -3 -12   1    6.96    8.26   0
   3  12  -1   12.89    8.88   0
  -2 -12   1   71.30    9.25   0
   2  12  -1   65.13    7.39   0
  -1 -12   1   63.55    4.30   0
   1  12  -1   64.11    4.03   0
   1  12  -1   64.33    4.30   0
   0 -12   1    6.95    1.93   0
   0  12  -1   13.37    1.91   0
   1 -12   1   30.77    2.16   0
   1 -12   1   -8.86    2.38   0
  -1  12  -1  -11.47    1.74   0
  -2  12  -1   11.28    1.61   0
  -2  12  -1   -1.31    2.21   0
   3 -12   1   -2.65    1.65   0
  -3  12  -1   -0.60    1.53   0
  -3  12  -1    2.38    2.38   0
   4 -12   1    1.29    1.62   0
  -4  12  -1    1.33    2.38   0
  -4  12  -1    1.27    2.37   0
   5 -12   1   24.88    2.14   0
  -5  12  -1   25.10    2.40   0
  -6  12  -1   25.73    2.40   0
  -6  12  -1   22.41    1.88   0
  -4 -11   1    0.26    2.33   0
   4  11  -1    0.32    2.26   0
  -3 -11   1   30.83    3.03   0
   3  11  -1   31.39    3.22   0
   3  11  -1   31.13    2.94   0
  -2 -11   1  215.46    6.29   0
   2  11  -1  214.99    6.00   0
  -1 -11   1  124.17    4.71   0
  -1 -11   1  123.76    4.75   0
   1  11  -1  123.90    5.22   0
   0 -11   1   11.20    1.88   0
   0  11  -1   10.97    2.32   0
   1 -11   1   16.53    1.88   0
   1 -11   1   16.76    2.48   0
   2 -11   1   53.32    3.49   0
  -2  11  -1   50.37    2.96   0
  -2  11  -1   48.20    3.09   0
   3 -11   1   19.42    1.64   0
  -3  11  -1   18.66    1.63   0
   4 -11   1   66.62    3.77   0
  -4  11  -1   67.01    3.92   0
  -4  11  -1   67.47    3.77   0
   5 -11   1   11.90    6.25   0
  -5  11  -1   -8.85    9.09   0
   6 -11   1   71.51    9.51   0
  -6  11  -1   72.38    3.90   0
   7 -11   1   56.33    4.01   0
  -7  11  -1   56.81    4.17   0
  -6 -10   1   94.12    4.13   0
  -6 -10   1   93.67    3.59   0
  -5 -10   1   44.24    3.54   0
   5  10  -1   44.31    3.64   0
  -4 -10   1   -9.16    2.05   0
  -4 -10   1   -1.20    1.91   0
   4  10  -1  -10.66    2.46   0
  -3 -10   1    8.48    2.21   0
   3  10  -1    8.11    1.71   0
  -2 -10   1   -9.72    1.75   0
  -2 -10   1   17.61    1.62   0
   2  10  -1   16.66    2.14   0
   2  10  -1   -8.92    2.41   0
  -1 -10   1    1.68    2.30   0
   1  10  -1    1.70    2.04   0
   0 -10   1    5.13    2.35   0
   0  10  -1    5.24    1.89   0
   0  10  -1    4.51    2.01   0
   1 -10   1   27.38    1.65   0
   1 -10   1   26.98    2.14   0
  -1  10  -1   26.60    1.69   0
   2 -10   1  283.24    9.50   0
  -2  10  -1  298.68    9.80   0
   3 -10   1  100.48    4.55   0
  -3  10  -1   99.90    4.65   0
   4 -10   1    7.88    2.35   0
  -4  10  -1   -2.30    2.21   0
  -4  10  -1    4.35    1.72   0
   5 -10   1   15.97    2.21   0
  -5  10  -1   20.78    1.19   0
   6 -10   1   73.19    4.20   0
  -6  10  -1   73.14    3.99   0
  -6  10  -1   72.80    4.02   0
  -7  10  -1   43.21    3.64   0
  -7  10  -1   43.91    3.76   0
   8 -10   1    3.89    1.84   0
  -8  10  -1    3.77    1.89   0
  -7  -9   1    5.78    2.27   0
   7   9  -1    6.21    2.27   0
  -6  -9   1   21.55    2.45   0
  -6  -9   1   21.80    2.02   0
  -5  -9   1   19.81    1.70   0
  -5  -9   1   20.17    2.39   0
  -4  -9   1    3.97    2.15   0
  -4  -9   1    3.82    1.93   0
   4   9  -1    4.30    2.49   0
  -3  -9   1   53.68    3.15   0
  -3  -9   1   53.90    2.91   0
   3   9  -1   53.63    3.49   0
  -2  -9   1   16.84    1.85   0
  -2  -9   1   17.07    2.29   0
   2   9  -1   16.82    2.36   0
  -1  -9   1   89.68    3.82   0
  -1  -9   1   90.26    4.43   0
   1   9  -1   90.15    4.19   0
   0  -9   1   75.92    3.71   0
   0   9  -1   76.36    4.32   0
   1  -9   1   12.21    1.99   0
  -1   9  -1   11.71    2.01   0
   2  -9   1  336.41    5.91   0
  -2   9  -1  335.65    6.28   0
  -3   9  -1  119.81    4.70   0
  -3   9  -1  143.89    5.40   0
   4  -9   1    1.16    1.85   0
  -4   9  -1    1.10    2.47   0
  -4   9  -1    1.14    2.10   0
   5  -9   1    9.39    1.90   0
   5  -9   1   27.74    2.14   0
  -5   9  -1    8.00    1.63   0
  -5   9  -1   28.25    2.07   0
  -6   9  -1    0.99    1.98   0
  -6   9  -1    0.07    2.00   0
   7  -9   1    7.03    2.23   0
  -7   9  -1    6.68    1.91   0
  -7   9  -1    6.77    2.05   0
  -8   9  -1   32.39    1.80   0
  -8   9  -1   -0.59    1.94   0
  -9   9  -1    2.03    1.60   0
  -9   9  -1    2.23    2.44   0
  -8  -8   1   -8.69    1.85   0
  -8  -8   1   12.32    2.13   0
  -7  -8   1   19.19    1.51   0
  -7  -8   1   19.36    1.85   0
  -6  -8   1   36.98    3.41   0
   6   8  -1   37.18    3.38   0
  -5  -8   1   15.60    2.32   0
   5   8  -1   15.35    2.19   0
  -4  -8   1    1.59    2.49   0
  -4  -8   1    1.21    1.83   0
  -3  -8   1   39.11    3.03   0
   3   8  -1   38.65    3.29   0
  -2  -8   1    0.74    2.38   0
  -2  -8   1    0.69    1.96   0
   2   8  -1    0.71    2.20   0
   2   8  -1    0.68    1.58   0
  -1  -8   1   54.12    4.05   0
   1   8  -1   54.40    4.07   0
   1   8  -1   53.88    3.66   0
   0  -8   1   36.62    3.01   0
   0   8  -1   37.25    2.55   0
   1  -8   1   36.54    3.09   0
   1  -8   1   36.79    3.49   0
   2  -8   1   24.69    2.14   0
  -2   8  -1   25.19    2.22   0
   3  -8   1   18.22    1.54   0
  -3   8  -1   17.70    2.24   0
  -3   8  -1   18.15    2.44   0
  -4   8  -1   58.43    3.71   0
  -4   8  -1   44.11    4.37   0
   5  -8   1   43.24    3.94   0
  -5   8  -1   30.58    2.28   0
  -5   8  -1   46.01    3.81   0
  -6   8  -1   12.63    1.81   0
  -6   8  -1   27.86    2.08   0
   7  -8   1  103.14    5.03   0
  -7   8  -1  103.38    4.79   0
  -7   8  -1  102.63    4.97   0
  -8   8  -1  -15.11    2.11   0
  -8   8  -1   22.72    1.73   0
  -9   8  -1   -6.42    1.95   0
  -9   8  -1   -0.31    2.32   0
  -8  -7   1   -3.45    2.63   0
  -8  -7   1   20.10    1.78   0
  -7  -7   1   -8.96    1.82   0
   7   7  -1   -0.34    1.51   0
  -6  -7   1   25.06    2.32   0
  -6  -7   1   25.38    2.33   0
  -5  -7   1    3.80    2.24   0
   5   7  -1    4.31    2.23   0
  -4  -7   1   27.38    3.01   0
   4   7  -1   27.30    2.89   0
   4   7  -1   26.93    3.15   0
  -3  -7   1  854.38    8.04   0
   3   7  -1  853.92    8.40   0
   3   7  -1  853.94    7.67   0
  -2  -7   1  842.93    6.49   0
   2   7  -1  842.99    6.16   0
  -1  -7   1   69.69    3.61   0
   1   7  -1   69.95    3.98   0
   0  -7   1    3.94    1.77   0
   0  -7   1    4.32    1.76   0
   0   7  -1    3.50    1.68   0
   0   7  -1    4.03    1.76   0
   1  -7   1    7.83    2.20   0
   1  -7   1    7.76    1.87   0
  -1   7  -1    7.55    2.41   0
   2  -7   1   24.96    2.22   0
  -2   7  -1   24.77    2.41   0
   3  -7   1   40.64    2.58   0
  -3   7  -1   43.92    2.76   0
  -3   7  -1   33.86    2.62   0
   4  -7   1   26.71    3.09   0
  -4   7  -1   27.44    2.99   0
   5  -7   1  205.57    4.97   0
  -5   7  -1  206.15    4.90   0
  -5   7  -1  205.81    4.67   0
   6  -7   1   71.44    3.65   0
  -6   7  -1   71.22    4.16   0
   7  -7   1    2.11    1.57   0
  -7   7  -1    1.92    2.04   0
  -8   7  -1   13.19    1.67   0
  -8   7  -1   13.28    1.90   0
   9  -7   1   21.98    1.64   0
  -9   7  -1   21.56    1.97   0
 -10   7  -1    1.18    1.62   0
 -10   7  -1   -7.84    2.17   0
 -10   7  -1    9.10    2.05   0
  -9  -6   1  -10.50    1.87   0
  -9  -6   1    1.37    2.90   0
  -8  -6   1    0.14    1.93   0
  -8  -6   1    0.12    2.26   0
  -7  -6   1   37.42    2.92   0
  -7  -6   1   37.35    3.47   0
  -6  -6   1   19.45    1.80   0
   6   6  -1   19.49    2.37   0
  -5  -6   1   11.32    1.85   0
  -5  -6   1   -0.72    2.35   0
   5   6  -1   -7.86    1.91   0
  -4  -6   1    0.49    2.05   0
  -4  -6   1    0.46    2.27   0
   4   6  -1    0.46    1.80   0
   4   6  -1    0.47    1.86   0
  -3  -6   1  251.55    4.98   0
  -3  -6   1  251.52    5.03   0
   3   6  -1  252.11    4.76   0
  -2  -6   1   62.40    2.98   0
  -2  -6   1   53.63    3.26   0
   2   6  -1   11.95    1.63   0
  -1  -6   1   42.69    3.01   0
  -1  -6   1   16.45    2.45   0
   1   6  -1   25.32    2.65   0
   1   6  -1   36.55    2.92   0
   0  -6   1    0.49    3.34   0
   0  -6   1    0.45    2.85   0
   0   6  -1    0.44    2.64   0
   0   6  -1    0.46    3.27   0
   1  -6   1  617.29    8.36   0
  -1   6  -1  616.88    7.77   0
  -2   6  -1   31.72    3.13   0
  -2   6  -1   46.96    3.05   0
   3  -6   1   74.41    3.70   0
  -3   6  -1   73.93    3.78   0
  -3   6  -1   74.00    3.76   0
   4  -6   1   15.24    1.63   0
  -4   6  -1   11.46    1.55   0
  -4   6  -1   -2.49    1.76   0
   5  -6   1  -13.75    2.39   0
  -5   6  -1   -2.25    1.95   0
  -5   6  -1  -14.67    1.52   0
   6  -6   1    9.28    2.56   0
  -6   6  -1    9.26    2.60   0
  -6   6  -1    8.59    3.08   0
   7  -6   1   50.33    3.24   0
  -7   6  -1   50.12    3.15   0
   8  -6   1    9.07    1.93   0
  -8   6  -1    8.61    2.01   0
   9  -6   1   91.83    4.31   0
  -9   6  -1   91.73    4.40   0
  10  -6   1    4.10    1.85   0
 -10   6  -1    4.23    2.39   0
 -10  -5   1   -3.92    2.11   0
 -10  -5   1    0.14    1.92   0
  -9  -5   1    8.97    1.76   0
  -9  -5   1   -8.66    1.96   0
  -8  -5   1   16.25    2.44   0
  -8  -5   1    5.78    1.68   0
  -7  -5   1   96.51    4.26   0
  -7  -5   1   97.24    3.81   0
  -6  -5   1   19.97    1.66   0
  -6  -5   1   32.27    1.94   0
  -5  -5   1   42.85    3.39   0
   5   5  -1   42.79    2.93   0
  -4  -5   1    5.77    1.76   0
   4   5  -1    5.84    1.72   0
  -3  -5   1   30.13    1.80   0
  -3  -5   1   29.57    1.79   0
   3   5  -1   29.71    1.52   0
   3   5  -1   29.99    2.06   0
  -2  -5   1   36.49    1.57   0
  -2  -5   1   15.73    1.96   0
   2   5  -1   15.40    1.96   0
   2   5  -1   39.86    1.81   0
  -1  -5   1  322.24    4.70   0
  -1  -5   1  322.10    4.83   0
   1   5  -1  321.96    4.61   0
   0  -5   1  782.45    6.88   0
   0   5  -1  781.72    6.61   0
   1  -5   1 1841.72   12.56   0
  -1   5  -1 1842.36   13.45   0
   2  -5   1  237.44    5.37   0
  -2   5  -1  236.51    4.83   0
   3  -5   1   30.97    3.23   0
  -3   5  -1   30.93    2.99   0
   4  -5   1   25.41    2.60   0
  -4   5  -1   25.37    2.70   0
   5  -5   1   80.33    3.67   0
  -5   5  -1   79.88    3.56   0
   6  -5   1   23.93    3.15   0
  -6   5  -1   24.39    2.74   0
  -7   5  -1    4.32    1.96   0
  -7   5  -1   -0.80    2.30   0
  -7   5  -1   -4.03    2.01   0
  -8   5  -1   54.53    3.08   0
  -8   5  -1   54.96    2.63   0
   9  -5   1   39.74    2.81   0
  -9   5  -1   39.57    2.90   0
 -10   5  -1   23.60    1.52   0
 -10   5  -1   15.66    2.13   0
 -11   5  -1    5.26    2.16   0
 -11   5  -1   15.74    1.66   0
 -10  -4   1    1.23    2.32   0
 -10  -4   1    1.26    1.72   0
  -9  -4   1   21.46    3.35   0
  -9  -4   1   38.84    2.57   0
  -8  -4   1   90.05    3.83   0
  -8  -4   1   90.18    4.45   0
  -7  -4   1  111.35    7.10   0
  -7  -4   1  111.12    6.65   0
  -6  -4   1  169.18    4.80   0
   6   4  -1  168.95    5.48   0
  -5  -4   1   43.13    3.62   0
  -5  -4   1   42.66    3.90   0
  -4  -4   1   24.17    2.24   0
   4   4  -1   10.88    2.33   0
  -3  -4   1  122.39    5.49   0
   3   4  -1  122.31    5.21   0
  -2  -4   1   11.00    2.38   0
   2   4  -1   -5.14    2.29   0
   2   4  -1  -11.76    1.76   0
  -1  -4   1   63.19    3.31   0
   1   4  -1   70.47    2.90   0
   1   4  -1   72.77    2.50   0
   0  -4   1  555.43    7.28   0
   0   4  -1  555.17    6.61   0
   1  -4   1  244.83    5.12   0
  -1   4  -1  245.09    5.21   0
   2  -4   1  807.79    8.45   0
  -2   4  -1  808.33    8.15   0
   3  -4   1   57.78    3.43   0
  -3   4  -1   57.87    3.18   0
   4  -4   1    6.26    2.00   0
  -4   4  -1    5.76    2.04   0
   5  -4   1  174.51    4.99   0
  -5   4  -1  174.39    5.22   0
  -6   4  -1    6.58    2.27   0
  -6   4  -1   18.27    2.43   0
   7  -4   1    6.62    2.10   0
  -7   4  -1    7.48    2.24   0
   8  -4   1    6.75    1.62   0
  -8   4  -1    6.64    2.34   0
   9  -4   1   21.32    1.58   0
  -9   4  -1   20.69    1.82   0
 -10   4  -1    0.59    1.52   0
 -10   4  -1    7.31    1.74   0
  11  -4   1    2.55    1.77   0
 -11   4  -1    2.68    2.05   0
 -10  -3   1    0.20    2.24   0
 -10  -3   1    0.24    2.23   0
 -10  -3   1    0.22    2.18   0
  -9  -3   1   15.93    2.00   0
  -9  -3   1   25.75    1.91   0
  -8  -3   1   32.91    3.32   0
  -8  -3   1   33.34    3.47   0
  -7  -3   1  317.50    5.09   0
  -7  -3   1  302.99    4.68   0
  -6  -3   1  223.34    5.28   0
  -6  -3   1  224.42    4.87   0
  -5  -3   1  -22.89    2.35   0
  -5  -3   1  -16.41    1.57   0
  -4  -3   1  338.82    6.27   0
  -4  -3   1  338.79    5.87   0
  -3  -3   1  322.45    4.80   0
  -3  -3   1  322.20    4.86   0
  -2  -3   1   25.08    2.14   0
  -2  -3   1   25.24    2.21   0
   2   3  -1   24.66    2.21   0
   2   3  -1   24.68    2.04   0
  -1  -3   1 2188.57   19.32   0
  -1  -3   1 2188.64   18.76   0
   0  -3   1  114.66    5.35   0
   0   3  -1  115.41    5.38   0
   1  -3   1  251.33    4.74   0
  -1   3  -1  251.30    5.08   0
   2  -3   1  263.17    4.84   0
  -2   3  -1  262.83    5.42   0
   3  -3   1   16.54    2.29   0
  -3   3  -1   17.09    2.35   0
  -4   3  -1 1097.53   11.98   0
  -4   3  -1 1098.47   12.01   0
  -5   3  -1  486.64    7.95   0
  -5   3  -1  485.65    7.68   0
  -6   3  -1   16.60    1.71   0
  -6   3  -1   16.74    1.74   0
   7  -3   1  155.96    4.90   0
  -7   3  -1  155.57    4.94   0
   8  -3   1   18.41    1.71   0
  -8   3  -1   17.60    1.81   0
   9  -3   1    0.07    2.12   0
  -9   3  -1    0.06    1.70   0
 -10   3  -1    5.63    1.90   0
 -10   3  -1   -8.39    1.71   0
 -11   3  -1   -0.53    2.36   0
 -11   3  -1   10.30    1.68   0
 -11  -2   1    9.17    2.16   0
 -11  -2   1    3.71    1.98   0
 -10  -2   1    1.57    1.71   0
 -10  -2   1    1.60    1.54   0
 -10  -2   1    1.58    2.29   0
  -9  -2   1   -1.00    2.21   0
  -9  -2   1  -36.10    2.24   0
  -8  -2   1   86.08    3.73   0
  -8  -2   1   86.34    3.95   0
  -7  -2   1    4.66    1.78   0
  -7  -2   1    5.02    2.49   0
  -6  -2   1   19.62    2.20   0
  -6  -2   1  -20.12    1.80   0
  -5  -2   1  277.83    4.71   0
  -5  -2   1  277.69    5.11   0
  -4  -2   1 1784.19   15.91   0
  -4  -2   1 1783.82   15.78   0
   4   2  -1 1783.90   16.11   0
  -3  -2   1  557.63    5.99   0
   3   2  -1  558.06    6.16   0
  -2  -2   1   83.28    4.20   0
   2   2  -1   82.86    3.71   0
  -1  -2   1    0.08    1.83   0
   1   2  -1    0.07    2.26   0
   1   2  -1    0.08    1.91   0
   0  -2   1   12.56    1.82   0
   0   2  -1    0.96    1.91   0
   0   2  -1    2.10    2.38   0
   1  -2   1   21.52    1.66   0
  -1   2  -1    7.39    1.62   0
  -1   2  -1   10.78    2.43   0
   2  -2   1    6.13    1.88   0
  -2   2  -1    5.95    1.70   0
  -2   2  -1    6.42    1.74   0
   3  -2   1  751.04    5.33   0
  -3   2  -1  750.53    4.73   0
   4  -2   1 3560.57   22.20   0
  -4   2  -1 3560.99   21.66   0
   5  -2   1  503.45    4.84   0
  -5   2  -1  503.08    4.61   0
  -6   2  -1   18.97    1.75   0
  -6   2  -1   -1.58    1.51   0
  -7   2  -1   31.57    1.93   0
  -7   2  -1  102.22    4.52   0
  -8   2  -1   51.64    3.49   0
  -8   2  -1   51.86    2.92   0
  -9   2  -1    3.53    1.66   0
  -9   2  -1    1.36    2.01   0
  10  -2   1    2.37    1.62   0
 -10   2  -1    2.40    2.97   0
 -10   2  -1    2.41    1.65   0
 -11   2  -1   11.12    1.99   0
 -11   2  -1   15.19    2.99   0
 -11  -1   1    2.12    1.99   0
 -11  -1   1    2.04    1.71   0
 -10  -1   1   -1.02    1.63   0
 -10  -1   1  -17.61    2.13   0
  -9  -1   1   -2.09    2.07   0
  -9  -1   1  -33.29    1.79   0
  -8  -1   1   44.27    3.00   0
  -8  -1   1   44.57    3.30   0
  -7  -1   1   57.78    3.36   0
  -7  -1   1   57.92    3.38   0
  -6  -1   1   18.24    2.17   0
  -6  -1   1   18.04    1.85   0
  -5  -1   1  143.52    4.69   0
  -5  -1   1  144.15    5.00   0
  -4  -1   1  436.59    5.10   0
  -4  -1   1  436.61    5.01   0
  -3  -1   1   11.17    2.00   0
  -3  -1   1   10.54    1.96   0
  -2  -1   1   94.22    3.03   0
  -1  -1   1  708.81    6.49   0
   1   1  -1  708.80    5.60   0
   0   1  -1 2287.85   13.76   0
   1  -1   1  547.89    7.87   0
  -1   1  -1  547.90    7.89   0
   2  -1   1   21.74    1.73   0
  -2   1  -1   21.63    1.70   0
  -2   1  -1   21.83    2.41   0
   3  -1   1    8.02    1.71   0
  -3   1  -1    7.78    2.17   0
   4  -1   1   16.19    1.78   0
  -4   1  -1   15.69    1.81   0
  -5   1  -1   -1.30    1.61   0
  -5   1  -1   17.35    1.87   0
   6  -1   1   25.58    2.79   0
  -6   1  -1   26.16    2.77   0
   7  -1   1  181.15    4.53   0
  -7   1  -1  181.01    4.55   0
   8  -1   1  331.33    4.68   0
  -8   1  -1  330.63    5.01   0
  -9   1  -1   34.05    2.87   0
  -9   1  -1   50.08    3.22   0
 -10   1  -1   -5.72    1.68   0
 -10   1  -1   20.03    2.47   0
 -11   1  -1   12.02    2.15   0
 -11   1  -1  -13.01    2.27   0
 -11   0   1   -3.28    2.28   0
 -11   0   1   24.82    2.42   0
 -10   0   1    0.17    1.90   0
 -10   0   1    0.16    2.20   0
  -9   0   1    2.28    1.89   0
  -9   0   1    1.88    2.42   0
  -8   0   1    0.90    2.15   0
  -8   0   1    0.87    1.99   0
  -7   0   1    7.83    2.34   0
  -7   0   1    8.21    2.46   0
  -6   0   1    4.25    1.95   0
  -6   0   1    3.84    1.81   0
  -5   0   1    0.05    3.36   0
  -5   0   1    0.02    3.18   0
  -4   0   1    0.08    1.78   0
  -4   0   1    0.07    1.57   0
  -3   0   1    0.08    1.72   0
  -2   0   1    7.54    2.29   0
   2   0  -1    7.24    2.17   0
  -1   0   1   16.14    1.99   0
   1   0   1   23.31    1.96   0
   2   0   1   38.36    2.20   0
  -2   0  -1   22.48    1.87   0
   3   0   1   17.04    2.24   0
  -3   0  -1   17.45    2.42   0
   4   0   1   11.66    1.84   0
  -4   0  -1   11.58    2.42   0
  -5   0  -1  -15.37    2.09   0
  -5   0  -1  -16.17    2.41   0
   6   0   1    1.39    1.81   0
  -6   0  -1    1.42    1.69   0
   7   0   1    0.01    2.49   0
  -7   0  -1    0.01    2.40   0
  -8   0  -1   -3.38    1.52   0
  -8   0  -1   18.64    1.92   0
  -9   0  -1  -17.76    1.96   0
  -9   0  -1   -2.48    1.64   0
  10   0   1    0.65    1.90   0
 -11   0  -1   22.93    1.59   0
 -11   0  -1   -7.97    2.22   0
 -11   1   1    1.69    2.36   0
 -11   1   1    1.87    2.07   0
 -10   1   1    1.86    1.95   0
  -9   1   1   20.99    2.21   0
  -9   1   1   21.18    1.57   0
  -8   1   1   76.82    3.97   0
  -8   1   1   76.59    4.18   0
  -7   1   1   30.98    3.37   0
  -7   1   1   31.05    2.91   0
  -6   1   1   -9.45    1.82   0
  -6   1   1   25.02    2.26   0
  -5   1   1  257.62    5.12   0
  -4   1   1  289.21    5.52   0
   4  -1  -1  288.76    6.05   0
  -3   1   1   24.36    2.36   0
   3  -1  -1  -24.65    2.16   0
  -2   1   1   20.14    1.77   0
   2  -1  -1   19.68    2.35   0
  -1   1   1 1341.32   11.72   0
   0   1   1 1978.71   18.56   0
   0   1   1 1979.19   18.53   0
   1   1   1  163.63    4.53   0
   1   1   1  164.04    4.71   0
  -1  -1  -1  164.46    4.89   0
   2   1   1   12.96    1.66   0
  -2  -1  -1   94.38    1.58   0
   3   1   1   18.39    2.25   0
  -3  -1  -1   18.00    1.77   0
   4   1   1   -3.72    2.26   0
  -4  -1  -1   29.81    3.47   0
   5   1   1   40.38    3.48   0
  -5  -1  -1   73.35    3.19   0
   6   1   1    3.34    2.28   0
   7   1   1  233.71    5.53   0
  -7  -1  -1  234.05    5.66   0
   8   1   1  257.91    6.34   0
  -8  -1  -1  257.84    5.53   0
  -9  -1  -1   42.85    2.73   0
  -9  -1  -1    7.73    2.61   0
 -10  -1  -1    0.81    2.38   0
 -10  -1  -1    0.79    2.93   0
 -11   2   1   -4.90    1.68   0
 -11   2   1   -1.76    2.38   0
 -10   2   1    6.86    2.07   0
 -10   2   1   -4.99    1.97   0
  -9   2   1   23.47    1.72   0
  -9   2   1   23.29    2.05   0
  -8   2   1   83.45    3.56   0
  -8   2   1   50.17    4.16   0
  -7   2   1   93.68    4.02   0
  -7   2   1   93.52    4.06   0
  -6   2   1    8.65    2.34   0
  -5   2   1 1347.33   12.52   0
   5  -2  -1 1384.03   12.70   0
  -4   2   1 1315.07   12.54   0
   4  -2  -1 1314.99   13.14   0
  -3   2   1   43.29    3.18   0
   3  -2  -1    2.88    3.49   0
  -2   2   1   61.59    3.28   0
  -2   2   1   61.74    2.86   0
   2  -2  -1   61.34    3.49   0
  -1   2   1   11.42    2.30   0
  -1   2   1   -5.94    1.68   0
   1  -2  -1    5.67    2.30   0
   1  -2  -1    2.70    1.86   0
   0   2   1   50.57    3.38   0
   0   2   1   50.81    2.87   0
   0  -2  -1   50.59    3.44   0
   0  -2  -1   51.06    3.00   0
   1   2   1    8.57    1.73   0
   1   2   1   30.20    3.33   0
  -1  -2  -1   60.89    3.40   0
  -1  -2  -1   40.98    3.13   0
   2   2   1   34.64    2.56   0
   2   2   1   35.09    2.90   0
  -2  -2  -1   34.74    3.11   0
  -2  -2  -1   34.85    3.04   0
   3   2   1 3275.75   31.53   0
  -3  -2  -1 3275.53   32.18   0
   4   2   1 1599.79   11.79   0
  -4  -2  -1 1596.49   12.00   0
  -5  -2  -1   35.03    3.53   0
  -5  -2  -1   48.85    4.43   0
   6   2   1    0.68    2.10   0
  -6  -2  -1    0.66    2.40   0
  -7  -2  -1    8.71    2.42   0
  -7  -2  -1   21.20    1.72   0
   8   2   1    1.58    2.30   0
  -8  -2  -1   13.81    2.10   0
  -8  -2  -1    1.63    1.95   0
  -9  -2  -1   13.89    1.59   0
  -9  -2  -1  -17.38    2.42   0
 -10  -2  -1    1.65    1.81   0
 -10  -2  -1   -7.28    1.64   0
 -11   3   1   11.73    2.24   0
 -11   3   1   12.11    2.36   0
 -10   3   1   32.06    3.48   0
 -10   3   1   31.74    2.86   0
  -9   3   1   12.04    1.58   0
  -9   3   1   11.93    1.97   0
  -8   3   1  194.51    4.13   0
  -8   3   1  194.70    4.16   0
  -7   3   1  232.54    4.93   0
  -6   3   1   13.13    2.35   0
   6  -3  -1   12.69    2.08   0
  -5   3   1  394.07    6.98   0
   5  -3  -1  393.63    7.46   0
  -4   3   1  393.58    6.58   0
   4  -3  -1  394.49    6.54   0
  -3   3   1   73.23    3.01   0
  -3   3   1   53.67    2.81   0
   3  -3  -1   45.75    2.99   0
  -2   3   1 2557.73   21.76   0
   2  -3  -1 2557.63   21.78   0
  -1   3   1    5.81    1.82   0
  -1   3   1    5.74    1.85   0
   1  -3  -1    5.53    2.35   0
   1  -3  -1    5.76    2.36   0
   0   3   1  261.95    4.62   0
   0   3   1  286.25    5.36   0
   0  -3  -1  290.32    5.01   0
   1   3   1  284.90    6.40   0
   1   3   1  284.89    6.36   0
  -1  -3  -1  285.26    5.91   0
  -1  -3  -1  285.34    6.21   0
   2   3   1    3.09    2.44   0
  -2  -3  -1   28.71    1.80   0
   3   3   1  957.16    8.40   0
  -3  -3  -1  956.50    7.88   0
  -3  -3  -1  956.51    8.42   0
   4   3   1  503.83    5.50   0
  -4  -3  -1  503.93    6.07   0
  -5  -3  -1   58.80    4.14   0
  -5  -3  -1   57.74    3.68   0
   6   3   1  140.74    4.67   0
  -6  -3  -1  141.03    4.79   0
  -7  -3  -1   -6.36    1.52   0
  -7  -3  -1  -22.27    1.96   0
  -8  -3  -1    0.21    1.87   0
  -8  -3  -1   -8.39    1.77   0
  -9  -3  -1  -14.87    2.19   0
  -9  -3  -1   -3.16    1.53   0
  10   3   1    2.87    2.41   0
 -10  -3  -1    3.20    2.38   0
 -11   4   1    0.24    1.72   0
 -11   4   1    0.18    2.35   0
 -10   4   1   29.91    3.32   0
 -10   4   1   30.04    3.44   0
 -10   4   1   30.10    2.47   0
  -9   4   1  113.66    4.94   0
  -9   4   1  113.92    4.97   0
  -8   4   1  216.65    4.81   0
  -8   4   1  216.63    5.36   0
  -7   4   1  155.74    4.73   0
   7  -4  -1  156.22    5.31   0
  -6   4   1   26.17    1.80   0
   6  -4  -1   25.56    2.08   0
  -5   4   1    4.04    2.16   0
  -5   4   1    3.55    1.91   0
   5  -4  -1    4.13    1.62   0
  -4   4   1   78.42    3.54   0
  -4   4   1   77.66    3.52   0
  -3   4   1    6.92    1.73   0
   3  -4  -1    8.88    2.36   0
   2  -4  -1   66.49    3.44   0
   2  -4  -1   77.92    3.09   0
  -1   4   1  626.81    6.92   0
  -1   4   1  627.38    6.58   0
   1  -4  -1  627.41    6.55   0
   0   4   1  264.67    5.56   0
   0   4   1  265.30    6.47   0
   0  -4  -1  265.15    6.03   0
   1   4   1  707.36    6.35   0
  -1  -4  -1  707.28    6.37   0
   2   4   1   47.30    3.78   0
   2   4   1   46.55    4.28   0
  -2  -4  -1   47.40    3.69   0
  -2  -4  -1   46.79    3.68   0
   3   4   1    3.12    1.93   0
   3   4   1    2.52    2.43   0
  -3  -4  -1    2.62    1.78   0
   4   4   1  121.70    5.28   0
  -4  -4  -1  121.52    4.71   0
   5   4   1   15.10    1.78   0
  -5  -4  -1    5.73    1.69   0
   6   4   1   33.58    3.23   0
  -6  -4  -1   33.98    2.53   0
   7   4   1    2.46    2.44   0
  -7  -4  -1   16.84    1.71   0
  -8  -4  -1   20.85    1.85   0
  -8  -4  -1   20.99    2.36   0
   9   4   1    2.34    1.60   0
  -9  -4  -1    2.25    1.85   0
 -10  -4  -1    3.31    2.21   0
 -10  -4  -1    3.26    1.79   0
 -10  -4  -1    4.27    1.65   0
 -11   5   1   -6.57    2.49   0
 -11   5   1  -19.72    2.28   0
 -10   5   1    5.33    1.77   0
 -10   5   1    4.50    2.34   0
  -9   5   1   49.82    2.68   0
  -9   5   1   40.78    2.55   0
  -8   5   1   67.12    2.59   0
  -8   5   1   66.52    3.04   0
   8  -5  -1   66.98    3.25   0
  -7   5   1  144.53    4.81   0
  -7   5   1  145.21    4.82   0
  -6   5   1    5.20    2.19   0
   6  -5  -1    5.10    2.16   0
  -5   5   1   13.14    2.39   0
  -5   5   1   13.06    2.03   0
   5  -5  -1   12.92    2.30   0
  -4   5   1    7.53    2.22   0
   4  -5  -1   -3.80    2.34   0
  -3   5   1    2.70    2.46   0
   3  -5  -1    2.61    2.17   0
  -2   5   1  442.87    6.05   0
   2  -5  -1  443.14    6.34   0
  -1   5   1 1174.47   11.99   0
  -1   5   1 1173.82   12.40   0
   0   5   1 1278.23   12.21   0
   0   5   1 1192.62   12.05   0
   0  -5  -1 1285.13   12.32   0
   1   5   1   32.67    2.94   0
  -1  -5  -1   32.63    2.50   0
   2   5   1   22.13    1.77   0
   2   5   1    6.83    2.42   0
  -2  -5  -1    7.52    1.56   0
   3   5   1  -15.85    1.75   0
  -3  -5  -1   -0.03    2.09   0
  -3  -5  -1  -23.68    2.13   0
   4   5   1   21.76    2.48   0
  -4  -5  -1   24.21    1.59   0
  -4  -5  -1   23.69    1.75   0
   5   5   1   41.52    2.91   0
  -5  -5  -1   41.85    3.38   0
  -5  -5  -1   42.26    3.25   0
   6   5   1   59.20    2.59   0
  -6  -5  -1   58.57    3.19   0
  -7  -5  -1   67.24    3.05   0
  -7  -5  -1   67.48    3.11   0
   8   5   1   49.20    2.82   0
  -8  -5  -1   38.45    3.07   0
  -9  -5  -1   -0.13    2.40   0
  -9  -5  -1    7.06    2.07   0
 -11   6   1    6.53    1.74   0
 -11   6   1   -1.34    2.33   0
 -11   6   1   -9.27    2.23   0
 -10   6   1   -7.84    1.61   0
 -10   6   1    5.13    1.52   0
  -9   6   1   23.42    2.19   0
  -9   6   1   23.23    1.92   0
  -8   6   1    2.91    1.52   0
  -8   6   1   25.02    2.26   0
  -7   6   1   21.34    2.04   0
   7  -6  -1   21.06    2.13   0
  -6   6   1    4.47    1.76   0
   6  -6  -1    4.54    2.15   0
  -5   6   1   73.24    4.25   0
   5  -6  -1   72.69    3.84   0
  -4   6   1  219.18    5.80   0
  -4   6   1  218.61    6.19   0
  -3   6   1  172.99    4.52   0
  -3   6   1  173.20    5.48   0
   3  -6  -1  173.06    5.10   0
   3  -6  -1  173.37    5.20   0
  -2   6   1   25.84    1.89   0
   2  -6  -1   25.60    2.06   0
  -1   6   1  524.05    7.20   0
   1  -6  -1  524.49    6.88   0
   0   6   1  165.20    5.57   0
   0  -6  -1  165.30    5.78   0
   0  -6  -1  164.63    5.54   0
   1   6   1   32.01    2.79   0
   1   6   1   31.66    3.46   0
  -1  -6  -1   32.03    2.91   0
   2   6   1    4.37    1.51   0
   2   6   1   12.79    2.22   0
  -2  -6  -1   -0.21    1.64   0
  -2  -6  -1   21.03    2.34   0
   3   6   1    2.77    2.24   0
  -3  -6  -1   23.36    1.76   0
   4   6   1    1.88    1.83   0
  -4  -6  -1    1.83    1.79   0
   5   6   1   32.46    2.83   0
  -5  -6  -1   32.31    3.32   0
   6   6   1    2.27    1.71   0
  -6  -6  -1    2.41    2.15   0
   7   6   1   56.75    3.01   0
  -7  -6  -1   28.61    2.34   0
  -7  -6  -1   -0.85    2.36   0
   8   6   1   22.45    1.88   0
  -8  -6  -1   22.49    2.46   0
  -8  -6  -1   21.70    1.91   0
  -9  -6  -1    0.55    2.12   0
  -9  -6  -1    1.41    1.71   0
  -9  -6  -1    8.89    2.38   0
 -10   7   1   19.84    2.24   0
 -10   7   1   19.72    1.61   0
  -9   7   1    4.02    1.59   0
   9  -7  -1   -0.53    1.74   0
  -8   7   1   23.44    1.68   0
  -8   7   1   23.30    1.79   0
  -7   7   1   34.00    2.93   0
   7  -7  -1   19.72    2.65   0
  -6   7   1    6.55    2.31   0
   6  -7  -1    6.59    1.78   0
  -5   7   1 1010.20   12.17   0
  -5   7   1 1009.87   11.54   0
   5  -7  -1 1009.57   11.76   0
  -4   7   1  949.88    5.74   0
   4  -7  -1  949.90    6.34   0
  -3   7   1  210.37    4.51   0
  -3   7   1  156.18    4.60   0
   3  -7  -1  200.46    5.27   0
   3  -7  -1  146.32    5.15   0
  -2   7   1    1.44    2.17   0
   2  -7  -1    1.42    1.80   0
   2  -7  -1    1.43    2.46   0
  -1   7   1    2.49    1.86   0
  -1   7   1    1.95    1.61   0
   0   7   1   36.04    2.75   0
   0   7   1   36.14    2.88   0
   1   7   1   48.74    2.91   0
  -1  -7  -1   49.44    3.02   0
   2   7   1   39.24    2.68   0
   2   7   1   38.79    3.46   0
   3   7   1  281.55    4.68   0
  -3  -7  -1  282.13    4.79   0
  -3  -7  -1  281.83    4.61   0
   4   7   1   68.51    4.00   0
   4   7   1   69.36    4.21   0
   5   7   1    1.65    1.53   0
  -5  -7  -1    1.69    2.45   0
   6   7   1    4.40    1.92   0
  -6  -7  -1    4.26    1.79   0
   7   7   1    2.44    2.44   0
  -7  -7  -1    2.41    1.75   0
   8   7   1    4.27    1.52   0
  -8  -7  -1    4.40    2.15   0
 -10   8   1    0.31    2.34   0
 -10   8   1    0.33    1.87   0
  -9   8   1   34.71    3.16   0
   9  -8  -1   34.79    2.53   0
  -8   8   1   48.21    3.21   0
   8  -8  -1   41.93    2.50   0
  -7   8   1    9.91    1.65   0
  -7   8   1   16.94    2.26   0
   7  -8  -1    6.26    1.91   0
  -6   8   1   12.97    2.16   0
   6  -8  -1   17.67    2.41   0
  -5   8   1   15.97    2.18   0
   5  -8  -1   -2.12    1.79   0
  -4   8   1    0.04    1.95   0
   4  -8  -1    0.04    1.71   0
   4  -8  -1    0.03    2.09   0
  -3   8   1   10.31    2.35   0
  -3   8   1    9.68    2.02   0
   3  -8  -1    9.58    2.48   0
  -2   8   1   51.73    2.84   0
   2  -8  -1   52.07    3.07   0
   2  -8  -1   52.01    3.12   0
  -1   8   1   65.16    3.69   0
  -1   8   1   67.81    3.69   0
   1  -8  -1   53.09    3.73   0
   1  -8  -1   76.05    4.00   0
   0   8   1   21.10    1.55   0
   0  -8  -1   21.26    1.72   0
   0  -8  -1   21.11    2.12   0
   1   8   1   39.25    2.84   0
  -1  -8  -1   44.15    2.75   0
  -1  -8  -1   34.78    2.88   0
   2   8   1   23.83    1.62   0
   2   8   1   23.51    2.17   0
  -2  -8  -1   23.54    2.15   0
   3   8   1   25.76    1.66   0
   3   8   1   26.33    2.11   0
  -3  -8  -1   26.12    1.58   0
   4   8   1   20.93    1.86   0
  -4  -8  -1   13.38    1.93   0
   5   8   1   58.39    3.79   0
  -5  -8  -1   57.70    4.41   0
   6   8   1    1.56    1.77   0
  -6  -8  -1    4.43    1.61   0
   7   8   1  -13.29    1.63   0
  -7  -8  -1   -1.03    1.51   0
  -9   9   1   16.56    1.93   0
  -9   9   1   16.66    1.55   0
  -8   9   1   61.29    3.16   0
  -8   9   1   60.88    2.71   0
   8  -9  -1   60.75    2.65   0
  -7   9   1   52.86    4.04   0
  -7   9   1   53.23    3.55   0
  -6   9   1   28.85    2.74   0
  -6   9   1   20.24    3.17   0
   6  -9  -1   30.24    3.40   0
  -5   9   1   12.20    1.66   0
  -5   9   1   12.18    1.02   0
   5  -9  -1   11.80    2.35   0
  -4   9   1   71.13    2.79   0
  -4   9   1   71.20    3.20   0
  -3   9   1  102.83    4.67   0
   3  -9  -1  103.00    4.86   0
  -2   9   1   48.61    3.01   0
   2  -9  -1   53.51    2.92   0
   2  -9  -1   52.19    2.95   0
  -1   9   1   54.41    4.25   0
  -1   9   1   54.23    3.70   0
   1  -9  -1   53.95    3.85   0
   0   9   1  424.36    5.84   0
   0  -9  -1  424.10    5.95   0
   1   9   1   39.51    4.32   0
  -1  -9  -1   40.21    3.89   0
  -1  -9  -1   39.50    3.93   0
   2   9   1   -0.45    2.47   0
   2   9   1    4.22    2.21   0
  -2  -9  -1   13.35    2.08   0
   3   9   1   16.26    1.57   0
   3   9   1   18.60    2.02   0
  -3  -9  -1   13.12    2.12   0
   4   9   1   19.60    1.73   0
   4   9   1    0.92    2.00   0
  -4  -9  -1   -0.10    2.19   0
   5   9   1   12.20    2.06   0
  -5  -9  -1   11.85    2.40   0
   6   9   1  -20.74    2.40   0
  -6  -9  -1    1.45    2.19   0
  -9  10   1   97.82    3.28   0
   9 -10  -1  126.16    5.43   0
  -8  10   1  152.35    4.74   0
   8 -10  -1  190.32    4.98   0
  -7  10   1   -5.83    1.52   0
  -7  10   1  -10.95    1.77   0
  -6  10   1  -13.09    1.79   0
  -6  10   1    7.95    2.47   0
   6 -10  -1   29.80    1.67   0
  -5  10   1   32.81    2.51   0
   5 -10  -1   35.81    2.79   0
  -4  10   1   14.53    9.71   0
  -4  10   1   19.18    9.21   0
   4 -10  -1    4.49   10.90   0
   4 -10  -1    6.46    9.51   0
  -3  10   1   16.88    9.96   0
   3 -10  -1   -0.05   11.18   0
  -2  10   1   11.27    9.45   0
   2 -10  -1   45.70   11.37   0
   2 -10  -1   11.69    6.62   0
  -1  10   1  271.01    5.21   0
  -1  10   1  271.40    5.32   0
   1 -10  -1  271.16    5.17   0
   0  10   1  196.23    5.08   0
   0 -10  -1  196.03    4.52   0
   1  10   1    1.44    2.36   0
  -1 -10  -1    1.39    2.09   0
   2  10   1   -1.26    1.81   0
  -2 -10  -1   13.88    1.82   0
   3  10   1   50.20    3.38   0
  -3 -10  -1   50.32    2.72   0
   4  10   1   46.85    2.79   0
  -4 -10  -1   46.66    3.08   0
   5  10   1    2.24    1.88   0
  -5 -10  -1   -3.90    1.93   0
  -5 -10  -1    6.69    2.20   0
  -8  11   1    9.79    2.45   0
  -8  11   1  -21.62    2.18   0
   8 -11  -1   -5.15    2.17   0
  -7  11   1    1.45    2.09   0
   7 -11  -1    1.50    2.01   0
  -6  11   1   43.90    3.39   0
   6 -11  -1   43.80    3.33   0
  -5  11   1  274.03    6.66   0
  -5  11   1  273.74    6.76   0
  -4  11   1  135.34    5.84   0
  -4  11   1  167.41    5.72   0
   4 -11  -1  164.38    6.41   0
  -3  11   1    3.36    1.80   0
  -3  11   1    2.87    1.93   0
   3 -11  -1    2.94    1.94   0
  -2  11   1   33.37    2.99   0
  -2  11   1   33.27    2.50   0
   2 -11  -1   32.77    2.91   0
  -1  11   1   31.57    3.40   0
  -1  11   1   31.70    2.95   0
   1 -11  -1   32.39    2.22   0
   0  11   1   20.16    1.94   0
   0  11   1   29.20    2.10   0
   0 -11  -1   28.92    2.41   0
   1  11   1   22.68    2.38   0
   1  11   1   22.69    1.62   0
  -1 -11  -1   22.58    2.26   0
  -1 -11  -1   23.15    1.97   0
   2  11   1    7.29    2.13   0
   2  11   1    0.63    2.03   0
  -2 -11  -1   -4.38    1.61   0
  -2 -11  -1   -1.35    1.93   0
   3  11   1   82.19    4.44   0
  -3 -11  -1   81.88    4.91   0
   4  11   1   34.70    3.34   0
   4  11   1   38.62    3.38   0
  -4 -11  -1   40.83    2.77   0
  -4 -11  -1   42.97    3.27   0
  -6  12   1   37.99    2.85   0
   6 -12  -1   38.37    2.78   0
  -5  12   1  140.71    4.78   0
  -5  12   1  141.39    4.63   0
  -4  12   1   72.63    3.54   0
  -4  12   1   72.82    3.83   0
   4 -12  -1   72.79    3.74   0
  -3  12   1   14.55    1.83   0
   3 -12  -1   15.39    1.60   0
   3 -12  -1   15.23    2.48   0
  -2  12   1   10.77    1.90   0
  -2  12   1   11.18    2.41   0
   2 -12  -1   -9.90    2.42   0
  -1  12   1    0.84    2.48   0
   1 -12  -1  -11.71    2.23   0
   1 -12  -1   -4.47    1.88   0
   0  12   1    5.95    2.21   0
   0 -12  -1    6.84    2.33   0
   0 -12  -1    1.26    2.31   0
   1  12   1    1.18    2.38   0
   1  12   1    1.14    1.68   0
   2  12   1   44.85    7.44   0
  -2 -12  -1   25.36    7.67   0
  -3  13   1   23.43    1.52   0
  -3  13   1   30.56    1.77   0
   3 -13  -1   23.33    2.46   0
  -2  13   1  124.95    4.59   0
   2 -13  -1  102.16    4.57   0
   2 -13  -1  123.49    5.45   0
  -1  13   1  121.00    5.40   0
  -1  13   1  152.48    5.17   0
   0 -13   2   12.55    6.17   0
   0  13  -2   -0.37    9.78   0
   1 -13   2    6.50    8.28   0
  -1  13  -2   -5.24   10.91   0
   2 -13   2   13.05    7.25   0
  -2  13  -2    4.23   11.23   0
  -2  13  -2   -4.09   10.40   0
   3  12  -2   51.98    8.32   0
   3  12  -2   41.53    8.79   0
  -2 -12   2  153.88    4.72   0
   2  12  -2  154.47    4.62   0
  -1 -12   2   88.83    3.63   0
  -1 -12   2   89.39    4.26   0
   1  12  -2   88.89    3.53   0
   0 -12   2    0.54    1.99   0
   0 -12   2    0.49    2.00   0
   0  12  -2    0.50    1.78   0
   0  12  -2    0.53    2.17   0
   1 -12   2   41.51    2.85   0
  -1  12  -2   41.91    2.79   0
  -2  12  -2    6.99    1.66   0
  -2  12  -2   -8.75    1.97   0
   3 -12   2    4.00    1.60   0
  -3  12  -2  -10.06    1.63   0
  -3  12  -2   -6.92    2.44   0
   4 -12   2    5.52    2.04   0
  -4  12  -2    6.00    1.87   0
  -4  12  -2    5.79    2.06   0
   5 -12   2   39.88    3.33   0
   5 -12   2    8.53    2.28   0
  -5  12  -2   39.12    2.51   0
  -5 -11   2   98.11    8.36   0
   5  11  -2   77.48    9.34   0
   4  11  -2    8.15    7.92   0
   4  11  -2   -6.33    9.40   0
  -3 -11   2  -16.20    8.51   0
  -3 -11   2   -5.74    7.64   0
   3  11  -2  -12.45    9.72   0
   3  11  -2   -8.84    8.81   0
  -2 -11   2   36.59    2.81   0
   2  11  -2   36.61    2.96   0
  -1 -11   2   -0.30    2.32   0
   1  11  -2    8.83    2.01   0
   0 -11   2    7.75    1.53   0
   0 -11   2    9.69    1.89   0
   0  11  -2   12.07    1.62   0
   1 -11   2    6.34    2.28   0
  -1  11  -2    5.80    1.74   0
   2 -11   2   92.38    3.68   0
  -2  11  -2   91.90    3.66   0
  -2  11  -2   92.16    4.27   0
   3 -11   2  157.80    5.12   0
  -3  11  -2  157.79    5.03   0
   4 -11   2    2.66    1.74   0
   4 -11   2   -4.09    2.19   0
  -4  11  -2    9.95    2.19   0
   5 -11   2   34.78    2.64   0
   5 -11   2   35.14    2.89   0
  -5  11  -2   34.95    2.57   0
   6 -11   2  287.80    5.86   0
  -6  11  -2  289.49    5.68   0
   7 -11   2   46.03    3.31   0
  -7  11  -2   45.69    3.21   0
  -6 -10   2    9.48    2.14   0
  -6 -10   2  -11.83    1.69   0
  -5 -10   2   17.99    1.97   0
   5  10  -2   17.89    2.10   0
  -4 -10   2   31.40    3.35   0
   4  10  -2   44.33    3.17   0
  -3 -10   2   -0.41    2.26   0
   3  10  -2    8.21    1.74   0
   3  10  -2   13.27    1.75   0
  -2 -10   2   26.67    1.74   0
  -2 -10   2   27.25    1.73   0
   2  10  -2   26.57    1.83   0
  -1 -10   2    0.35    2.20   0
   1  10  -2    0.34    2.43   0
   0 -10   2   22.23    1.69   0
   0 -10   2   59.79    1.93   0
   0  10  -2   27.45    2.45   0
   0  10  -2   56.28    1.91   0
   1 -10   2   60.43    3.84   0
  -1  10  -2   60.45    3.89   0
   2 -10   2    2.59    1.51   0
  -2  10  -2    3.24    1.98   0
   3 -10   2   -1.65    1.90   0
  -3  10  -2   13.00    2.12   0
  -3  10  -2    6.22    2.12   0
   4 -10   2   11.62    1.99   0
  -4  10  -2   11.52    1.57   0
   5 -10   2   30.21    1.96   0
  -5  10  -2   19.49    2.02   0
  -5  10  -2    8.92    1.84   0
   6 -10   2   31.58    3.42   0
  -6  10  -2   32.24    2.50   0
  -7  10  -2   -2.78    2.49   0
  -7  10  -2   12.88    2.14   0
  -8  10  -2   -1.51    1.94   0
  -8  10  -2  -13.83    2.36   0
  -7  -9   2  121.06    4.89   0
  -7  -9   2  120.98    4.78   0
  -6  -9   2  238.11    6.47   0
   6   9  -2  233.97    5.95   0
  -5  -9   2   84.78    2.73   0
   5   9  -2   84.59    2.94   0
  -4  -9   2   27.03    2.04   0
  -4  -9   2   32.05    2.04   0
  -3  -9   2  -15.93    1.85   0
  -3  -9   2   -2.45    1.50   0
   3   9  -2  -19.08    1.84   0
  -2  -9   2    3.60    2.21   0
   2   9  -2    4.05    1.65   0
  -1  -9   2   12.79    2.31   0
  -1  -9   2   -2.30    2.11   0
   1   9  -2    5.31    2.13   0
   1   9  -2    6.63    2.11   0
   0  -9   2    4.61    1.65   0
   0  -9   2    5.07    2.09   0
   0   9  -2    5.12    2.48   0
   1  -9   2 1045.25    9.76   0
  -1   9  -2 1044.75    9.83   0
   2  -9   2 1446.43   10.88   0
  -2   9  -2 1445.70   11.15   0
  -3   9  -2  381.53    4.85   0
  -3   9  -2  381.75    4.99   0
   4  -9   2   11.45    1.71   0
  -4   9  -2    4.12    1.84   0
  -4   9  -2   -2.75    2.38   0
  -5   9  -2    7.62    2.20   0
  -5   9  -2   12.64    2.08   0
  -6   9  -2   18.89    2.07   0
  -6   9  -2   11.56    2.08   0
   7  -9   2    1.71    1.74   0
  -7   9  -2    1.66    2.23   0
   8  -9   2    7.83    2.41   0
  -8   9  -2    8.06    2.14   0
  -8   9  -2    7.79    2.09   0
  -9   9  -2   33.77    2.65   0
  -9   9  -2   38.81    2.53   0
  -8  -8   2   -5.26    2.27   0
  -8  -8   2  -18.73    1.57   0
  -7  -8   2   43.03    4.21   0
  -7  -8   2   43.17    4.12   0
  -6  -8   2   39.66    3.09   0
  -6  -8   2   47.90    2.54   0
  -5  -8   2    2.98    1.66   0
   5   8  -2    2.91    2.08   0
  -4  -8   2    3.95    1.75   0
  -4  -8   2    3.95    1.78   0
   4   8  -2    3.92    2.34   0
   3   8  -2  353.62    4.53   0
   3   8  -2  353.89    5.34   0
  -2  -8   2  382.90    5.08   0
   2   8  -2  383.19    4.92   0
  -1  -8   2   76.80    4.24   0
   1   8  -2   77.14    4.40   0
   0  -8   2   47.06    2.84   0
   0   8  -2   46.96    2.56   0
   0   8  -2   46.93    2.54   0
   1  -8   2    8.18    1.90   0
  -1   8  -2    7.84    1.78   0
  -1   8  -2    7.67    2.36   0
   2  -8   2  145.43    5.24   0
  -2   8  -2  144.90    4.83   0
   3  -8   2   50.54    3.58   0
  -3   8  -2   48.38    3.63   0
   4  -8   2    9.95    2.17   0
  -4   8  -2    9.52    2.42   0
   5  -8   2  412.45    6.07   0
  -5   8  -2  411.66    6.17   0
   6  -8   2  177.90    4.65   0
  -6   8  -2  177.80    4.87   0
  -7   8  -2   41.42    3.73   0
  -7   8  -2   47.52    3.52   0
  -8   8  -2  -22.88    2.11   0
  -8   8  -2   -4.65    1.51   0
   9  -8   2   27.51    1.76   0
  -9   8  -2   27.65    2.02   0
  -9  -7   2   29.26    1.90   0
  -9  -7   2   19.74    1.94   0
  -8  -7   2   -1.80    2.25   0
  -8  -7   2    3.36    2.10   0
  -8  -7   2    9.52    2.48   0
  -7  -7   2    4.53    1.94   0
  -7  -7   2   -7.35    2.42   0
  -6  -7   2    8.30    2.24   0
   6   7  -2    8.40    2.29   0
  -5  -7   2   68.60    2.81   0
  -5  -7   2   68.81    3.21   0
   5   7  -2   68.86    3.29   0
  -4  -7   2   70.57    2.99   0
   4   7  -2   98.92    2.79   0
  -3  -7   2   27.05    2.60   0
   3   7  -2   27.47    3.37   0
  -2  -7   2   89.46    4.94   0
   2   7  -2   89.46    4.98   0
   2   7  -2   88.87    4.52   0
  -1  -7   2  241.17    5.02   0
   1   7  -2  241.39    5.05   0
   0  -7   2    5.38    2.27   0
   0   7  -2    5.15    1.59   0
   1  -7   2   41.73    2.72   0
  -1   7  -2   41.83    2.59   0
  -2   7  -2   -7.71    2.24   0
  -2   7  -2  -14.72    1.75   0
   3  -7   2  114.01    5.42   0
  -3   7  -2  113.51    5.10   0
   4  -7   2  166.83    4.69   0
  -4   7  -2  167.30    5.29   0
   5  -7   2   98.54    4.47   0
  -5   7  -2   99.29    4.10   0
  -6   7  -2    6.92    1.73   0
  -6   7  -2   -1.39    2.34   0
   7  -7   2    0.42    1.82   0
  -7   7  -2    0.40    2.02   0
  -8   7  -2   -6.99    2.22   0
  -8   7  -2   -9.62    2.29   0
  -9   7  -2    5.63    2.49   0
  -9   7  -2   14.27    1.73   0
 -10   7  -2   11.86    1.92   0
 -10   7  -2   -2.86    2.45   0
  -9  -6   2    0.51    1.60   0
  -9  -6   2    0.54    1.77   0
  -9  -6   2    0.50    2.22   0
  -8  -6   2   35.80    3.33   0
  -8  -6   2   25.98    2.76   0
  -7  -6   2   12.78    2.16   0
  -7  -6   2    2.46    1.80   0
  -7  -6   2   -4.32    1.98   0
  -6  -6   2   17.29    1.98   0
  -6  -6   2   16.99    1.82   0
  -5  -6   2   78.68    2.55   0
   5   6  -2   79.35    3.47   0
  -4  -6   2   97.65    4.08   0
   4   6  -2   98.30    4.31   0
  -3  -6   2 1398.30   11.42   0
  -3  -6   2 1397.80   11.42   0
   3   6  -2 1398.43   10.78   0
   3   6  -2 1398.25   10.73   0
  -2  -6   2 1608.48   12.19   0
   2   6  -2 1608.49   12.26   0
   2   6  -2 1608.12   11.67   0
  -1  -6   2  147.29    5.08   0
   1   6  -2  147.05    5.21   0
   1   6  -2  146.85    5.10   0
   0  -6   2  514.82    4.89   0
   0   6  -2  553.41    5.20   0
  -1   6  -2  313.90    5.43   0
  -1   6  -2  399.70    4.66   0
   2  -6   2    6.45    1.72   0
  -2   6  -2    6.45    1.84   0
   3  -6   2  239.06    5.33   0
  -3   6  -2  238.84    4.68   0
   4  -6   2    0.66    1.52   0
  -4   6  -2    0.67    2.36   0
  -5   6  -2  253.49    5.42   0
  -5   6  -2  347.34    4.84   0
  -6   6  -2  576.91    5.16   0
  -6   6  -2  568.71    5.30   0
   7  -6   2   37.15    1.68   0
  -7   6  -2   37.36    2.36   0
  -7   6  -2   37.23    1.78   0
  -8   6  -2   30.95    2.89   0
  -8   6  -2   31.30    2.52   0
   9  -6   2  106.55    4.83   0
  -9   6  -2  107.02    4.79   0
  10  -6   2   12.55    1.95   0
 -10   6  -2   12.74    2.43   0
 -10   6  -2   12.59    1.95   0
 -10  -5   2    9.72    2.39   0
 -10  -5   2   -0.47    1.50   0
  -9  -5   2    2.84    1.62   0
  -9  -5   2    2.87    1.84   0
  -8  -5   2   25.39    2.72   0
  -8  -5   2   47.76    3.32   0
  -7  -5   2  194.29    4.90   0
  -7  -5   2  193.75    5.21   0
  -6  -5   2   75.46    3.44   0
  -6  -5   2   39.32    3.31   0
  -5  -5   2    3.57    1.97   0
   5   5  -2    4.34    2.14   0
  -4  -5   2   17.58    1.58   0
   4   5  -2   18.31    1.81   0
  -3  -5   2  347.09    5.65   0
   3   5  -2  346.93    5.55   0
  -2  -5   2    0.72    2.31   0
  -2  -5   2   -7.58    1.64   0
   2   5  -2    1.76    2.01   0
   2   5  -2  -11.34    2.17   0
  -1  -5   2  103.52    4.61   0
   1   5  -2  103.80    4.59   0
   0  -5   2 1043.64   20.41   0
   0   5  -2 1074.31   27.25   0
   0   5  -2 1029.41   20.60   0
   1  -5   2 2020.37   12.73   0
  -1   5  -2 2021.53   13.46   0
  -1   5  -2 2018.45   13.31   0
   2  -5   2   68.79    3.61   0
  -2   5  -2   68.66    4.27   0
  -2   5  -2   68.97    4.11   0
   3  -5   2   17.42    1.67   0
  -3   5  -2   28.52    2.05   0
  -3   5  -2   13.69    2.12   0
  -4   5  -2   18.32    1.92   0
  -4   5  -2    6.64    2.18   0
   5  -5   2   28.93    2.90   0
  -5   5  -2   29.03    2.74   0
  -6   5  -2   34.49    1.72   0
  -6   5  -2   13.27    2.27   0
  -7   5  -2   39.77    1.72   0
  -7   5  -2   28.31    1.59   0
   8  -5   2  149.23    5.39   0
  -8   5  -2  149.32    4.71   0
  -8   5  -2  148.61    5.49   0
  -9   5  -2  125.97    5.14   0
  -9   5  -2  126.33    4.68   0
  10  -5   2    0.37    1.63   0
 -10   5  -2    0.35    1.71   0
 -10  -4   2   26.59    2.76   0
 -10  -4   2   26.53    2.53   0
  -9  -4   2   11.64    2.37   0
  -9  -4   2   11.44    2.39   0
  -8  -4   2   16.67    2.02   0
  -8  -4   2   16.61    2.42   0
  -7  -4   2    7.96    2.29   0
  -7  -4   2    7.88    2.17   0
  -7  -4   2    7.72    2.41   0
  -6  -4   2   53.78    3.36   0
  -6  -4   2   54.43    3.11   0
  -5  -4   2    0.13    2.19   0
  -5  -4   2    0.07    1.91   0
  -4  -4   2   17.89    2.11   0
  -4  -4   2   18.03    1.99   0
   4   4  -2   17.66    1.51   0
  -3  -4   2  153.27    5.59   0
  -3  -4   2  152.70    5.97   0
   3   4  -2  152.95    6.37   0
  -2  -4   2   -5.16    1.89   0
  -2  -4   2   26.32    2.46   0
   2   4  -2   27.36    1.58   0
   2   4  -2   -8.63    1.72   0
  -1  -4   2   79.99    4.10   0
   1   4  -2   80.34    3.56   0
   0  -4   2  386.73    5.44   0
   0   4  -2  387.19    5.18   0
   0   4  -2  387.37    4.58   0
  -1   4  -2  256.27    4.80   0
  -1   4  -2  308.65    5.10   0
   2  -4   2  169.23    5.78   0
   2  -4   2  169.11    6.26   0
  -2   4  -2  169.08    5.93   0
   3  -4   2   42.82    2.79   0
  -3   4  -2   43.04    2.54   0
  -3   4  -2   42.55    2.85   0
   4  -4   2  142.64    3.78   0
  -4   4  -2  142.54    3.98   0
  -5   4  -2  272.47    5.18   0
  -5   4  -2  271.58    4.99   0
   6  -4   2   72.34    4.28   0
  -6   4  -2   71.94    3.60   0
  -6   4  -2   72.14    4.41   0
  -7   4  -2   17.92    2.05   0
  -7   4  -2    7.03    2.23   0
   8  -4   2   32.39    2.70   0
  -8   4  -2   32.44    2.75   0
   9  -4   2   16.96    2.00   0
  -9   4  -2   16.73    2.24   0
 -10   4  -2   -1.82    2.04   0
 -10   4  -2    3.94    1.69   0
 -10   4  -2    6.30    1.95   0
 -11  -3   2   -7.91    1.95   0
 -11  -3   2   -1.85    1.60   0
 -10  -3   2   33.45    2.65   0
 -10  -3   2   14.10    2.55   0
  -9  -3   2    5.89    1.59   0
  -9  -3   2   17.94    1.84   0
  -8  -3   2   28.04    2.18   0
  -8  -3   2   28.24    2.38   0
  -7  -3   2   23.72    2.49   0
  -7  -3   2   23.58    2.28   0
  -6  -3   2   10.56    1.58   0
  -6  -3   2   11.13    1.82   0
  -5  -3   2   -7.68    1.84   0
  -5  -3   2   -0.80    1.66   0
  -4  -3   2  132.58    5.62   0
  -4  -3   2  133.23    5.51   0
  -3  -3   2   19.15    2.25   0
   3   3  -2   18.81    2.18   0
  -2  -3   2  168.72    5.71   0
  -2  -3   2  169.21    6.39   0
   2   3  -2  168.82    5.87   0
  -1  -3   2   87.49    4.42   0
   1   3  -2   87.27    3.82   0
   1   3  -2   87.07    4.43   0
   0  -3   2   18.98    2.53   0
   0   3  -2   36.70    3.43   0
   0   3  -2   36.28    3.11   0
   1  -3   2   39.64    2.83   0
   1  -3   2   39.56    2.84   0
  -1   3  -2   39.50    3.15   0
  -1   3  -2   39.94    3.47   0
  -2   3  -2   96.75    5.47   0
  -2   3  -2  112.15    5.27   0
   3  -3   2  247.87    6.06   0
  -3   3  -2  248.13    5.59   0
   4  -3   2  659.87    5.03   0
  -4   3  -2  660.23    5.24   0
  -4   3  -2  659.58    5.41   0
   5  -3   2  344.51    5.19   0
  -5   3  -2  344.59    4.84   0
  -6   3  -2    1.80    1.70   0
  -6   3  -2   10.60    1.89   0
  -6   3  -2   11.47    1.92   0
  -7   3  -2    6.34    1.70   0
  -7   3  -2   -2.29    2.41   0
   8  -3   2    0.11    2.06   0
  -8   3  -2    0.12    2.24   0
   9  -3   2    0.02    1.74   0
  -9   3  -2    0.01    1.78   0
  -9   3  -2    0.03    1.87   0
 -10   3  -2   24.86    1.93   0
 -10   3  -2   24.80    2.27   0
 -11  -2   2    7.24    1.95   0
 -11  -2   2    7.11    1.73   0
 -10  -2   2  -12.29    2.35   0
 -10  -2   2   -6.01    1.90   0
  -9  -2   2    5.04    1.72   0
  -9  -2   2    5.28    1.79   0
  -8  -2   2   14.13    1.73   0
  -8  -2   2  -12.35    2.06   0
  -7  -2   2    0.56    2.39   0
  -7  -2   2  -56.64    2.29   0
  -6  -2   2   21.90    2.38   0
  -6  -2   2    1.79    1.66   0
  -5  -2   2  263.31    5.27   0
  -5  -2   2  262.55    4.74   0
  -4  -2   2    5.03    2.48   0
  -4  -2   2   43.74    2.02   0
  -3  -2   2 1011.16   10.12   0
  -3  -2   2 1009.78    9.74   0
  -3  -2   2 1010.76   10.22   0
  -2  -2   2   36.34    2.79   0
  -2  -2   2   36.00    2.94   0
  -1  -2   2  157.62    4.82   0
  -1  -2   2  157.84    5.44   0
   1   2  -2  158.09    5.02   0
   0  -2   2   29.86    2.38   0
   0  -2   2   27.42    2.35   0
   0  -2   2   14.88    2.04   0
   0   2  -2    7.59    1.60   0
   1  -2   2    0.48    2.07   0
  -1   2  -2    0.50    2.13   0
  -1   2  -2    0.53    2.15   0
  -1   2  -2    0.51    2.31   0
   2  -2   2   34.33    2.75   0
  -2   2  -2   49.93    3.00   0
  -2   2  -2   35.69    2.89   0
  -2   2  -2   21.74    2.61   0
  -3   2  -2  286.99    5.29   0
  -3   2  -2  287.15    4.66   0
   4  -2   2  106.81    5.16   0
  -4   2  -2  106.78    4.60   0
  -5   2  -2  215.72    5.14   0
  -5   2  -2  220.12    5.40   0
   6  -2   2    4.72    2.39   0
  -6   2  -2    4.94    1.69   0
  -7   2  -2   12.58    2.08   0
  -7   2  -2   12.96    1.56   0
   8  -2   2    0.17    2.28   0
  -8   2  -2    0.16    1.98   0
  -8   2  -2    0.13    1.53   0
   9  -2   2    2.17    1.88   0
  -9   2  -2    2.22    2.21   0
 -10   2  -2    0.78    2.12   0
 -10   2  -2    2.83    2.11   0
 -11   2  -2  -20.78    2.39   0
 -11   2  -2  -28.82    1.97   0
 -11   2  -2  -22.04    1.99   0
 -11  -1   2    2.98    1.56   0
 -11  -1   2    3.07    1.81   0
 -10  -1   2    9.73   11.63   0
 -10  -1   2   53.01   14.86   0
  -9  -1   2    0.02    2.31   0
  -9  -1   2    0.01    2.03   0
  -8  -1   2   39.30    1.55   0
  -8  -1   2   20.09    1.65   0
  -7  -1   2   -1.49    2.20   0
  -7  -1   2   39.92    2.62   0
  -6  -1   2   86.39    4.98   0
  -6  -1   2  159.40    4.97   0
  -5  -1   2   36.95    3.06   0
  -5  -1   2   88.86    3.27   0
  -4  -1   2  252.54    4.71   0
  -4  -1   2  362.68    5.37   0
  -3  -1   2   77.36    4.45   0
  -3  -1   2   77.43    4.22   0
  -2  -1   2  119.90    4.75   0
   2   1  -2  120.10    5.28   0
  -1  -1   2  189.24    5.83   0
  -1  -1   2  229.20    5.43   0
   1   1  -2  176.00    6.37   0
   0  -1   2  113.35    5.16   0
   0   1  -2  113.22    4.52   0
   1  -1   2  102.56    4.52   0
  -1   1  -2  103.48    4.93   0
   2  -1   2 1461.43   14.13   0
  -2   1  -2 1461.10   14.05   0
   3  -1   2    4.21    1.81   0
  -3   1  -2    4.49    1.70   0
  -3   1  -2    4.38    1.73   0
   4  -1   2  270.42    6.07   0
  -5   1  -2  -38.48    1.87   0
  -5   1  -2   24.92    1.76   0
  -6   1  -2  -20.60    1.92   0
  -6   1  -2    2.22    1.98   0
  -7   1  -2  251.37    6.11   0
  -7   1  -2  235.56    6.03   0
   8  -1   2   68.86    3.10   0
  -8   1  -2   69.12    2.72   0
  -9   1  -2   -6.99    1.71   0
  -9   1  -2   12.73    2.40   0
  10  -1   2    7.22    1.81   0
 -10   1  -2    6.97    2.39   0
 -10   1  -2    7.15    1.71   0
 -11   0   2   26.89    2.49   0
 -11   0   2   27.46    2.22   0
 -10   0   2    0.45    2.20   0
 -10   0   2    0.46    2.45   0
  -9   0   2   50.83    2.71   0
  -9   0   2   11.38    2.05   0
  -8   0   2   52.96    3.24   0
  -8   0   2   52.76    2.56   0
  -7   0   2   48.70    2.67   0
  -7   0   2   49.11    3.37   0
  -6   0   2    4.50    1.81   0
  -6   0   2    5.12    1.72   0
  -5   0   2  222.62    4.73   0
  -5   0   2  169.79    5.49   0
  -4   0   2   78.80    3.37   0
   4   0  -2  -12.44    2.91   0
  -3   0   2 2493.60   21.64   0
   3   0  -2 2493.55   22.09   0
  -2   0   2   46.10    3.62   0
   2   0  -2   46.45    3.76   0
  -1   0   2  627.95    5.50   0
   1   0  -2  628.07    6.35   0
   0   0   2  288.46    5.95   0
   0   0  -2  287.96    6.03   0
   1   0   2   13.35    2.45   0
  -1   0  -2   12.56    1.89   0
  -1   0  -2   12.68    1.68   0
   2   0   2  854.38    8.40   0
  -2   0  -2  853.85    7.69   0
   3   0   2   66.97    3.86   0
  -3   0  -2   67.32    3.68   0
   4   0   2    6.41    1.79   0
  -4   0  -2    5.53    1.78   0
   5   0   2  285.21    5.15   0
  -5   0  -2  284.87    5.38   0
   6   0   2    0.02    2.34   0
  -6   0  -2    0.01    2.47   0
   7   0   2  220.20    6.70   0
  -7   0  -2  219.44    6.92   0
  -8   0  -2   91.80    5.84   0
  -8   0  -2   91.76    5.81   0
  -9   0  -2    2.34    2.78   0
  -9   0  -2    1.89    3.38   0
 -10   0  -2   21.63    1.58   0
 -10   0  -2   21.66    1.71   0
 -11   1   2    2.63    2.23   0
 -11   1   2    2.89    2.29   0
 -10   1   2    7.42    2.10   0
 -10   1   2    7.15    1.71   0
  -9   1   2   27.36    3.41   0
  -9   1   2   26.90    2.65   0
  -8   1   2    0.02    2.14   0
  -8   1   2    3.53    2.01   0
  -7   1   2   16.08    1.71   0
  -7   1   2   15.62    2.16   0
  -6   1   2   62.84    3.77   0
  -5   1   2  128.81    5.24   0
   5  -1  -2  129.30    5.06   0
  -4   1   2  159.33    4.87   0
   4  -1  -2  266.30    5.06   0
  -3   1   2  118.20    4.87   0
   3  -1  -2  117.90    4.90   0
  -2   1   2    0.87    2.46   0
   2  -1  -2    0.85    1.87   0
  -1   1   2   12.87    2.30   0
   1  -1  -2   13.05    1.76   0
   0   1   2   15.79    2.47   0
   0   1   2   12.06    2.31   0
   0  -1  -2   -5.80    2.27   0
   1   1   2   35.73    3.06   0
   1   1   2   36.05    3.31   0
  -1  -1  -2   35.67    2.71   0
  -1  -1  -2   35.58    2.73   0
   2   1   2  962.37    7.65   0
  -2  -1  -2  961.65    7.67   0
  -2  -1  -2  962.18    8.10   0
   3   1   2   97.09    4.99   0
  -3  -1  -2   97.45    4.55   0
   4   1   2  148.29    5.28   0
  -4  -1  -2  147.94    4.70   0
   5   1   2    3.72    1.92   0
  -5  -1  -2    3.75    2.09   0
   6   1   2    1.45    1.63   0
  -6  -1  -2    1.48    2.21   0
   7   1   2  163.46    5.39   0
  -7  -1  -2  163.07    5.12   0
   8   1   2   16.03    1.77   0
  -8  -1  -2   16.18    1.60   0
   9   1   2    1.28    1.95   0
  -9  -1  -2    1.19    1.79   0
 -10  -1  -2  -14.27    1.74   0
 -10  -1  -2    1.25    1.92   0
 -10  -1  -2  -27.99    2.42   0
 -11   2   2    8.59    2.19   0
 -11   2   2    8.64    1.96   0
 -10   2   2    0.31    1.74   0
 -10   2   2  -19.54    1.82   0
  -9   2   2    4.05    1.70   0
  -9   2   2    3.56    1.93   0
  -8   2   2   59.03    1.87   0
  -8   2   2   10.94    2.14   0
  -7   2   2   24.62    1.88   0
   7  -2  -2  -33.70    2.34   0
  -6   2   2  214.80    4.85   0
   6  -2  -2  213.30    5.26   0
  -5   2   2  104.87    4.65   0
   5  -2  -2  199.21    5.18   0
  -4   2   2  878.88    7.14   0
   4  -2  -2  785.55    7.14   0
  -3   2   2  509.26    7.27   0
   3  -2  -2  509.11    6.69   0
  -2   2   2   33.49    1.51   0
   2  -2  -2   32.67    2.37   0
  -1   2   2  173.97    5.92   0
  -1   2   2  173.53    6.18   0
   1  -2  -2  173.56    5.68   0
   0   2   2   26.66    2.24   0
   0   2   2   26.86    2.23   0
   0  -2  -2   27.06    1.88   0
   0  -2  -2   27.04    1.90   0
   1   2   2   51.58    2.37   0
   1   2   2   51.51    2.26   0
  -1  -2  -2   52.43    2.46   0
  -1  -2  -2   51.71    2.03   0
   2   2   2   52.41    2.86   0
  -2  -2  -2   52.03    3.33   0
   3   2   2  105.68    4.55   0
  -3  -2  -2  106.20    5.35   0
   4   2   2  121.92    4.75   0
  -4  -2  -2  122.13    4.84   0
   5   2   2   58.82    3.46   0
  -5  -2  -2   59.14    4.11   0
   6   2   2   11.77    2.40   0
  -6  -2  -2   11.94    2.29   0
   7   2   2    2.14    1.70   0
  -7  -2  -2    2.12    1.85   0
   8   2   2    6.05    1.88   0
  -8  -2  -2    5.93    1.57   0
  -9  -2  -2   28.16    2.30   0
  -9  -2  -2    1.76    2.33   0
 -10  -2  -2    0.82    2.42   0
 -10  -2  -2   -3.05    2.28   0
 -10  -2  -2   -4.24    2.23   0
 -11   3   2   24.70    1.93   0
 -11   3   2   24.89    2.37   0
 -10   3   2    0.03    1.79   0
 -10   3   2    0.04    2.42   0
  -9   3   2   28.36    2.05   0
  -9   3   2   27.82    2.24   0
  -8   3   2   56.65    3.49   0
  -7   3   2   29.02    2.08   0
   7  -3  -2   -3.78    2.29   0
  -6   3   2    8.26    1.83   0
   6  -3  -2    7.76    1.52   0
  -5   3   2   46.59    3.30   0
   5  -3  -2   46.94    2.80   0
  -4   3   2  233.09    5.21   0
   4  -3  -2  232.72    5.03   0
  -3   3   2  446.32    6.55   0
   3  -3  -2  445.74    6.57   0
  -2   3   2   94.15    4.47   0
   2  -3  -2   93.60    3.73   0
  -1   3   2    8.11    2.45   0
  -1   3   2   17.55    1.65   0
   1  -3  -2   12.54    1.87   0
   1  -3  -2    7.41    2.05   0
   0   3   2   36.33    3.36   0
   0   3   2   53.80    3.46   0
   0  -3  -2   52.25    3.51   0
   0  -3  -2   36.10    3.38   0
   1   3   2   77.99    3.71   0
   1   3   2   78.26    3.83   0
  -1  -3  -2   78.42    4.35   0
  -1  -3  -2   77.57    4.09   0
   2   3   2  124.55    5.93   0
  -2  -3  -2  125.44    5.85   0
  -2  -3  -2  125.17    5.87   0
   3   3   2  277.47    4.85   0
  -3  -3  -2  622.16    6.28   0
  -3  -3  -2  622.09    6.00   0
   4   3   2  492.24    6.49   0
  -4  -3  -2  491.76    5.83   0
  -4  -3  -2  491.85    6.47   0
   5   3   2    1.57    2.23   0
  -5  -3  -2    1.72    1.79   0
   6   3   2   19.41    2.49   0
  -6  -3  -2   18.83    2.31   0
  -6  -3  -2   18.74    2.28   0
   7   3   2    4.59    2.48   0
  -7  -3  -2    4.69    1.52   0
  -8  -3  -2   24.43    1.73   0
  -8  -3  -2  -26.03    2.19   0
  -9  -3  -2    9.25    1.86   0
  -9  -3  -2    8.50    2.28   0
 -10  -3  -2    3.23    2.01   0
 -10  -3  -2    7.74    1.85   0
 -11   4   2   71.80    2.84   0
 -11   4   2   51.98    3.09   0
 -10   4   2   22.27    1.54   0
 -10   4   2    4.81    1.61   0
  -9   4   2   31.04    2.83   0
  -8   4   2   59.10    3.24   0
   8  -4  -2   -6.43    2.94   0
  -7   4   2   91.04    4.64   0
   7  -4  -2   91.36    4.72   0
  -6   4   2   15.75    1.65   0
   6  -4  -2  -18.45    1.67   0
  -5   4   2   21.78    2.48   0
   5  -4  -2    9.76    2.22   0
  -4   4   2  134.93    4.77   0
  -4   4   2  134.65    4.53   0
  -3   4   2    7.41    1.59   0
  -3   4   2   19.99    1.74   0
   3  -4  -2   22.71    2.24   0
  -2   4   2   88.80    4.84   0
   2  -4  -2   88.89    4.99   0
  -1   4   2  351.96    5.45   0
   1  -4  -2  341.36    4.97   0
   0   4   2  239.59    5.28   0
   0  -4  -2  239.83    5.17   0
   0  -4  -2  239.57    4.75   0
   1   4   2  241.95    5.47   0
  -1  -4  -2  242.24    4.80   0
   2   4   2    4.41    2.22   0
   2   4   2    4.13    1.91   0
  -2  -4  -2    3.54    1.68   0
  -2  -4  -2    4.36    1.58   0
   3   4   2  324.42    4.93   0
  -3  -4  -2  324.20    4.81   0
  -3  -4  -2  323.82    4.99   0
   4   4   2  123.10    3.80   0
  -4  -4  -2  122.79    3.75   0
   5   4   2   35.27    2.63   0
  -5  -4  -2   34.77    3.24   0
   6   4   2    2.07    2.14   0
  -6  -4  -2    4.81    2.18   0
   7   4   2   36.17    2.50   0
  -7  -4  -2   36.39    2.95   0
  -7  -4  -2   36.05    2.60   0
   8   4   2   15.28    1.67   0
  -8  -4  -2   14.53    1.86   0
  -9  -4  -2  -13.06    1.50   0
  -9  -4  -2  -20.89    1.52   0
 -11   5   2    1.21    1.65   0
 -11   5   2    1.17    1.80   0
 -11   5   2    1.16    1.68   0
 -10   5   2   22.81    1.63   0
 -10   5   2   23.47    2.12   0
  -9   5   2   81.40    3.82   0
  -9   5   2   81.26    4.24   0
  -8   5   2  358.13    6.29   0
   8  -5  -2  358.18    5.94   0
  -7   5   2   78.15    3.61   0
  -7   5   2   78.02    4.07   0
   7  -5  -2   77.69    3.63   0
  -6   5   2    2.56    2.40   0
   6  -5  -2    2.68    2.03   0
  -5   5   2  148.82    5.38   0
  -5   5   2  148.54    4.72   0
   5  -5  -2  149.28    4.72   0
  -4   5   2   87.61    3.84   0
   4  -5  -2   98.59    3.81   0
  -3   5   2    9.41    2.35   0
  -3   5   2    0.62    2.42   0
   3  -5  -2    3.02    2.15   0
   2  -5  -2  341.99    5.03   0
   2  -5  -2  324.42    5.16   0
  -1   5   2 1358.27   13.07   0
   1  -5  -2 1512.78   13.29   0
   0   5   2 1365.54   10.87   0
   0   5   2 1230.44   11.17   0
   1   5   2   22.91    1.86   0
   1   5   2   22.64    2.13   0
   2   5   2   27.82    2.68   0
  -2  -5  -2   28.23    3.08   0
   3   5   2    3.40    2.25   0
  -3  -5  -2    3.44    1.97   0
  -3  -5  -2    3.46    2.08   0
  -4  -5  -2  -15.14    1.90   0
  -4  -5  -2   -1.62    2.11   0
   5   5   2   19.10    1.98   0
  -5  -5  -2   18.95    2.37   0
   6   5   2   61.80    3.58   0
  -6  -5  -2   62.22    3.88   0
   7   5   2  169.30    5.39   0
  -7  -5  -2  168.95    4.90   0
   8   5   2   33.43    3.00   0
  -8  -5  -2   32.68    3.32   0
   9   5   2    5.71    2.05   0
  -9  -5  -2    6.13    1.81   0
 -11   6   2   10.79    2.49   0
 -11   6   2   10.82    2.00   0
 -10   6   2   29.85    3.43   0
 -10   6   2   29.98    3.40   0
  -9   6   2   19.85    1.72   0
   9  -6  -2   19.51    2.27   0
  -8   6   2   -5.98    1.98   0
   8  -6  -2  -17.73    2.20   0
  -7   6   2  190.49    4.94   0
   7  -6  -2  213.62    5.28   0
  -6   6   2    4.10    1.50   0
  -6   6   2    4.85    1.72   0
   6  -6  -2   -8.04    1.72   0
  -5   6   2  803.71    8.32   0
   5  -6  -2  804.00    7.53   0
  -4   6   2 2441.43   22.99   0
   4  -6  -2 2441.02   22.70   0
  -3   6   2  597.77    6.72   0
   3  -6  -2  597.93    7.14   0
   3  -6  -2  598.05    7.29   0
  -2   6   2  176.82    5.74   0
   2  -6  -2  177.37    5.51   0
   2  -6  -2  176.73    5.56   0
  -1   6   2  517.26    7.16   0
   1  -6  -2  516.95    6.69   0
   1  -6  -2  517.11    6.71   0
   0   6   2  108.91    4.93   0
   0  -6  -2  109.35    5.03   0
   1   6   2  253.90    5.81   0
  -1  -6  -2  254.06    6.36   0
  -1  -6  -2  254.05    5.72   0
   2   6   2   30.19    1.52   0
  -2  -6  -2   14.08    1.82   0
  -2  -6  -2   28.79    2.26   0
   3   6   2  171.90    5.12   0
  -3  -6  -2  139.30    5.08   0
   4   6   2  638.65    6.13   0
  -4  -6  -2  639.32    5.95   0
   5   6   2  121.52    5.27   0
  -5  -6  -2  121.58    5.19   0
   6   6   2    3.19    1.57   0
  -6  -6  -2    2.57    1.72   0
   7   6   2   61.62    2.64   0
  -7  -6  -2   61.94    3.27   0
   8   6   2   28.52    3.29   0
  -8  -6  -2   29.33    2.78   0
  -8  -6  -2   28.74    2.93   0
 -10   7   2   -2.97    2.38   0
 -10   7   2    9.17    2.38   0
  10  -7  -2    1.11    2.17   0
  -9   7   2   -9.81    1.63   0
   9  -7  -2   -1.08    1.89   0
  -8   7   2    7.13    2.47   0
  -8   7   2    6.72    2.15   0
   8  -7  -2    6.50    1.98   0
  -7   7   2   72.87    4.64   0
  -7   7   2   72.86    4.48   0
  -6   7   2  113.07    4.29   0
   6  -7  -2  112.86    3.95   0
  -5   7   2   24.01    1.78   0
  -5   7   2   24.27    2.20   0
   5  -7  -2   24.07    1.58   0
  -4   7   2  111.11    5.48   0
   4  -7  -2  111.32    4.84   0
  -3   7   2  343.75    5.07   0
   3  -7  -2  343.57    5.41   0
   3  -7  -2  343.67    5.47   0
  -2   7   2   -6.42    2.20   0
   2  -7  -2    3.88    1.98   0
  -1   7   2   24.28    1.90   0
  -1   7   2   24.32    1.78   0
   1  -7  -2   24.06    1.77   0
   0  -7  -2   15.48    2.03   0
   0  -7  -2   14.64    2.43   0
   1   7   2   66.52    4.18   0
   1   7   2   67.44    4.44   0
  -1  -7  -2   66.64    4.14   0
  -1  -7  -2   67.15    3.68   0
   2   7   2  192.31    5.05   0
   2   7   2  191.28    4.55   0
   3   7   2   66.76    3.15   0
  -3  -7  -2   66.62    3.25   0
   4   7   2    2.79    1.98   0
  -4  -7  -2    2.70    2.00   0
  -4  -7  -2    3.47    2.01   0
   5   7   2    2.40    2.46   0
  -5  -7  -2   19.20    1.79   0
   6   7   2   26.14    2.32   0
  -6  -7  -2    8.15    1.55   0
   7   7   2    4.28    1.54   0
  -7  -7  -2    4.01    2.38   0
   8   7   2    1.61    2.25   0
  -8  -7  -2    1.51    1.59   0
 -10   8   2    0.47    1.90   0
  10  -8  -2    0.50    1.80   0
  -9   8   2   76.79    4.24   0
   9  -8  -2   77.46    4.33   0
  -8   8   2   11.54    3.47   0
  -8   8   2   23.06    3.33   0
   8  -8  -2   30.14    2.80   0
  -7   8   2   18.22    2.43   0
   7  -8  -2   13.07    1.92   0
  -6   8   2   16.82    1.62   0
   6  -8  -2   16.70    1.72   0
  -5   8   2  622.06    5.68   0
  -5   8   2  514.49    6.24   0
  -4   8   2  498.97    6.04   0
  -4   8   2  572.65    5.90   0
  -3   8   2    9.53    2.43   0
  -3   8   2   10.22    1.72   0
   3  -8  -2   31.79    2.67   0
   3  -8  -2   23.08    2.71   0
   2  -8  -2   69.22    3.50   0
   2  -8  -2   81.22    4.48   0
  -1   8   2   32.85    3.30   0
   1  -8  -2   22.03    2.50   0
   0   8   2  134.88    4.99   0
   0   8   2  135.18    5.28   0
   0  -8  -2  134.70    5.48   0
   1   8   2   26.79    2.30   0
   1   8   2   11.89    1.99   0
  -1  -8  -2   20.03    1.63   0
   2   8   2   48.66    2.78   0
  -2  -8  -2   57.45    2.62   0
  -2  -8  -2   51.32    3.37   0
   3   8   2  377.50    5.09   0
  -3  -8  -2  378.09    4.77   0
   4   8   2   90.41    3.83   0
  -4  -8  -2  109.32    4.07   0
   5   8   2    5.43    2.30   0
  -5  -8  -2    4.55    2.01   0
   6   8   2    1.59    2.05   0
  -6  -8  -2    1.51    1.62   0
  -6  -8  -2    1.65    2.49   0
   7   8   2   21.50    1.92   0
  -7  -8  -2   22.23    2.17   0
  -9   9   2  258.93    4.86   0
   9  -9  -2  259.07    4.59   0
  -8   9   2  224.24    5.21   0
   8  -9  -2  224.38    5.13   0
  -7   9   2    7.95    1.66   0
  -7   9   2    7.67    1.97   0
   7  -9  -2    8.35    2.14   0
  -6   9   2   76.05    3.87   0
   6  -9  -2   76.34    4.34   0
  -5   9   2   26.46    1.99   0
   5  -9  -2   22.01    2.27   0
  -4   9   2    5.27    1.62   0
  -4   9   2   -0.76    1.72   0
  -3   9   2   19.56    1.71   0
   3  -9  -2   19.71    2.41   0
  -2   9   2  343.48    6.10   0
   2  -9  -2  343.00    6.02   0
   2  -9  -2  342.75    5.79   0
  -1   9   2 1795.52   13.41   0
   1  -9  -2 1781.49   13.18   0
   0   9   2  903.17    7.10   0
   0  -9  -2  903.18    7.08   0
   1   9   2  126.45    5.13   0
   1   9   2  126.36    5.01   0
  -1  -9  -2  125.66    4.50   0
   2   9   2   10.14    1.82   0
  -2  -9  -2   10.25    1.78   0
   3   9   2   -1.23    2.23   0
   3   9   2    1.82    1.95   0
  -3  -9  -2   -8.49    1.82   0
   4   9   2    3.90    1.87   0
   4   9   2    4.50    1.83   0
   5   9   2   12.96    1.63   0
  -5  -9  -2   13.44    1.55   0
  -6  -9  -2    4.15    1.87   0
  -6  -9  -2    4.02    1.55   0
  -9  10   2   10.75    9.86   0
  -9  10   2   16.53    9.33   0
   9 -10  -2    8.65   11.48   0
  -8  10   2    3.87    8.47   0
   8 -10  -2   14.97   10.61   0
  -7  10   2   81.52    4.57   0
   7 -10  -2   81.54    4.86   0
  -6  10   2    1.12    1.73   0
   6 -10  -2    1.14    1.64   0
  -5  10   2   23.51    2.41   0
  -5  10   2   17.32    2.17   0
   5 -10  -2   23.50    1.50   0
  -4  10   2  -20.01    2.00   0
  -4  10   2  -20.32    1.78   0
  -3  10   2   10.77    1.67   0
   3 -10  -2   10.52    2.24   0
  -2  10   2  116.11    5.16   0
  -2  10   2  115.75    4.95   0
  -1  10   2   10.44    1.53   0
   1 -10  -2    9.95    2.45   0
   1 -10  -2    9.56    1.86   0
   0  10   2    2.09    2.09   0
   0 -10  -2    6.64    2.48   0
   1  10   2   35.10    3.43   0
   1  10   2   34.52    3.24   0
  -1 -10  -2   34.70    2.75   0
   2  10   2   14.10    2.41   0
  -2 -10  -2   13.81    2.44   0
   3  10   2   47.89    2.89   0
   3  10   2   49.22    2.83   0
  -3 -10  -2   34.12    2.90   0
   4  10   2    5.66    2.19   0
   4  10   2    2.27    2.30   0
  -4 -10  -2    8.69    2.34   0
  -4 -10  -2    5.25    2.47   0
   5  10   2    1.84    2.41   0
  -5 -10  -2    1.76    1.54   0
  -8  11   2   83.02    4.28   0
   8 -11  -2   72.69    4.44   0
  -7  11   2    1.64    1.96   0
  -7  11   2    1.68    1.82   0
   7 -11  -2    1.72    1.84   0
  -6  11   2    3.39    2.00   0
  -6  11   2    3.06    1.56   0
   6 -11  -2    2.81    2.29   0
  -5  11   2   32.36    2.66   0
   5 -11  -2   38.01    2.55   0
  -4  11   2    4.12    9.09   0
   4 -11  -2    6.67   11.14   0
   4 -11  -2  -10.21    7.11   0
  -3  11   2    6.75    1.56   0
  -3  11   2    6.79    1.82   0
   3 -11  -2    6.73    1.65   0
   3 -11  -2    6.50    2.09   0
  -2  11   2    2.42    1.57   0
   2 -11  -2    2.36    2.26   0
   2 -11  -2    2.37    1.86   0
  -1  11   2  115.29    5.10   0
   1 -11  -2  115.22    5.08   0
   0  11   2  144.69    5.27   0
   0 -11  -2  145.33    4.71   0
   1  11   2  -10.80    2.48   0
  -1 -11  -2   10.43    2.45   0
   2  11   2   44.42    3.42   0
  -2 -11  -2   43.91    2.99   0
  -2 -11  -2   43.92    3.32   0
   3  11   2  231.98    6.11   0
  -3 -11  -2  231.55    5.75   0
   4  11   2   65.34    2.95   0
  -4 -11  -2   42.09    3.35   0
  -6  12   2  112.33    5.04   0
   6 -12  -2  112.29    4.96   0
  -5  12   2  223.80    5.00   0
  -5  12   2  223.72    4.56   0
   5 -12  -2  224.17    4.54   0
  -4  12   2   29.60    3.12   0
   4 -12  -2   29.61    2.76   0
  -3  12   2    4.14    2.39   0
  -3  12   2    3.98    1.55   0
   3 -12  -2    3.84    2.46   0
   3 -12  -2    3.77    2.38   0
  -2  12   2   21.48    1.56   0
  -2  12   2   45.94    2.48   0
   2 -12  -2   26.22    2.29   0
  -1  12   2    6.05    1.77   0
   1 -12  -2  -17.43    2.08   0
   1 -12  -2  -20.50    1.90   0
   0  12   2    1.90    2.49   0
   0 -12  -2    2.87    2.47   0
   0 -12  -2    1.88    2.29   0
   1  12   2   20.45    2.45   0
  -1 -12  -2   19.80    1.81   0
   2  12   2   58.08    3.46   0
  -2 -12  -2   58.22    3.23   0
  -3  13   2    0.70    2.43   0
  -3  13   2    5.84    1.93   0
   3 -13  -2   -5.23    1.73   0
  -2  13   2    7.45    2.19   0
   2 -13  -2  -15.16    2.34   0
   2 -13  -2  -10.23    2.88   0
  -1  13   2   50.13    3.43   0
  -1  13   2   50.14    3.17   0
   1 -13  -2   49.56    3.26   0
  -3 -12   3    9.05    8.92   0
   3  12  -3    3.13    6.50   0
  -2 -12   3   40.17    9.38   0
   2  12  -3   25.00    6.83   0
  -1 -12   3   -2.54    9.49   0
   1  12  -3   -1.99   12.69   0
   0 -12   3   27.07    8.67   0
   0  12  -3    0.42   14.20   0
   0  12  -3   50.82    9.80   0
   1 -12   3   32.25    2.77   0
   1 -12   3   32.28    2.87   0
  -1  12  -3   32.33    3.20   0
  -1  12  -3   31.81    2.86   0
   2 -12   3   13.40    1.70   0
  -2  12  -3   -2.47    2.33   0
  -2  12  -3    1.66    2.27   0
   3 -12   3    2.50    1.65   0
  -3  12  -3    2.69    1.79   0
   4 -12   3   15.38    1.75   0
   4 -12   3   15.47    1.65   0
  -4  12  -3   15.03    2.33   0
   5 -12   3   25.93    2.16   0
   5 -12   3    7.48    2.18   0
  -5 -11   3   25.22    2.01   0
  -5 -11   3   18.28    2.46   0
   5  11  -3   25.13    1.85   0
  -4 -11   3    8.72    1.61   0
   4  11  -3    9.43    2.24   0
   4  11  -3    8.77    2.32   0
   3  11  -3  116.88    5.29   0
   3  11  -3  118.80    4.77   0
  -2 -11   3  402.45    6.01   0
   2  11  -3  339.88    5.98   0
   2  11  -3  329.24    6.01   0
  -1 -11   3  106.59    5.32   0
   1  11  -3  107.09    4.78   0
   0 -11   3    0.32    1.60   0
   0  11  -3    0.28    2.26   0
   1 -11   3    9.12    2.08   0
  -1  11  -3    8.87    1.63   0
   2 -11   3   17.26    1.92   0
   2 -11   3   16.66    2.27   0
  -2  11  -3   17.40    2.00   0
   3 -11   3   -3.92    1.58   0
   3 -11   3    8.28    1.69   0
  -3  11  -3   -6.20    1.71   0
  -3  11  -3    0.05    1.87   0
   4 -11   3    4.11    1.71   0
   4 -11   3   -2.52    1.94   0
  -4  11  -3   -7.06    1.87   0
   5 -11   3   79.12    4.18   0
   5 -11   3   79.41    3.78   0
  -5  11  -3   79.08    4.19   0
  -6  11  -3  118.16    4.96   0
  -6  11  -3  117.70    4.87   0
  -6 -10   3   63.08    3.42   0
  -6 -10   3   62.67    3.49   0
  -5 -10   3  -16.74    2.18   0
  -5 -10   3   17.46    1.75   0
   5  10  -3    0.79    2.47   0
  -4 -10   3   18.09    2.14   0
   4  10  -3   18.08    2.17   0
   4  10  -3   18.33    1.65   0
  -3 -10   3   48.14    3.23   0
   3  10  -3   47.70    2.91   0
   3  10  -3   47.51    2.91   0
  -2 -10   3   45.09    2.95   0
   2  10  -3   46.75    3.03   0
   2  10  -3   46.81    2.68   0
  -1 -10   3    4.93    1.77   0
  -1 -10   3   10.67    1.93   0
   1  10  -3   -2.24    1.70   0
   0 -10   3   42.83    2.92   0
   0  10  -3   43.00    3.04   0
   0  10  -3   43.38    3.17   0
   1 -10   3  359.70    7.53   0
  -1  10  -3  359.77    7.84   0
  -2  10  -3  534.88    5.67   0
  -2  10  -3  534.76    6.37   0
   3 -10   3   52.27    3.10   0
   3 -10   3   38.90    2.62   0
  -3  10  -3   50.83    3.02   0
  -3  10  -3   47.52    3.34   0
   4 -10   3   -7.36    2.46   0
  -4  10  -3   12.73    2.33   0
  -4  10  -3   -4.47    1.91   0
   5 -10   3    5.40    2.47   0
   5 -10   3    4.54    2.47   0
  -5  10  -3   12.08    2.16   0
  -5  10  -3   12.08    2.40   0
   6 -10   3   41.54    2.95   0
  -6  10  -3   41.93    3.36   0
   7 -10   3    4.66    3.18   0
  -7  10  -3    4.80    3.43   0
  -7  -9   3   -7.47    2.07   0
  -7  -9   3   13.87    2.55   0
  -7  -9   3   13.90    1.77   0
  -6  -9   3   27.77    3.03   0
  -6  -9   3   27.64    2.78   0
  -5  -9   3    0.20    2.12   0
   5   9  -3   13.67    2.21   0
  -4  -9   3   19.44    2.39   0
   4   9  -3   22.00    1.54   0
   4   9  -3   23.28    1.91   0
  -3  -9   3   74.88    3.96   0
  -3  -9   3   74.69    4.47   0
   3   9  -3   74.56    3.72   0
   3   9  -3   75.01    4.13   0
  -2  -9   3  172.17    5.28   0
  -2  -9   3  172.27    5.07   0
  -1  -9   3   11.65    1.90   0
  -1  -9   3   12.41    1.61   0
   1   9  -3   28.57    1.89   0
   0  -9   3   19.14    1.60   0
   0   9  -3   10.30    1.92   0
   1  -9   3    9.42    2.38   0
  -1   9  -3    8.56    1.50   0
  -1   9  -3    8.57    2.14   0
   2  -9   3   16.20    1.87   0
   2  -9   3   15.58    2.19   0
  -2   9  -3   16.47    1.71   0
  -2   9  -3   16.18    1.93   0
   3  -9   3    1.79    2.18   0
  -3   9  -3    1.74    1.91   0
  -3   9  -3    1.78    1.70   0
   4  -9   3   48.01    2.92   0
   4  -9   3   47.58    2.71   0
  -4   9  -3   47.57    2.60   0
   5  -9   3   96.67    5.26   0
  -5   9  -3   97.30    4.83   0
  -5   9  -3   97.46    4.75   0
   6  -9   3  108.86    5.01   0
  -6   9  -3  109.34    4.64   0
  -7   9  -3    9.63    2.45   0
  -7   9  -3    1.17    2.33   0
  -8   9  -3    0.12    2.29   0
  -8   9  -3    0.13    1.62   0
  -8  -8   3   11.96    2.05   0
  -8  -8   3   11.73    2.18   0
  -7  -8   3   96.50    4.09   0
  -7  -8   3   96.60    3.77   0
  -6  -8   3   87.47    3.76   0
  -6  -8   3   87.42    3.80   0
  -5  -8   3    8.01    1.56   0
  -5  -8   3   -4.79    2.18   0
  -4  -8   3  116.06    5.24   0
   4   8  -3  115.77    4.62   0
  -3  -8   3    2.57    1.82   0
   3   8  -3   15.15    2.49   0
  -2  -8   3  125.22    4.52   0
   2   8  -3  124.68    4.53   0
   2   8  -3  124.84    4.69   0
   1   8  -3  247.17    4.71   0
   1   8  -3  247.31    5.18   0
   0  -8   3    0.68    1.52   0
   0   8  -3    0.74    1.55   0
  -1   8  -3  972.16    6.95   0
  -1   8  -3  824.83    6.87   0
   2  -8   3  265.97    5.98   0
   2  -8   3  400.71    5.53   0
  -2   8  -3  413.33    6.11   0
  -2   8  -3  271.75    6.11   0
   3  -8   3   19.89    1.70   0
  -3   8  -3   19.52    2.46   0
  -3   8  -3   20.19    2.43   0
   4  -8   3  474.45    5.77   0
  -4   8  -3  473.67    6.11   0
   5  -8   3  132.52    5.34   0
  -5   8  -3  132.60    4.98   0
   6  -8   3    1.26    2.40   0
  -6   8  -3    1.33    2.30   0
  -6   8  -3    1.41    1.60   0
  -7   8  -3   31.94    2.83   0
  -7   8  -3   31.92    3.41   0
  -7   8  -3   31.72    2.59   0
  -8   8  -3    8.49    2.19   0
  -8   8  -3    2.15    2.48   0
  -8   8  -3   -5.61    2.01   0
  -9   8  -3   94.68    3.36   0
  -9   8  -3   64.25    3.41   0
  -9  -7   3   11.81    8.29   0
  -9  -7   3   15.55    6.71   0
  -8  -7   3    9.36    7.56   0
  -8  -7   3    0.35    8.51   0
  -7  -7   3   33.02    2.63   0
  -7  -7   3   32.85    3.26   0
  -6  -7   3  -32.96    2.16   0
  -6  -7   3   -1.02    2.47   0
  -5  -7   3    4.45    2.59   0
  -5  -7   3    4.07    2.55   0
   5   7  -3    3.74    2.75   0
  -4  -7   3  225.14   13.09   0
  -4  -7   3  223.44   11.52   0
   4   7  -3  228.29    9.57   0
  -3  -7   3  913.79    9.71   0
   3   7  -3  913.68    9.62   0
  -2  -7   3  917.52   10.23   0
   2   7  -3  918.45    9.57   0
   2   7  -3  918.15   10.05   0
  -1  -7   3  132.38    5.36   0
   1   7  -3  132.32    5.33   0
   0  -7   3    3.44    1.72   0
   0   7  -3    3.48    2.41   0
   1  -7   3   17.67    2.28   0
   1  -7   3   17.98    1.50   0
  -1   7  -3   17.84    2.49   0
  -1   7  -3   17.97    1.77   0
   2  -7   3   13.93    2.13   0
  -2   7  -3   14.15    2.07   0
  -2   7  -3   14.41    1.53   0
   3  -7   3  -13.57    1.68   0
   3  -7   3   -7.41    2.32   0
  -3   7  -3    7.62    2.18   0
  -3   7  -3    3.73    1.85   0
   4  -7   3  202.86    5.16   0
  -4   7  -3  203.12    5.47   0
   5  -7   3 1217.55   11.82   0
  -5   7  -3 1217.60   11.73   0
  -5   7  -3 1217.96   11.57   0
  -5   7  -3 1218.24   12.08   0
  -6   7  -3  335.02    3.48   0
  -6   7  -3  334.88    2.86   0
   7  -7   3   61.46    2.57   0
  -7   7  -3   60.52    2.54   0
  -8   7  -3   23.14   13.93   0
  -8   7  -3   31.36   17.82   0
  -8   7  -3   37.88   13.54   0
   9  -7   3   14.82    2.47   0
  -9   7  -3   15.09    1.78   0
  -9  -6   3    1.69    1.58   0
  -9  -6   3  -10.67    1.87   0
  -8  -6   3   -0.86    2.34   0
  -8  -6   3    0.31    2.31   0
  -7  -6   3   22.13    2.31   0
  -7  -6   3   21.61    2.42   0
  -6  -6   3  252.30    5.08   0
  -6  -6   3  252.14    5.18   0
  -5  -6   3   54.61    2.05   0
  -5  -6   3   55.04    2.39   0
  -4  -6   3   40.56    2.84   0
  -4  -6   3   40.95    2.55   0
   4   6  -3   41.18    2.56   0
  -3  -6   3   33.15    2.21   0
  -3  -6   3   23.99    2.01   0
   3   6  -3   42.26    1.83   0
   3   6  -3   37.06    2.28   0
  -2  -6   3  234.65    5.61   0
   2   6  -3  234.61    6.42   0
  -1  -6   3   72.44    3.40   0
   1   6  -3   74.02    3.29   0
   0  -6   3   21.99    2.42   0
   0   6  -3   21.74    2.31   0
   0   6  -3   21.82    2.22   0
   1  -6   3  219.73    5.32   0
  -1   6  -3  206.92    5.32   0
   2  -6   3  138.14    5.07   0
   2  -6   3  137.96    5.36   0
  -2   6  -3  137.95    5.44   0
   3  -6   3   14.41    1.61   0
   3  -6   3   14.40    1.74   0
  -3   6  -3   13.58    2.45   0
  -3   6  -3   13.80    2.46   0
  -4   6  -3    5.63    1.65   0
  -4   6  -3   -6.13    1.55   0
  -5   6  -3   31.50    3.29   0
  -5   6  -3   42.01    2.54   0
  -6   6  -3  210.79    5.49   0
  -6   6  -3  222.84    5.21   0
   7  -6   3   17.40    1.69   0
  -7   6  -3   16.95    1.89   0
  -8   6  -3   53.47    2.83   0
  -8   6  -3   38.25    3.33   0
   9  -6   3   70.27    4.09   0
  -9   6  -3   69.63    4.33   0
 -10   6  -3  -24.14    2.43   0
 -10   6  -3  -16.45    2.26   0
 -10  -5   3    5.00    1.61   0
 -10  -5   3    4.87    2.45   0
  -9  -5   3   -1.36    1.99   0
  -9  -5   3   -8.17    1.53   0
  -8  -5   3   14.96    2.40   0
  -8  -5   3   14.79    2.41   0
  -7  -5   3   62.63    3.16   0
  -7  -5   3   63.24    2.50   0
  -6  -5   3  450.21    6.50   0
  -6  -5   3  450.35    7.47   0
  -5  -5   3  -37.75    2.16   0
  -5  -5   3  -19.58    2.31   0
  -4  -5   3    9.35    1.58   0
  -4  -5   3   -7.43    1.75   0
  -3  -5   3   61.59    3.21   0
  -3  -5   3   33.70    2.85   0
   3   5  -3   46.74    2.62   0
   3   5  -3   57.05    2.97   0
  -2  -5   3   83.15    3.66   0
  -2  -5   3   83.24    4.01   0
  -1  -5   3  111.28    4.46   0
   1   5  -3  111.32    3.51   0
   0  -5   3  113.92    4.92   0
   0   5  -3  168.86    4.74   0
   0   5  -3  181.46    4.72   0
   1  -5   3    6.46    2.24   0
  -1   5  -3   -6.23    1.62   0
  -1   5  -3    7.86    1.56   0
   2  -5   3  950.12    6.98   0
   2  -5   3  949.90    7.20   0
  -2   5  -3  949.57    6.84   0
   3  -5   3  -18.21    1.66   0
  -3   5  -3   -6.81    2.10   0
  -3   5  -3   -6.22    1.60   0
   4  -5   3    7.80    2.09   0
  -4   5  -3    8.02    2.12   0
  -4   5  -3    8.30    1.70   0
   5  -5   3  118.79    4.93   0
  -5   5  -3  118.53    5.34   0
   6  -5   3   43.80    3.12   0
  -6   5  -3   44.01    3.06   0
  -6   5  -3   44.28    3.26   0
   7  -5   3   35.21    2.95   0
  -7   5  -3   34.58    3.13   0
   8  -5   3   73.63    3.86   0
  -8   5  -3   74.20    3.91   0
   9  -5   3   27.05    1.62   0
   9  -5   3   19.02    1.60   0
  -9   5  -3   26.55    1.55   0
  10  -5   3    2.62    1.83   0
 -10   5  -3    3.29    1.51   0
 -10  -4   3   13.50    2.26   0
 -10  -4   3   14.03    1.72   0
  -9  -4   3    0.60    2.22   0
  -9  -4   3    0.61    2.44   0
  -8  -4   3   28.13    2.42   0
  -8  -4   3   27.55    1.94   0
  -7  -4   3  275.49    6.95   0
  -7  -4   3  274.70    6.72   0
  -6  -4   3   90.24    3.54   0
  -6  -4   3   89.61    4.04   0
  -5  -4   3    6.72    2.27   0
  -5  -4   3  -15.08    1.65   0
  -4  -4   3   58.36    2.65   0
  -4  -4   3   58.47    3.37   0
  -3  -4   3   28.59    2.48   0
   3   4  -3   25.65    1.84   0
  -2  -4   3  344.52    5.67   0
   2   4  -3  344.71    6.25   0
  -1  -4   3   95.53    4.55   0
   1   4  -3   96.29    4.74   0
   0  -4   3  534.61    5.49   0
   0   4  -3  534.85    4.96   0
   1  -4   3 3757.90   33.07   0
  -1   4  -3 3757.54   33.26   0
  -2   4  -3 1383.74   12.19   0
  -2   4  -3 1238.15   11.99   0
   3  -4   3   38.61    3.09   0
  -3   4  -3   39.40    3.99   0
  -3   4  -3   39.46    3.60   0
  -3   4  -3   38.94    3.10   0
  -4   4  -3   35.65    1.86   0
  -4   4  -3   12.88    2.40   0
   5  -4   3   35.46    2.86   0
  -5   4  -3   35.07    2.60   0
  -5   4  -3   35.46    2.95   0
   6  -4   3  135.65    4.90   0
  -6   4  -3  136.27    4.51   0
  -6   4  -3  136.26    4.94   0
   7  -4   3    2.77    1.74   0
  -7   4  -3    3.48    1.52   0
  -8   4  -3   10.00    2.47   0
  -8   4  -3   21.01    1.91   0
  -8   4  -3   32.46    1.51   0
  -9   4  -3  135.45    7.32   0
  -9   4  -3  135.36    6.75   0
  10  -4   3   20.17    1.60   0
 -10   4  -3   19.58    2.27   0
 -11  -3   3   10.95    2.35   0
 -11  -3   3   11.46    1.74   0
 -11  -3   3   10.98    1.56   0
 -10  -3   3   40.69    3.48   0
 -10  -3   3   41.47    3.29   0
  -9  -3   3   50.66    3.92   0
  -9  -3   3   51.33    4.45   0
  -8  -3   3   10.59    2.17   0
  -8  -3   3   11.03    1.95   0
  -7  -3   3   12.68    1.59   0
  -7  -3   3   12.86    1.74   0
  -7  -3   3   13.06    1.58   0
  -6  -3   3   84.36    3.88   0
  -6  -3   3   83.89    3.91   0
  -5  -3   3   79.01    3.89   0
  -5  -3   3   78.58    4.45   0
  -4  -3   3  165.80    5.02   0
  -4  -3   3  188.59    5.13   0
  -3  -3   3  193.52    5.10   0
  -3  -3   3  136.20    5.21   0
  -2  -3   3  210.78    4.70   0
  -2  -3   3  211.44    5.39   0
  -1  -3   3  310.25    4.89   0
   1   3  -3  309.79    5.39   0
   0  -3   3   59.23    2.63   0
   0  -3   3   58.78    3.18   0
   0   3  -3   59.46    3.31   0
   1  -3   3  927.42    7.06   0
  -1   3  -3  926.99    7.45   0
  -2   3  -3  336.84    6.24   0
  -2   3  -3  337.13    6.04   0
   3  -3   3   70.54    3.27   0
  -3   3  -3   71.23    3.47   0
  -3   3  -3   71.08    3.09   0
   4  -3   3    1.57    1.50   0
  -4   3  -3    1.62    1.77   0
  -4   3  -3    2.61    1.63   0
   5  -3   3   62.42    3.71   0
  -5   3  -3   62.01    3.80   0
  -6   3  -3    1.84    1.50   0
  -6   3  -3    1.82    2.09   0
  -6   3  -3    1.76    1.91   0
  -7   3  -3   43.52    2.63   0
  -7   3  -3   29.99    2.52   0
  -8   3  -3    6.04    2.67   0
  -8   3  -3    3.77    2.78   0
   9  -3   3   38.56    2.92   0
  -9   3  -3   39.03    3.28   0
 -10   3  -3    6.56    3.44   0
 -10   3  -3    7.18    2.62   0
 -11  -2   3   11.51    1.95   0
 -11  -2   3   12.29    2.31   0
 -10  -2   3   92.47    4.18   0
 -10  -2   3   36.67    2.56   0
  -9  -2   3   11.67    2.69   0
  -9  -2   3   43.85    2.97   0
  -8  -2   3    0.50    1.57   0
  -8  -2   3    0.47    1.76   0
  -7  -2   3  100.37    4.85   0
  -7  -2   3  131.97    4.93   0
  -6  -2   3    1.00    1.96   0
  -6  -2   3    1.06    2.49   0
  -5  -2   3   33.21    2.78   0
  -5  -2   3   32.76    2.66   0
  -4  -2   3  189.45    5.14   0
  -4  -2   3  189.03    4.64   0
  -3  -2   3  426.83    7.54   0
  -3  -2   3  426.52    8.29   0
  -2  -2   3  403.05    6.29   0
  -2  -2   3  402.67    5.90   0
  -1  -2   3   50.16    3.33   0
  -1  -2   3   43.63    2.50   0
   1   2  -3   22.73    2.60   0
   1   2  -3   32.49    2.65   0
   0  -2   3  387.62    5.37   0
   0   2  -3  388.43    5.20   0
   1  -2   3  569.66    7.01   0
  -1   2  -3  570.06    6.83   0
   2  -2   3   25.01    2.26   0
  -2   2  -3   24.87    1.57   0
  -2   2  -3   24.76    2.10   0
  -3   2  -3  -15.98    1.61   0
  -3   2  -3  -17.36    2.02   0
  -4   2  -3   -5.23    2.33   0
  -4   2  -3    5.44    2.35   0
   5  -2   3   13.38    1.88   0
  -5   2  -3   13.44    1.97   0
  -5   2  -3   13.46    1.99   0
   6  -2   3   17.90    2.03   0
  -6   2  -3   17.74    1.99   0
  -6   2  -3   18.08    1.54   0
  -7   2  -3   -8.15    1.95   0
  -7   2  -3   10.50    2.20   0
   8  -2   3   33.47    4.32   0
  -8   2  -3   32.60    3.58   0
   9  -2   3    4.26    1.71   0
  -9   2  -3    3.98    2.13   0
  10  -2   3   13.50    1.75   0
 -10   2  -3   13.75    2.45   0
 -11  -1   3   54.72    2.42   0
 -11  -1   3   -3.76    1.73   0
 -10  -1   3    4.38    2.06   0
 -10  -1   3    3.74    2.34   0
  -9  -1   3  -23.29    2.34   0
  -9  -1   3   -9.78    2.43   0
  -8  -1   3    1.24    1.63   0
  -8  -1   3    1.22    2.35   0
  -7  -1   3   78.36    4.32   0
  -7  -1   3   78.14    3.74   0
  -6  -1   3  313.53    4.59   0
  -6  -1   3  164.51    4.50   0
  -5  -1   3   47.24    3.04   0
  -5  -1   3   46.66    2.59   0
  -4  -1   3   70.18    3.28   0
   4   1  -3   48.75    3.24   0
  -3  -1   3   47.10    3.97   0
   3   1  -3   47.36    3.65   0
  -2  -1   3  518.67    5.18   0
   2   1  -3  487.00    4.68   0
  -1  -1   3   12.03    2.31   0
  -1  -1   3   11.57    1.66   0
   1   1  -3   12.30    1.75   0
   0  -1   3    0.05    1.91   0
   0   1  -3    0.03    1.59   0
   0   1  -3    0.01    1.60   0
   1  -1   3   68.01    2.75   0
  -1   1  -3   67.54    3.10   0
  -1   1  -3   68.01    2.83   0
   2  -1   3  122.81    5.12   0
  -2   1  -3  122.70    5.42   0
  -3   1  -3   16.16    1.68   0
  -3   1  -3    6.74    2.43   0
   4  -1   3    1.15    1.60   0
  -4   1  -3    4.24    2.01   0
  -4   1  -3   23.04    2.35   0
  -5   1  -3   89.29    4.28   0
  -5   1  -3   76.66    3.96   0
  -6   1  -3  124.76    4.56   0
  -6   1  -3   97.18    3.85   0
  -7   1  -3    1.67    2.15   0
  -7   1  -3    1.61    2.30   0
   8  -1   3    2.04    2.37   0
  -8   1  -3    1.68    2.00   0
  -9   1  -3    2.26    3.34   0
  -9   1  -3    2.33    3.42   0
 -10   1  -3    1.19    2.03   0
 -10   1  -3    1.21    2.26   0
 -11   0   3    5.25    1.70   0
 -11   0   3   -3.49    2.03   0
 -10   0   3   -5.45    1.54   0
 -10   0   3   18.59    1.99   0
  -9   0   3    0.10    1.75   0
  -8   0   3   -5.42    1.94   0
  -8   0   3   12.31    2.21   0
  -7   0   3   12.33    2.34   0
  -7   0   3   11.54    2.03   0
  -6   0   3    0.94    2.11   0
  -5   0   3    3.16    1.98   0
   5   0  -3    2.55    1.99   0
  -4   0   3    0.21    2.39   0
   4   0  -3  -36.41    2.37   0
  -3   0   3    1.18    2.42   0
   3   0  -3    1.17    1.90   0
  -2   0   3   27.83    2.36   0
   2   0  -3    4.99    1.63   0
  -1   0   3   -8.67    1.91   0
   1   0  -3   18.07    1.78   0
   0   0   3    2.14    2.03   0
   0   0  -3    1.90    2.18   0
   1   0   3    2.93    2.49   0
   1   0   3    3.40    2.11   0
  -1   0  -3    2.68    1.75   0
  -1   0  -3    2.84    1.51   0
   2   0   3   18.82    2.09   0
  -2   0  -3   19.00    1.51   0
   3   0   3   -4.12    2.11   0
  -3   0  -3    7.59    2.22   0
   4   0   3   -1.70    1.59   0
  -4   0  -3  -33.22    1.94   0
   5   0   3  -14.91    1.52   0
  -5   0  -3    0.56    2.28   0
   6   0   3  -21.99    1.50   0
  -6   0  -3  -35.12    1.63   0
   7   0   3    5.18    2.13   0
  -7   0  -3    4.73    1.94   0
   8   0   3    0.61    1.86   0
  -9   0  -3    6.73    2.43   0
  -9   0  -3  -18.60    1.90   0
 -10   0  -3  -13.33    1.51   0
 -10   0  -3   -6.71    1.98   0
 -11   1   3   49.76    2.61   0
 -11   1   3   -7.06    1.88   0
 -10   1   3    0.29    1.98   0
 -10   1   3    0.34    2.03   0
  -9   1   3    7.30    2.33   0
  -9   1   3    6.55    1.81   0
  -8   1   3   24.53    1.82   0
  -8   1   3   26.51    2.38   0
  -7   1   3  121.95    5.05   0
  -6   1   3  226.63    5.49   0
   6  -1  -3  226.70    5.02   0
  -5   1   3  175.03    4.52   0
   5  -1  -3  114.11    5.13   0
  -4   1   3   18.53    1.60   0
   4  -1  -3   18.87    1.67   0
  -3   1   3  242.97    4.70   0
   3  -1  -3  243.22    5.06   0
  -2   1   3  242.35    5.38   0
   2  -1  -3  242.38    5.29   0
  -1   1   3   32.39    2.05   0
   1  -1  -3   32.31    1.82   0
   0   1   3   22.09    1.66   0
   0  -1  -3   21.94    2.03   0
   1   1   3   62.33    2.80   0
  -1  -1  -3   43.02    3.23   0
   2   1   3   27.86    2.94   0
  -2  -1  -3   41.59    2.64   0
   3   1   3   15.36    2.43   0
  -3  -1  -3   15.20    1.60   0
   4   1   3    4.75    1.57   0
  -4  -1  -3    4.81    1.95   0
   5   1   3  107.33    5.07   0
  -5  -1  -3  106.68    4.68   0
   6   1   3   67.18    3.64   0
  -6  -1  -3   67.16    3.50   0
   7   1   3   -8.68    2.32   0
  -7  -1  -3    1.63    2.29   0
   8   1   3    0.59    2.20   0
  -9  -1  -3   -2.95    1.87   0
  -9  -1  -3  -11.44    1.94   0
 -10  -1  -3    1.74    1.53   0
 -10  -1  -3    1.80    1.90   0
 -12   2   3    7.67    2.19   0
 -12   2   3    7.82    2.35   0
 -11   2   3   21.47    2.57   0
 -11   2   3   20.92    2.76   0
 -10   2   3   11.90    1.69   0
 -10   2   3   11.80    2.25   0
  -9   2   3   35.33    3.09   0
  -9   2   3   34.53    3.26   0
  -8   2   3   82.02    3.81   0
  -7   2   3  145.73    4.70   0
   7  -2  -3    7.53    1.97   0
  -6   2   3   48.82    3.02   0
   6  -2  -3   48.90    2.03   0
  -5   2   3   35.81    2.76   0
   5  -2  -3  -44.53    3.01   0
  -4   2   3  608.59    6.07   0
   4  -2  -3  608.70    6.04   0
  -3   2   3  335.57    5.37   0
   3  -2  -3  277.77    5.47   0
  -2   2   3  156.95    5.11   0
   2  -2  -3  157.11    4.15   0
  -1   2   3   30.30    2.50   0
   1  -2  -3   30.26    2.89   0
   0   2   3 1321.89   13.22   0
   0  -2  -3 1321.98   12.98   0
   1   2   3   44.33    3.39   0
   1   2   3   43.92    2.96   0
  -1  -2  -3   44.13    3.03   0
  -1  -2  -3   44.44    3.45   0
   2   2   3   67.97    2.57   0
  -2  -2  -3   67.79    3.29   0
  -3  -2  -3   56.52    2.53   0
  -3  -2  -3   59.18    3.26   0
   4   2   3   49.41    2.90   0
  -4  -2  -3   49.38    2.65   0
   5   2   3   29.24    2.43   0
  -5  -2  -3   28.51    2.35   0
   6   2   3   11.17    1.92   0
  -6  -2  -3   11.41    1.75   0
   7   2   3    5.55    2.04   0
  -7  -2  -3    5.56    1.95   0
  -8  -2  -3   25.73    2.39   0
  -8  -2  -3   26.47    1.90   0
  -9  -2  -3    7.13    2.40   0
  -9  -2  -3    3.71    2.36   0
 -10  -2  -3    5.35    2.49   0
 -10  -2  -3    5.27    2.08   0
 -11   3   3   61.42    3.40   0
 -11   3   3   60.75    2.68   0
 -10   3   3   62.80    3.60   0
 -10   3   3   63.47    4.12   0
  -9   3   3   18.55    2.34   0
  -8   3   3   24.59    3.53   0
   8  -3  -3   26.06    3.13   0
  -7   3   3   85.90    2.82   0
   7  -3  -3   58.16    3.06   0
  -6   3   3   12.54    2.12   0
   6  -3  -3   12.82    1.94   0
  -5   3   3  351.85    6.67   0
   5  -3  -3  351.65    6.56   0
  -4   3   3  234.02    5.55   0
   4  -3  -3  234.16    5.97   0
  -3   3   3  322.14    6.56   0
   3  -3  -3  321.66    7.35   0
  -2   3   3  261.92    5.94   0
  -2   3   3  261.97    6.38   0
  -1   3   3  246.50    5.90   0
   1  -3  -3  246.78    5.98   0
   0   3   3  959.03    5.50   0
   0  -3  -3  717.83    5.56   0
   1   3   3  333.12    5.78   0
   1   3   3  332.62    6.31   0
  -1  -3  -3  332.67    5.81   0
   2   3   3  153.49    5.37   0
  -2  -3  -3  162.69    4.91   0
  -2  -3  -3  141.68    5.49   0
   3   3   3   13.89    1.52   0
  -3  -3  -3   14.19    1.87   0
  -3  -3  -3   13.91    2.16   0
   4   3   3   66.84    4.48   0
  -4  -3  -3   67.19    3.80   0
   5   3   3    5.36    6.91   0
  -5  -3  -3    0.27    8.98   0
   6   3   3   -1.91    9.86   0
  -6  -3  -3   -5.15   12.69   0
   7   3   3    2.41    8.96   0
  -7  -3  -3    6.93   15.49   0
   8   3   3   61.72    4.47   0
  -8  -3  -3   61.70    3.81   0
   9   3   3   12.03    1.92   0
  -9  -3  -3   11.91    1.93   0
 -11   4   3   12.43    3.18   0
 -11   4   3   12.36    3.07   0
 -10   4   3    0.60    1.94   0
 -10   4   3    0.64    2.46   0
  -9   4   3   55.13    2.66   0
   9  -4  -3   54.59    2.63   0
  -8   4   3  459.99    5.10   0
   8  -4  -3  279.39    4.98   0
  -7   4   3  155.41    4.97   0
   7  -4  -3   91.25    3.62   0
  -6   4   3  -20.29    2.01   0
   6  -4  -3    5.23    1.71   0
  -5   4   3  168.40    5.82   0
   5  -4  -3  167.98    5.88   0
  -4   4   3   11.89    2.07   0
   4  -4  -3   33.38    2.31   0
  -3   4   3  164.62    6.36   0
   3  -4  -3  164.70    5.71   0
  -2   4   3   35.33    2.79   0
   2  -4  -3   34.83    2.60   0
  -1   4   3 1129.76   11.62   0
   1  -4  -3 1129.78   12.47   0
   0   4   3 3548.54   13.88   0
   0  -4  -3 3549.47   14.28   0
   1   4   3  877.60    6.88   0
   1   4   3  877.84    6.62   0
  -1  -4  -3  877.80    7.10   0
   2   4   3   12.02    2.03   0
   2   4   3   21.77    2.01   0
  -2  -4  -3   23.37    3.00   0
  -2  -4  -3   31.06    2.66   0
   3   4   3   17.10    2.53   0
   3   4   3   43.39    3.22   0
  -3  -4  -3   38.62    2.81   0
  -3  -4  -3   13.90    3.13   0
   4   4   3   17.08    1.86   0
  -4  -4  -3   17.20    1.50   0
   5   4   3  102.78    4.59   0
  -5  -4  -3  102.88    5.20   0
  -6  -4  -3   -5.03    1.92   0
  -6  -4  -3   -6.53    2.32   0
   7   4   3   16.23    2.35   0
  -7  -4  -3   16.06    2.32   0
   8   4   3   65.03    2.61   0
  -8  -4  -3   65.28    3.34   0
   9   4   3   12.75    2.33   0
  -9  -4  -3   13.11    2.17   0
 -11   5   3   -0.21    1.97   0
 -11   5   3   16.63    2.08   0
 -11   5   3    5.89    2.38   0
 -10   5   3   23.56    1.54   0
 -10   5   3   24.40    2.03   0
  -9   5   3    9.02    3.41   0
   9  -5  -3    9.45    2.60   0
  -8   5   3  369.25    4.99   0
  -8   5   3  369.04    5.10   0
  -7   5   3  191.04    4.86   0
   7  -5  -3  191.36    4.61   0
  -6   5   3    1.16    1.56   0
  -6   5   3    1.20    1.54   0
   6  -5  -3    1.24    1.87   0
  -5   5   3   19.28    1.66   0
   5  -5  -3   19.11    1.88   0
  -4   5   3   -0.82    2.18   0
   4  -5  -3   23.42    2.29   0
  -3   5   3  268.48    5.40   0
  -3   5   3  267.98    5.35   0
  -2   5   3   28.89    2.22   0
   2  -5  -3   28.63    2.41   0
  -1   5   3  248.92    4.60   0
  -1   5   3  222.44    4.68   0
   1  -5  -3  251.94    5.12   0
   0   5   3  424.29    4.65   0
   0  -5  -3  423.55    5.04   0
   1   5   3  277.96    4.92   0
  -1  -5  -3  296.19    5.00   0
  -1  -5  -3  299.77    4.81   0
   2   5   3    0.13    2.34   0
   2   5   3    0.11    2.34   0
  -2  -5  -3    0.17    2.48   0
  -2  -5  -3    0.15    1.51   0
   3   5   3    7.25    1.60   0
   3   5   3    2.42    1.57   0
  -3  -5  -3   16.59    1.52   0
  -3  -5  -3   -6.60    1.79   0
   4   5   3   74.61    3.90   0
  -4  -5  -3   75.40    3.59   0
  -5  -5  -3    6.48    2.49   0
  -5  -5  -3   -1.66    2.11   0
   6   5   3   14.94    1.50   0
  -6  -5  -3   -3.23    1.82   0
   7   5   3   25.49    2.75   0
  -7  -5  -3   31.41    1.99   0
   8   5   3    3.06    1.91   0
  -8  -5  -3    2.93    2.07   0
 -11   6   3    2.11    1.65   0
 -11   6   3  -25.53    2.02   0
 -10   6   3    0.80    1.67   0
  10  -6  -3    0.83    2.05   0
  -9   6   3   29.21    2.21   0
   9  -6  -3   38.97    1.53   0
  -8   6   3  203.38    5.89   0
  -8   6   3  203.19    5.89   0
  -7   6   3  242.69    5.82   0
   7  -6  -3  242.68    5.99   0
  -6   6   3  -22.50    1.83   0
   6  -6  -3  -13.59    2.00   0
  -5   6   3  188.44    5.02   0
  -5   6   3  173.34    5.12   0
  -4   6   3  143.25    5.17   0
   4  -6  -3  142.56    4.85   0
  -3   6   3   13.59   15.39   0
   3  -6  -3   41.31   15.11   0
  -2   6   3   57.31   16.23   0
  -2   6   3   57.91   14.17   0
   2  -6  -3   38.57   11.08   0
  -1   6   3  293.88    5.09   0
   1  -6  -3  294.43    4.62   0
   1  -6  -3  294.00    5.40   0
   0   6   3  109.01    4.50   0
   0   6   3  108.81    4.57   0
   0  -6  -3  109.47    5.10   0
   0  -6  -3  109.09    4.73   0
   1   6   3   99.54    5.03   0
  -1  -6  -3  100.03    5.37   0
   2   6   3   40.32    2.84   0
  -2  -6  -3   39.77    2.82   0
  -2  -6  -3   39.64    3.18   0
   3   6   3    3.08    1.66   0
   3   6   3    2.65    2.31   0
  -3  -6  -3    2.65    2.19   0
  -3  -6  -3    2.60    2.30   0
   4   6   3  197.23    5.14   0
  -4  -6  -3  117.93    4.53   0
  -4  -6  -3  275.32    4.91   0
   5   6   3   47.05    3.32   0
  -5  -6  -3   47.28    2.96   0
   6   6   3   26.81    2.25   0
  -6  -6  -3   19.51    1.55   0
  -6  -6  -3   22.86    1.52   0
   7   6   3   45.51    3.00   0
  -7  -6  -3   66.51    2.87   0
   8   6   3   -0.58    4.38   0
  -8  -6  -3   10.60    2.38   0
 -11   7   3    9.00    2.00   0
 -11   7   3  -33.71    1.82   0
 -10   7   3   -5.10    2.23   0
 -10   7   3   -2.79    2.14   0
  -9   7   3   62.31    2.59   0
   9  -7  -3   52.62    2.97   0
  -8   7   3    0.67    1.77   0
   8  -7  -3    0.71    2.39   0
  -7   7   3    8.83    1.83   0
   7  -7  -3    8.51    2.16   0
  -6   7   3  202.64    5.30   0
   6  -7  -3  202.82    4.83   0
  -5   7   3 1247.92   11.91   0
  -5   7   3 1247.96   11.91   0
  -4   7   3 1007.70   11.08   0
  -4   7   3 1008.00   10.65   0
   4  -7  -3 1008.18   11.44   0
  -3   7   3  234.38    5.22   0
  -3   7   3  234.45    4.50   0
  -2   7   3   36.63    2.53   0
   2  -7  -3   37.46    3.39   0
   2  -7  -3   36.85    3.23   0
  -1   7   3   43.47    3.48   0
   1  -7  -3   43.17    2.73   0
   1  -7  -3   43.01    3.11   0
   0   7   3   39.12    2.87   0
   0  -7  -3   38.59    3.14   0
   0  -7  -3   38.82    2.53   0
   1   7   3   15.40    2.37   0
   1   7   3    8.40    2.21   0
  -1  -7  -3    0.48    2.41   0
   2   7   3  125.31    4.58   0
  -2  -7  -3  124.56    5.17   0
   3   7   3 1073.69    9.79   0
   3   7   3 1073.88   10.37   0
   4   7   3  332.07    4.65   0
  -4  -7  -3  331.76    4.72   0
  -4  -7  -3  331.84    4.62   0
   5   7   3   63.67    3.85   0
  -5  -7  -3   64.13    3.69   0
   6   7   3   14.08    2.29   0
  -6  -7  -3   12.86    2.22   0
   7   7   3    8.93    1.53   0
  -7  -7  -3    8.76    1.75   0
 -10   8   3   31.28    2.62   0
  10  -8  -3   30.77    2.65   0
  -9   8   3   82.04    4.47   0
  -9   8   3   81.81    3.61   0
   9  -8  -3   81.81    4.37   0
  -8   8   3   94.95    4.63   0
   8  -8  -3   95.32    4.82   0
  -7   8   3   21.99    1.69   0
   7  -8  -3   22.28    1.53   0
  -6   8   3   68.13    3.94   0
   6  -8  -3   67.97    4.12   0
  -5   8   3   11.43    1.80   0
  -5   8   3   10.65    1.60   0
   5  -8  -3   10.91    2.42   0
  -4   8   3  207.78    6.27   0
   4  -8  -3  200.52    5.52   0
  -3   8   3  169.93    5.28   0
  -3   8   3  195.61    4.78   0
   3  -8  -3  309.38    4.65   0
  -2   8   3   71.26    4.05   0
   2  -8  -3   70.56    3.77   0
  -1   8   3 1051.83   12.11   0
   1  -8  -3 1050.09   12.27   0
   0   8   3  383.91    5.96   0
   0  -8  -3  383.93    5.77   0
   1   8   3    8.57    2.39   0
   1   8   3    9.29    2.05   0
  -1  -8  -3    9.34    1.92   0
  -1  -8  -3    9.45    2.01   0
   2   8   3  409.87    5.26   0
  -2  -8  -3  476.15    5.31   0
   3   8   3   48.04    3.29   0
   3   8   3   47.58    3.11   0
  -3  -8  -3   47.98    3.47   0
   4   8   3   13.18    2.16   0
  -4  -8  -3   13.24    1.59   0
  -4  -8  -3   12.88    1.87   0
   5   8   3   54.94    3.84   0
  -5  -8  -3   55.08    4.39   0
   6   8   3   -8.17    1.89   0
  -6  -8  -3  -13.49    2.49   0
  -7  -8  -3  109.69    4.90   0
  -7  -8  -3  110.31    4.57   0
  -9   9   3   67.47    2.83   0
  -9   9   3   67.32    2.63   0
   9  -9  -3   67.42    3.02   0
  -8   9   3   35.60    3.11   0
   8  -9  -3   43.41    3.34   0
  -7   9   3    3.10    2.12   0
   7  -9  -3    3.28    2.45   0
  -6   9   3   45.00    1.95   0
   6  -9  -3   35.19    2.25   0
  -5   9   3  274.07    5.75   0
  -5   9   3  273.73    5.52   0
  -4   9   3    7.44    2.19   0
  -4   9   3    7.32    1.72   0
  -3   9   3  -20.91    1.88   0
  -3   9   3  -32.76    1.63   0
   3  -9  -3   16.80    1.64   0
  -2   9   3    2.51    1.76   0
   2  -9  -3   30.61    2.12   0
  -1   9   3   27.35    2.29   0
   1  -9  -3   11.61    1.62   0
   0   9   3    2.76    2.10   0
   0   9   3    9.07    1.61   0
   0  -9  -3    6.05    2.10   0
   1   9   3    6.50    2.19   0
  -1  -9  -3   10.37    2.12   0
   2   9   3   80.28    2.82   0
   2   9   3   79.84    2.67   0
  -2  -9  -3   79.50    2.95   0
   3   9   3  112.29    5.09   0
  -3  -9  -3  112.34    4.62   0
   4   9   3   -6.70    1.52   0
   4   9   3   15.01    1.53   0
  -4  -9  -3    3.74    1.86   0
  -4  -9  -3    4.74    2.15   0
   5   9   3    1.21    2.40   0
  -5  -9  -3    1.20    2.14   0
  -6  -9  -3    4.67    1.67   0
  -6  -9  -3   -3.96    1.79   0
  -9  10   3  112.66    4.53   0
  -9  10   3   51.63    2.27   0
   9 -10  -3  166.24    4.57   0
  -8  10   3    8.08    1.54   0
   8 -10  -3    0.16    2.39   0
  -7  10   3    2.51    2.41   0
  -7  10   3    3.16    2.22   0
  -6  10   3   52.06    3.73   0
  -6  10   3   52.46    3.71   0
  -5  10   3   92.95    3.68   0
   5 -10  -3   92.71    4.10   0
  -4  10   3    4.82    1.92   0
  -4  10   3    4.75    2.17   0
  -3  10   3   47.69    4.15   0
   3 -10  -3   47.53    3.84   0
  -2  10   3  232.47    6.05   0
  -2  10   3  232.03    5.94   0
   2 -10  -3  232.03    6.02   0
   2 -10  -3  232.18    5.65   0
  -1  10   3  639.24    8.14   0
   1 -10  -3  638.79    8.01   0
   0  10   3   78.06    4.48   0
   0  10   3   78.33    3.64   0
   0 -10  -3   77.63    4.13   0
   1  10   3    0.64    2.47   0
  -1 -10  -3    0.73    2.39   0
  -1 -10  -3    0.71    1.52   0
   2  10   3    7.11    1.93   0
  -2 -10  -3    7.12    2.18   0
   3  10   3   29.89    2.36   0
   3  10   3   30.53    2.24   0
  -3 -10  -3   24.97    1.80   0
   4  10   3   11.68    1.68   0
   4  10   3   12.40    2.10   0
  -4 -10  -3   11.74    2.03   0
  -4 -10  -3   12.13    1.82   0
   5  10   3   10.84    1.82   0
  -5 -10  -3    4.72    1.75   0
  -8  11   3   23.43    1.75   0
   8 -11  -3   26.04    1.84   0
  -7  11   3   -2.12    1.99   0
   7 -11  -3    4.79    2.06   0
  -6  11   3  102.12    4.52   0
  -6  11   3   96.22    5.39   0
  -5  11   3  387.60    4.83   0
   5 -11  -3  388.26    5.40   0
  -4  11   3  107.18    5.13   0
   4 -11  -3  106.86    4.61   0
  -3  11   3  -19.11    2.17   0
  -3  11   3  -12.21    1.90   0
   3 -11  -3   21.96    1.83   0
   3 -11  -3   28.96    1.68   0
  -2  11   3    7.86    1.88   0
   2 -11  -3    8.00    1.63   0
  -1  11   3   31.14    2.51   0
   1 -11  -3   31.26    2.97   0
   0  11   3    0.94    1.76   0
   0  11   3    0.86    2.43   0
   1  11   3  -10.29    1.84   0
  -1 -11  -3    3.41    1.51   0
  -1 -11  -3  -14.20    1.50   0
   2  11   3   83.86    3.52   0
  -2 -11  -3   84.05    3.93   0
  -2 -11  -3   83.50    3.71   0
   3  11   3  195.11    4.77   0
   3  11   3  208.79    5.37   0
  -3 -11  -3  202.83    5.24   0
  -6  12   3   15.76    1.55   0
   6 -12  -3   15.73    1.56   0
  -5  12   3   32.92    3.01   0
   5 -12  -3   32.59    2.83   0
  -4  12   3   -1.53   10.39   0
   4 -12  -3   -8.31   10.26   0
  -3  12   3   44.46    8.92   0
  -3  12   3   59.15   10.50   0
  -2  12   3   39.14   10.46   0
   2 -12  -3   47.31   10.30   0
  -1  12   3    7.78    2.01   0
   1 -12  -3    7.51    1.55   0
   0  12   3   -5.03    2.10   0
   0 -12  -3   22.29    1.92   0
   1  12   3   12.16    2.39   0
   1  12   3   21.09    2.23   0
  -3 -12   4   31.19    2.67   0
   3  12  -4   31.30    2.83   0
   3  12  -4   30.56    3.11   0
  -2 -12   4  162.21    4.53   0
  -2 -12   4  162.42    5.07   0
   2  12  -4  161.62    4.84   0
   2  12  -4  162.29    5.36   0
  -1 -12   4   14.18    1.59   0
   1  12  -4   14.34    1.71   0
   0 -12   4    0.01    2.11   0
   0  12  -4    0.02    2.39   0
   1 -12   4    3.01    2.44   0
   1 -12   4    3.20    2.03   0
  -1  12  -4   12.97    1.94   0
   2 -12   4    6.39    1.74   0
   2 -12   4    5.97    1.59   0
  -2  12  -4    5.67    2.35   0
   3 -12   4    9.21    1.95   0
   3 -12   4   -1.62    1.59   0
  -3  12  -4    6.23    2.30   0
  -3  12  -4    4.05    2.48   0
   4 -12   4    0.57    2.15   0
  -4  12  -4    0.61    1.91   0
  -4 -11   4    2.91    1.68   0
  -4 -11   4    3.19    1.93   0
  -3 -11   4  102.55    5.09   0
  -3 -11   4  103.33    4.71   0
   3  11  -4  212.89    9.21   0
  -2 -11   4  246.98    4.85   0
   2  11  -4  246.93    5.21   0
  -1 -11   4   62.94    3.14   0
   1  11  -4   63.46    3.13   0
   1  11  -4   62.65    2.72   0
   0 -11   4   16.32    2.46   0
   0  11  -4    9.70    2.39   0
   0  11  -4   13.50    1.89   0
   1 -11   4   63.46    3.44   0
   1 -11   4   63.07    3.05   0
  -1  11  -4   62.78    2.62   0
   2 -11   4   16.66    9.48   0
   2 -11   4   26.54   13.00   0
  -2  11  -4   14.76   25.41   0
  -2  11  -4   17.66   10.09   0
   3 -11   4   58.19   16.09   0
  -3  11  -4   81.11   29.48   0
  -3  11  -4   59.33    8.94   0
   4 -11   4   19.22    7.71   0
  -4  11  -4    2.14   26.88   0
  -4  11  -4    9.97   31.02   0
   5 -11   4   34.43    7.76   0
  -5  11  -4   31.61   30.72   0
  -5  11  -4   18.28   10.27   0
  -5  11  -4   25.80   19.81   0
  -6  11  -4   38.57   25.59   0
  -6  11  -4   32.89   14.41   0
  -6 -10   4    1.37    1.66   0
  -6 -10   4    1.38    1.82   0
  -5 -10   4    1.49    1.73   0
  -5 -10   4    1.46    2.05   0
  -4 -10   4    5.47    1.79   0
  -4 -10   4    4.81    2.25   0
  -3 -10   4   12.72    2.06   0
   3  10  -4   13.38    1.51   0
  -2 -10   4   16.39    1.73   0
   2  10  -4   15.89    2.39   0
   2  10  -4   16.26    1.69   0
  -1 -10   4    4.61    2.21   0
   1  10  -4   -7.49    1.80   0
   1  10  -4   -0.42    1.59   0
   0 -10   4   91.16    4.73   0
   0  10  -4   91.12    4.71   0
   1 -10   4   52.18    3.06   0
   1 -10   4   52.40    2.63   0
  -1  10  -4   51.68    2.88   0
   2 -10   4   26.54    1.50   0
  -2  10  -4   26.90    2.14   0
  -2  10  -4   27.39    2.16   0
   3 -10   4   13.31    2.07   0
  -3  10  -4   12.58    2.44   0
  -3  10  -4   13.13    2.12   0
   4 -10   4   17.71    2.26   0
  -4  10  -4   17.95    1.58   0
  -4  10  -4   18.48    2.36   0
  -4  10  -4   17.76    1.51   0
   5 -10   4    4.47    1.95   0
  -5  10  -4    4.15    2.28   0
  -5  10  -4    4.05    2.02   0
   6 -10   4    5.89    2.35   0
  -6  10  -4    6.14    2.27   0
  -7  10  -4   -9.01    2.37   0
  -7  10  -4    4.31    1.90   0
  -7  -9   4    6.85    1.59   0
  -7  -9   4    6.66    2.44   0
  -6  -9   4   36.23    2.96   0
  -6  -9   4   14.88    3.41   0
  -5  -9   4   -9.54    1.51   0
  -5  -9   4   -2.92    1.97   0
  -4  -9   4    3.84    1.60   0
   4   9  -4    3.99    1.51   0
  -3  -9   4    9.83    2.30   0
  -3  -9   4   10.07    2.47   0
   3   9  -4   20.13    1.53   0
  -2  -9   4   90.49    4.09   0
  -2  -9   4   89.11    4.15   0
   2   9  -4   90.16    4.20   0
  -1  -9   4   34.53    3.07   0
   1   9  -4   33.54    2.55   0
   0  -9   4  216.27    6.45   0
   0  -9   4  216.30    6.15   0
   0   9  -4  215.87    6.42   0
   0   9  -4  215.63    5.91   0
   1  -9   4  448.41    7.95   0
   1  -9   4  447.78    7.90   0
   2  -9   4  385.92    6.63   0
  -2   9  -4  385.98    6.84   0
  -2   9  -4  386.19    7.13   0
   3  -9   4   65.09    2.85   0
  -3   9  -4   64.92    3.42   0
  -3   9  -4   65.15    2.80   0
   4  -9   4    1.78    2.32   0
  -4   9  -4    1.73    1.72   0
  -4   9  -4    1.74    2.49   0
   5  -9   4   -3.18    1.89   0
  -5   9  -4   -8.82    2.36   0
  -5   9  -4    4.13    2.14   0
  -6   9  -4    8.90    2.27   0
  -6   9  -4   16.67    1.53   0
  -6   9  -4   14.95    2.35   0
  -7   9  -4   17.85    2.08   0
  -7   9  -4   -1.79    1.55   0
  -7   9  -4    8.77    1.86   0
   8  -9   4    9.09    2.02   0
  -8   9  -4    9.48    1.73   0
  -8   9  -4    8.70    1.81   0
  -8  -8   4   16.45    2.43   0
  -8  -8   4    9.15    1.69   0
  -7  -8   4   50.05    3.13   0
  -7  -8   4   50.48    3.21   0
  -6  -8   4    0.68    2.20   0
  -6  -8   4    0.64    1.54   0
  -5  -8   4   -0.70    2.42   0
  -5  -8   4   -7.71    1.52   0
  -4  -8   4    1.26    1.90   0
  -4  -8   4    1.28    1.75   0
   4   8  -4    1.28    1.80   0
   3   8  -4   64.38    4.44   0
   3   8  -4   65.42    4.07   0
  -2  -8   4   59.43    3.83   0
  -2  -8   4   59.39    4.04   0
   2   8  -4   58.77    3.53   0
  -1  -8   4   18.32    2.27   0
   1   8  -4   17.51    2.14   0
   1   8  -4   17.96    1.96   0
   0  -8   4   26.57    2.41   0
   0   8  -4   27.30    2.04   0
   1  -8   4   99.25    2.85   0
  -1   8  -4   80.20    3.09   0
   2  -8   4   42.37    2.79   0
   2  -8   4   42.14    3.14   0
  -2   8  -4   41.77    3.08   0
   3  -8   4   10.12    2.31   0
  -3   8  -4   10.18    1.68   0
  -3   8  -4   10.13    2.47   0
  -3   8  -4    9.90    2.14   0
  -4   8  -4   60.01    3.50   0
  -4   8  -4   60.34    3.51   0
  -5   8  -4  124.15    5.39   0
  -5   8  -4  146.35    5.24   0
  -6   8  -4   34.41    3.01   0
  -6   8  -4   34.24    3.29   0
  -6   8  -4   33.79    2.92   0
  -7   8  -4    0.26    2.32   0
  -7   8  -4    0.19    2.31   0
  -7   8  -4    0.22    2.39   0
  -8   8  -4    0.37    1.92   0
  -8   8  -4    0.35    2.27   0
  -9  -7   4    8.05    1.88   0
  -9  -7   4   12.27    2.34   0
  -8  -7   4   -1.87    1.58   0
  -8  -7   4   -3.58    1.91   0
  -7  -7   4   10.20    2.31   0
  -7  -7   4   10.21    1.50   0
  -7  -7   4    9.76    2.04   0
  -6  -7   4    0.18    1.73   0
  -6  -7   4    0.23    2.12   0
  -5  -7   4   22.57    1.96   0
  -5  -7   4   22.67    2.26   0
  -4  -7   4   13.92    2.16   0
   4   7  -4   14.24    2.43   0
  -3  -7   4    2.73    1.85   0
  -3  -7   4    3.17    2.16   0
   3   7  -4    3.48    2.16   0
  -2  -7   4  115.95    5.18   0
   2   7  -4  115.77    5.25   0
  -1  -7   4   88.68    4.17   0
   1   7  -4   89.09    3.99   0
   0  -7   4   87.54    2.95   0
   0  -7   4   88.04    2.72   0
   0   7  -4   88.26    3.38   0
   1  -7   4  128.05    4.86   0
  -1   7  -4  128.10    5.49   0
   2  -7   4   -0.55    2.03   0
  -2   7  -4   21.03    2.27   0
  -3   7  -4    7.31    2.27   0
  -3   7  -4   -0.92    1.79   0
   4  -7   4   42.14    3.76   0
  -4   7  -4   41.58    3.92   0
  -4   7  -4   42.12    3.87   0
   5  -7   4   16.16    2.04   0
  -5   7  -4   15.81    1.91   0
  -6   7  -4   29.30    1.90   0
  -6   7  -4   25.65    1.50   0
  -6   7  -4   18.94    1.58   0
  -7   7  -4   17.37    2.28   0
  -7   7  -4   -1.57    2.25   0
   8  -7   4   16.20    1.77   0
  -8   7  -4   15.98    1.88   0
   9  -7   4    0.22    2.45   0
  -9   7  -4    0.22    2.21   0
  -9  -6   4    1.76    1.57   0
  -9  -6   4  -12.26    2.13   0
  -8  -6   4   10.83    3.20   0
  -8  -6   4   11.46    2.60   0
  -7  -6   4   62.44    3.86   0
  -7  -6   4   62.13    3.86   0
  -6  -6   4   12.97    2.15   0
  -6  -6   4   12.83    2.38   0
  -5  -6   4   12.34    2.09   0
  -5  -6   4   12.38    1.81   0
  -4  -6   4  206.88    5.65   0
  -4  -6   4  206.97    5.61   0
  -3  -6   4  134.96    5.20   0
  -3  -6   4  135.45    4.78   0
  -2  -6   4   27.99    2.35   0
   2   6  -4   28.27    2.01   0
  -1  -6   4    9.43    2.20   0
   1   6  -4    8.59    1.61   0
   0  -6   4   18.56    2.24   0
   0   6  -4   19.14    1.51   0
   1  -6   4  207.98    4.76   0
  -1   6  -4  140.06    4.62   0
   2  -6   4   91.07    3.76   0
  -2   6  -4   87.27    3.49   0
   3  -6   4    0.33    2.05   0
  -3   6  -4    0.31    1.95   0
  -3   6  -4    0.36    2.00   0
  -3   6  -4    0.26    1.68   0
   4  -6   4  311.22    6.20   0
  -4   6  -4  216.07    6.43   0
  -4   6  -4  311.43    6.23   0
   5  -6   4  392.12    6.35   0
  -5   6  -4  391.63    6.49   0
  -6   6  -4  102.46    5.46   0
  -6   6  -4  106.41    4.91   0
  -7   6  -4  -24.32    2.03   0
  -7   6  -4  -12.68    1.71   0
   8  -6   4    7.14    2.04   0
  -8   6  -4    7.34    2.28   0
  -9   6  -4   -3.86    1.75   0
  -9   6  -4   11.43    1.77   0
 -10  -5   4    4.36    1.81   0
 -10  -5   4    3.61    2.02   0
  -9  -5   4  -24.07    1.91   0
  -9  -5   4  -44.43    2.44   0
  -8  -5   4    3.59    2.22   0
  -8  -5   4    3.73    1.94   0
  -7  -5   4   77.79    4.01   0
  -7  -5   4   65.52    3.99   0
  -7  -5   4   73.11    3.62   0
  -6  -5   4  124.92    5.38   0
  -6  -5   4  124.69    4.87   0
  -5  -5   4   33.58    3.22   0
  -5  -5   4   33.79    3.14   0
  -4  -5   4  -11.13    1.82   0
  -4  -5   4  -20.92    2.13   0
  -3  -5   4   78.44    4.15   0
  -3  -5   4   78.46    4.08   0
  -3  -5   4   78.33    3.59   0
   3   5  -4   78.11    4.06   0
  -2  -5   4   81.78    4.32   0
   2   5  -4   82.25    4.32   0
  -1  -5   4  269.95    6.07   0
  -1  -5   4  270.11    5.50   0
   0  -5   4    3.95    2.26   0
   0  -5   4    3.83    1.78   0
   0   5  -4    4.42    2.24   0
   1  -5   4  650.62    7.24   0
  -1   5  -4  650.94    6.84   0
   2  -5   4  664.65    5.85   0
   2  -5   4  809.32    7.90   0
  -2   5  -4  664.59    5.83   0
   3  -5   4  127.33    5.01   0
  -3   5  -4  126.54    4.66   0
   4  -5   4   37.10    2.56   0
  -4   5  -4   18.73    2.84   0
  -4   5  -4   29.88    2.94   0
  -4   5  -4   24.18    3.01   0
   5  -5   4  203.59    5.73   0
  -5   5  -4  203.84    5.98   0
  -6   5  -4   58.41    2.57   0
  -6   5  -4   42.95    3.14   0
   7  -5   4   39.05    2.72   0
  -7   5  -4   39.07    2.71   0
  -7   5  -4   39.25    3.39   0
   8  -5   4   13.53    1.68   0
  -8   5  -4   13.61    1.85   0
  -8   5  -4   13.70    1.64   0
  -9   5  -4   37.90    3.89   0
  -9   5  -4   48.81    3.94   0
 -10  -4   4    6.00    1.87   0
 -10  -4   4    6.08    2.38   0
  -9  -4   4    5.66    1.68   0
  -9  -4   4    5.52    1.63   0
  -8  -4   4    0.77    2.13   0
  -8  -4   4    0.84    2.45   0
  -7  -4   4  116.09    5.11   0
  -7  -4   4  116.22    4.89   0
  -6  -4   4  164.55    4.91   0
  -6  -4   4  165.13    4.69   0
  -5  -4   4   12.60    2.39   0
  -5  -4   4   12.65    1.76   0
  -4  -4   4    1.40    2.38   0
  -4  -4   4   -6.79    1.95   0
  -4  -4   4  -11.45    2.18   0
  -3  -4   4  278.11    4.60   0
  -3  -4   4  377.67    4.58   0
  -2  -4   4   42.90    3.43   0
   2   4  -4   52.20    3.25   0
  -1  -4   4   25.96    2.96   0
  -1  -4   4   26.31    3.14   0
  -1  -4   4   25.99    3.27   0
   1   4  -4   26.01    3.47   0
   0  -4   4   39.53    2.93   0
   0   4  -4   40.16    3.33   0
   1  -4   4  841.30    8.37   0
  -1   4  -4  841.05    7.60   0
  -2   4  -4  388.35    6.08   0
  -2   4  -4  405.13    6.39   0
  -3   4  -4   47.42    2.55   0
  -3   4  -4   46.87    2.88   0
  -3   4  -4   47.12    2.53   0
   4  -4   4   42.04    2.53   0
  -4   4  -4   41.56    3.44   0
  -4   4  -4   42.18    3.18   0
  -5   4  -4    8.62    2.37   0
  -5   4  -4    9.01    2.38   0
  -6   4  -4   -8.66    2.43   0
  -6   4  -4  -26.20    1.76   0
  -7   4  -4    9.24    2.18   0
  -7   4  -4   -5.25    2.39   0
   8  -4   4   16.31    2.38   0
  -8   4  -4   15.56    1.83   0
  -9   4  -4   31.77    2.69   0
  -9   4  -4   32.35    3.33   0
 -10   4  -4   10.28    1.76   0
 -10   4  -4   19.22    1.77   0
 -11  -3   4   53.95    2.76   0
 -11  -3   4   51.31    3.46   0
 -10  -3   4   37.53    3.24   0
 -10  -3   4   65.77    3.33   0
  -9  -3   4    8.82    1.71   0
  -9  -3   4    9.35    1.84   0
  -8  -3   4   21.69    2.33   0
  -8  -3   4   28.61    2.47   0
  -7  -3   4   -6.08    1.72   0
  -7  -3   4    0.04    2.27   0
  -6  -3   4   41.90    2.44   0
  -6  -3   4   14.53    1.76   0
  -5  -3   4   30.28    2.27   0
  -5  -3   4   29.83    2.09   0
  -5  -3   4   30.31    1.82   0
  -4  -3   4   12.43    1.73   0
  -4  -3   4   11.98    2.42   0
  -3  -3   4 2279.33   20.61   0
  -3  -3   4 2279.04   21.35   0
  -2  -3   4 1284.75   12.40   0
  -2  -3   4 1285.12   12.09   0
  -1  -3   4  179.46    3.92   0
   1   3  -4  178.52    4.14   0
   0  -3   4   56.64    3.52   0
   0   3  -4   56.78    3.79   0
   1  -3   4  194.21    5.50   0
  -1   3  -4  194.01    6.27   0
   2  -3   4   53.69    2.96   0
  -2   3  -4   53.83    3.41   0
  -2   3  -4   53.72    3.29   0
  -3   3  -4   -0.10    2.21   0
  -3   3  -4   -1.59    1.54   0
  -3   3  -4  -10.15    1.82   0
  -4   3  -4   25.36    2.21   0
  -4   3  -4   25.39    1.85   0
  -4   3  -4   14.96    2.17   0
  -5   3  -4  257.12    4.80   0
  -5   3  -4  256.95    5.37   0
   6  -3   4  112.66    4.83   0
  -6   3  -4  113.21    5.12   0
  -7   3  -4   -1.32    2.13   0
  -7   3  -4  -12.22    2.32   0
   8  -3   4    0.05    1.70   0
  -8   3  -4    0.03    2.28   0
   9  -3   4   57.64    2.82   0
  -9   3  -4   58.37    2.74   0
 -10   3  -4   17.07    2.30   0
 -10   3  -4   16.53    1.79   0
 -11  -2   4   -8.42    1.73   0
 -11  -2   4   -2.17    1.52   0
 -10  -2   4   32.17    3.46   0
 -10  -2   4   21.89    3.35   0
  -9  -2   4    3.08    2.44   0
  -9  -2   4    3.76    1.89   0
  -8  -2   4  -42.81    2.11   0
  -8  -2   4   18.03    1.76   0
  -7  -2   4  132.41    4.83   0
  -7  -2   4  131.70    4.57   0
  -6  -2   4   28.29    1.82   0
  -6  -2   4    9.07    1.57   0
  -5  -2   4    1.40    2.14   0
  -5  -2   4   17.23    2.05   0
  -4  -2   4  388.42    4.59   0
  -4  -2   4  387.71    5.32   0
  -3  -2   4  534.63    5.15   0
   3   2  -4  500.02    4.64   0
  -2  -2   4   -3.39    2.27   0
   2   2  -4    4.39    1.97   0
  -1  -2   4   31.91    2.64   0
   1   2  -4   32.39    2.94   0
   1   2  -4   32.21    3.15   0
   0  -2   4  410.94    5.37   0
   0   2  -4  410.55    4.93   0
   0   2  -4  251.21    4.99   0
   1  -2   4  271.91    4.71   0
   1  -2   4  271.67    4.88   0
  -1   2  -4  271.79    4.71   0
   2  -2   4    9.17    1.79   0
  -2   2  -4   -4.85    1.57   0
   3  -2   4   31.65    2.60   0
  -3   2  -4   31.69    2.71   0
   4  -2   4  192.86    4.56   0
  -4   2  -4  192.84    5.40   0
  -5   2  -4  532.32    6.98   0
  -5   2  -4  531.56    6.89   0
   6  -2   4   97.18    4.80   0
  -6   2  -4   97.28    4.56   0
  -6   2  -4   96.58    5.38   0
  -7   2  -4   21.59    2.30   0
  -7   2  -4   32.72    2.51   0
  -8   2  -4   14.86    1.53   0
  -8   2  -4    6.49    2.19   0
   9  -2   4    0.47    1.70   0
  -9   2  -4    0.45    2.26   0
  10  -2   4    2.98    2.48   0
 -10   2  -4    2.61    1.92   0
 -11  -1   4   44.92    3.20   0
 -11  -1   4   79.33    1.58   0
 -10  -1   4   39.08    2.60   0
 -10  -1   4  102.35    5.14   0
  -9  -1   4   34.17    3.49   0
  -9  -1   4   34.40    2.59   0
  -8  -1   4    3.78    1.92   0
  -8  -1   4   22.88    2.41   0
  -7  -1   4   83.33    3.67   0
  -7  -1   4   82.67    3.74   0
  -6  -1   4  139.16    5.42   0
  -6  -1   4  164.72    5.18   0
  -5  -1   4  162.25    5.96   0
   5   1  -4  162.14    5.83   0
  -4  -1   4  429.92    5.35   0
   4   1  -4  429.63    5.22   0
  -3  -1   4  812.41    6.89   0
   3   1  -4  812.32    7.25   0
  -2  -1   4  425.91    5.30   0
   2   1  -4  426.35    5.44   0
  -1  -1   4 1173.49   10.70   0
   1   1  -4 1173.41   11.27   0
   0  -1   4  245.77    5.52   0
   0   1  -4  245.93    5.61   0
   1  -1   4   -0.66    1.80   0
  -1   1  -4    2.70    2.21   0
   2  -1   4   66.88    3.74   0
   2  -1   4   89.16    4.39   0
  -2   1  -4   49.19    4.30   0
  -2   1  -4   73.89    3.77   0
   3  -1   4   58.61    3.10   0
  -3   1  -4   59.08    3.19   0
  -3   1  -4   58.87    2.59   0
   4  -1   4  747.43    7.27   0
  -4   1  -4  746.87    6.88   0
   5  -1   4  266.66    6.35   0
  -5   1  -4  266.75    5.68   0
   6  -1   4   72.06    4.75   0
  -6   1  -4   71.56    4.71   0
   7  -1   4   19.19    2.24   0
  -7   1  -4   18.51    2.08   0
  -8   1  -4  -28.15    1.67   0
  -8   1  -4   -1.44    2.36   0
  -9   1  -4  -15.09    2.13   0
  -9   1  -4  -24.99    2.15   0
  10  -1   4    3.28    1.92   0
 -10   1  -4    3.13    2.37   0
 -11   0   4   -2.58    1.59   0
 -11   0   4  -21.54    2.33   0
 -10   0   4   15.41    2.32   0
 -10   0   4  -18.68    2.16   0
  -9   0   4    9.02    2.19   0
  -9   0   4    9.07    1.59   0
  -8   0   4  127.07    4.50   0
  -8   0   4  127.06    5.20   0
  -7   0   4 1392.23   10.75   0
  -6   0   4 1358.62   12.07   0
   6   0  -4 1359.40   11.50   0
  -5   0   4   -9.94    3.35   0
   5   0  -4    1.43    2.53   0
  -4   0   4   12.61    1.77   0
   4   0  -4   12.96    1.82   0
  -3   0   4  190.03    6.00   0
   3   0  -4  190.34    6.26   0
  -2   0   4  144.13    5.01   0
   2   0  -4  144.33    5.45   0
  -1   0   4  153.66    4.73   0
   1   0  -4  153.74    5.22   0
   0   0   4  574.46    5.73   0
   0   0  -4  574.15    5.84   0
   1   0   4 1967.90   12.41   0
  -1   0  -4 1968.21   12.22   0
   2   0   4 1628.81   13.35   0
  -2   0  -4 1628.96   12.78   0
   3   0   4  114.53    7.11   0
  -3   0  -4  115.78    7.29   0
  -3   0  -4  116.78    6.64   0
   4   0   4   29.93    2.62   0
  -4   0  -4   30.06    3.16   0
   5   0   4  168.16    5.23   0
  -5   0  -4  167.98    4.54   0
   6   0   4  171.41    4.53   0
  -6   0  -4  170.68    5.02   0
   7   0   4   34.09    3.23   0
  -7   0  -4   34.04    3.02   0
   8   0   4    6.24    2.36   0
  -8   0  -4    6.35    2.21   0
  -8   0  -4    6.36    2.40   0
  -9   0  -4   13.78    2.26   0
  -9   0  -4   13.53    1.55   0
  -9   0  -4  -17.63    1.68   0
  10   0   4    2.16    2.13   0
 -10   0  -4    2.06    2.39   0
 -10   0  -4    1.67    2.23   0
 -10   0  -4    1.87    1.78   0
 -12   1   4  -13.55    2.33   0
 -12   1   4   -9.47    2.10   0
 -11   1   4   41.89    3.14   0
 -11   1   4   80.68    2.99   0
 -10   1   4   14.08    2.11   0
 -10   1   4  -10.83    2.40   0
  -9   1   4   15.99    3.06   0
  -9   1   4   45.78    2.53   0
  -8   1   4   49.32    2.78   0
  -7   1   4   68.44    3.04   0
   7  -1  -4   77.65    3.39   0
  -6   1   4  374.53    7.20   0
   6  -1  -4  375.47    7.18   0
  -5   1   4    0.59    1.87   0
   5  -1  -4    0.57    1.80   0
  -4   1   4  319.55    6.27   0
   4  -1  -4  320.24    5.70   0
  -3   1   4 1202.23   11.80   0
   3  -1  -4 1201.80   12.49   0
  -2   1   4    1.53    3.26   0
   2  -1  -4    1.49    2.94   0
  -1   1   4 1576.01   11.24   0
   1  -1  -4 1506.72   11.19   0
   0   1   4    7.66    2.70   0
   0  -1  -4    7.99    2.67   0
   1   1   4  103.44    4.62   0
  -1  -1  -4  102.59    5.14   0
   2   1   4    0.59    2.29   0
  -2  -1  -4    0.65    2.07   0
   3   1   4    8.09    2.44   0
  -3  -1  -4   31.89    2.81   0
  -3  -1  -4   31.73    2.87   0
  -3  -1  -4    9.28    2.41   0
   4   1   4  609.05    6.13   0
  -4  -1  -4  608.71    6.08   0
   5   1   4  256.02    5.25   0
  -5  -1  -4  256.37    4.72   0
   6   1   4   16.00    1.70   0
  -6  -1  -4   15.74    2.32   0
   7   1   4    6.79    1.83   0
  -7  -1  -4    7.44    2.01   0
  -8  -1  -4    0.11    1.66   0
  -8  -1  -4    0.10    2.13   0
   9   1   4    6.52    2.49   0
  -9  -1  -4    6.95    2.31   0
  -9  -1  -4    6.98    1.66   0
 -12   2   4   25.03    1.51   0
 -12   2   4   24.59    1.61   0
 -11   2   4    8.38    2.08   0
 -11   2   4    8.58    2.36   0
 -10   2   4   36.96    3.00   0
 -10   2   4  -12.99    1.95   0
  -9   2   4   25.49    2.81   0
  -8   2   4   54.30    2.91   0
   8  -2  -4   33.43    2.97   0
  -7   2   4   72.05    4.24   0
   7  -2  -4   71.82    3.51   0
  -6   2   4    4.16    2.50   0
   6  -2  -4   33.39    2.71   0
  -5   2   4   43.63    2.92   0
   5  -2  -4   35.89    2.77   0
  -4   2   4 1207.31   11.66   0
   4  -2  -4 1125.08   12.01   0
  -3   2   4   30.94    2.79   0
   3  -2  -4   30.51    2.67   0
  -2   2   4   61.72    2.89   0
   2  -2  -4   70.82    3.16   0
  -1   2   4  232.24    5.34   0
   1  -2  -4  231.73    5.39   0
   0   2   4   15.96    2.79   0
   0  -2  -4   17.31    2.61   0
   1   2   4  162.80    5.29   0
   1   2   4  164.12    5.34   0
  -1  -2  -4  163.64    5.48   0
   2   2   4   14.15    2.23   0
  -2  -2  -4   13.89    1.74   0
   3   2   4   21.08    1.80   0
  -3  -2  -4   12.86    1.50   0
  -3  -2  -4   14.83    2.46   0
   4   2   4  585.64    7.09   0
  -4  -2  -4  586.47    6.90   0
   5   2   4   98.77    4.65   0
  -5  -2  -4   99.19    4.83   0
   6   2   4   42.82    2.96   0
  -6  -2  -4   43.03    3.04   0
   7   2   4    3.37    1.66   0
  -7  -2  -4    3.26    2.09   0
   8   2   4    5.10    2.03   0
  -8  -2  -4    5.36    2.21   0
  -9  -2  -4   -4.42    1.58   0
  -9  -2  -4    2.23    2.09   0
 -12   3   4  131.89    5.63   0
 -12   3   4  132.29    5.20   0
 -11   3   4   57.68    4.19   0
 -11   3   4   58.21    4.39   0
 -10   3   4    4.05    2.05   0
  -9   3   4   20.29    2.44   0
   9  -3  -4   20.14    2.21   0
  -8   3   4    0.42    1.71   0
   8  -3  -4    0.39    2.25   0
  -7   3   4   18.30    1.52   0
   7  -3  -4   18.21    2.05   0
  -6   3   4   26.51    2.36   0
   6  -3  -4   27.46    2.20   0
  -5   3   4   52.41    3.74   0
   5  -3  -4   52.23    4.28   0
  -4   3   4 1633.60   12.96   0
   4  -3  -4 1634.38   13.26   0
  -3   3   4 2191.04   21.08   0
   3  -3  -4 2190.50   20.66   0
  -2   3   4  124.01    5.46   0
   2  -3  -4  136.93    4.66   0
  -1   3   4    1.20    1.72   0
   1  -3  -4    1.21    2.40   0
   0   3   4  403.75    6.11   0
   0   3   4  403.73    5.75   0
   1   3   4   20.36    2.22   0
  -1  -3  -4   20.18    1.84   0
  -1  -3  -4   20.14    2.30   0
   2   3   4   11.24    2.01   0
   2   3   4   22.85    1.52   0
  -2  -3  -4   25.70    2.68   0
  -2  -3  -4   38.77    2.76   0
   3   3   4   32.37    2.53   0
  -3  -3  -4   31.16    3.15   0
   4   3   4  174.51    5.15   0
  -4  -3  -4  173.46    4.67   0
   5   3   4  165.54    5.11   0
  -5  -3  -4  158.82    4.54   0
   6   3   4    2.95    1.56   0
  -6  -3  -4    2.93    2.46   0
  -7  -3  -4    7.65    2.05   0
  -7  -3  -4    2.35    1.59   0
   8   3   4   36.70    2.70   0
  -8  -3  -4   37.04    3.02   0
   9   3   4   16.23    2.35   0
  -9  -3  -4   15.91    1.81   0
 -11   4   4    8.94    1.62   0
 -11   4   4  -18.34    2.21   0
 -10   4   4    3.28    2.10   0
  10  -4  -4    2.80    1.65   0
  -9   4   4    3.02    1.71   0
   9  -4  -4    3.28    2.11   0
  -8   4   4   67.89    4.36   0
   8  -4  -4   67.85    3.78   0
  -7   4   4  128.51    4.89   0
   7  -4  -4  128.99    5.13   0
  -6   4   4    4.98    1.64   0
   6  -4  -4    5.03    1.69   0
  -5   4   4   12.37    2.22   0
   5  -4  -4   12.20    1.68   0
  -4   4   4  359.39    6.32   0
   4  -4  -4  359.04    6.01   0
  -3   4   4   21.24    2.17   0
   3  -4  -4   21.22    2.21   0
  -2   4   4   26.02    2.46   0
   2  -4  -4   25.52    1.98   0
  -1   4   4  108.19    5.14   0
   1  -4  -4  107.89    4.56   0
   0   4   4  877.14    8.30   0
   0  -4  -4  877.26    8.00   0
   1   4   4  328.62    4.86   0
  -1  -4  -4  328.66    5.33   0
   2   4   4   51.50    3.61   0
  -2  -4  -4   52.26    4.37   0
  -2  -4  -4   52.28    3.59   0
   3   4   4   68.38    4.13   0
  -3  -4  -4   68.19    4.32   0
  -4  -4  -4   13.42    1.77   0
  -4  -4  -4   13.43    1.79   0
   5   4   4  -16.62    2.16   0
  -5  -4  -4  -17.32    2.04   0
   6   4   4   -2.65    1.79   0
  -6  -4  -4   19.47    2.06   0
   7   4   4   23.99    1.75   0
  -7  -4  -4   14.03    2.20   0
  -7  -4  -4   21.04    1.88   0
   8   4   4   48.74    2.72   0
  -8  -4  -4   49.37    2.97   0
   9   4   4   36.05    3.06   0
  -9  -4  -4   35.50    2.57   0
  -9  -4  -4   35.66    2.73   0
 -11   5   4    1.66    1.60   0
 -11   5   4    0.24    1.92   0
 -10   5   4    4.99    2.27   0
  10  -5  -4    5.41    1.77   0
  -9   5   4   -8.22    2.46   0
   9  -5  -4  -19.36    1.92   0
  -8   5   4  255.74    7.13   0
   8  -5  -4  255.82    6.61   0
  -7   5   4   54.03    3.90   0
   7  -5  -4   54.25    4.47   0
  -6   5   4   31.69    2.72   0
   6  -5  -4   32.48    3.07   0
  -5   5   4   11.78    1.54   0
  -5   5   4   11.67    1.53   0
  -4   5   4  106.15    4.77   0
  -4   5   4  122.12    5.12   0
   4  -5  -4  109.02    5.26   0
  -3   5   4    2.87    1.95   0
   3  -5  -4    2.50    1.85   0
  -2   5   4  229.72    5.24   0
  -2   5   4  236.94    5.01   0
   2  -5  -4  224.48    4.72   0
  -1   5   4  124.65    4.78   0
  -1   5   4  102.45    5.12   0
   1  -5  -4  124.90    4.59   0
   0   5   4 1042.96    9.64   0
   0  -5  -4 1043.05   10.09   0
   0  -5  -4 1042.79    9.66   0
   1   5   4  333.85    5.29   0
   1   5   4  334.03    5.38   0
   2   5   4   39.99    2.64   0
   2   5   4   39.62    3.24   0
   3   5   4  222.73    5.74   0
  -3  -5  -4  223.32    6.20   0
  -3  -5  -4  222.55    5.59   0
   4   5   4  236.47    5.12   0
  -4  -5  -4  236.10    4.70   0
   5   5   4    1.47    2.44   0
  -5  -5  -4    1.39    2.38   0
   6   5   4   10.46    1.84   0
  -6  -5  -4   15.98    2.39   0
  -6  -5  -4   17.78    1.62   0
  -7  -5  -4   22.01    2.22   0
  -7  -5  -4   21.02    2.47   0
   8   5   4   20.92    1.75   0
  -8  -5  -4   30.37    2.21   0
 -11   6   4    6.39    2.25   0
 -11   6   4    6.12    2.13   0
 -10   6   4   18.26    1.88   0
  10  -6  -4   18.01    1.87   0
  -9   6   4   99.60    4.27   0
   9  -6  -4   71.44    4.23   0
  -8   6   4   55.87    3.46   0
   8  -6  -4   56.34    3.28   0
  -7   6   4    5.60    2.03   0
  -7   6   4    6.10    2.33   0
  -6   6   4  125.96    5.41   0
  -6   6   4  131.60    4.73   0
   6  -6  -4  125.74    4.80   0
  -5   6   4  176.12    5.60   0
  -5   6   4  175.87    6.22   0
  -4   6   4   97.08    4.90   0
   4  -6  -4   96.78    5.21   0
  -3   6   4   18.39    2.16   0
  -3   6   4   18.16    1.82   0
   3  -6  -4   18.08    2.48   0
  -2   6   4   21.15    2.44   0
   2  -6  -4   21.36    2.10   0
   1  -6  -4  104.15    5.08   0
   1  -6  -4   97.56    5.34   0
   0   6   4  174.30    5.18   0
   0  -6  -4  168.98    5.11   0
   0  -6  -4  176.74    5.15   0
   1   6   4   14.06    2.30   0
  -1  -6  -4   13.83    1.53   0
  -1  -6  -4   13.61    1.97   0
   2   6   4  149.83    5.04   0
   2   6   4  149.79    5.77   0
  -2  -6  -4  150.02    4.56   0
   3   6   4  387.39    6.37   0
  -3  -6  -4  387.36    6.36   0
   4   6   4  213.39    4.92   0
  -4  -6  -4  213.04    4.76   0
  -4  -6  -4  213.38    5.46   0
   5   6   4    2.10    1.59   0
  -5  -6  -4    1.63    1.54   0
  -6  -6  -4   -9.29    2.30   0
  -6  -6  -4   -7.89    1.75   0
   7   6   4    1.13    1.97   0
  -7  -6  -4   -1.24    1.61   0
   8   6   4   15.69    2.25   0
  -8  -6  -4   -9.28    1.52   0
  -8  -6  -4   38.83    2.06   0
 -11   7   4   -3.56    1.63   0
  11  -7  -4   -4.09    1.58   0
 -10   7   4    3.51    1.54   0
 -10   7   4    3.50    1.51   0
  -9   7   4   -6.36    1.97   0
  -9   7   4   17.60    2.27   0
   9  -7  -4   38.56    1.69   0
  -8   7   4    8.91    2.22   0
   8  -7  -4    8.67    1.87   0
  -7   7   4   56.64    3.26   0
  -7   7   4   65.75    1.83   0
  -6   7   4   19.19    1.96   0
   6  -7  -4   18.76    1.93   0
  -5   7   4    4.48    1.95   0
   5  -7  -4    4.06    2.44   0
  -4   7   4   77.50    3.90   0
  -4   7   4   78.26    3.67   0
  -3   7   4   78.27    3.28   0
  -3   7   4   77.53    3.46   0
   3  -7  -4   78.43    2.54   0
  -2   7   4  119.23    4.23   0
   2  -7  -4  119.10    3.52   0
   2  -7  -4  119.29    3.73   0
  -1   7   4  125.43    4.33   0
   1  -7  -4  124.97    3.57   0
   0   7   4    8.36    2.43   0
   0   7   4    9.32    1.54   0
   1   7   4    0.15    2.48   0
  -1  -7  -4    0.11    1.53   0
   2   7   4   20.68    1.51   0
  -2  -7  -4   20.94    1.68   0
   3   7   4   -6.01    2.45   0
   3   7   4   13.08    1.91   0
  -3  -7  -4  -10.48    2.00   0
   4   7   4   10.07    5.79   0
  -4  -7  -4   22.62    2.55   0
  -4  -7  -4   36.66    3.43   0
   5   7   4    6.50    1.57   0
  -5  -7  -4   14.59    2.44   0
   6   7   4   11.26    1.91   0
  -6  -7  -4   21.04    2.02   0
   7   7   4    1.77    1.54   0
  -7  -7  -4    2.18    2.13   0
 -10   8   4   43.37    3.36   0
  10  -8  -4   43.10    3.09   0
  -9   8   4   78.72    4.07   0
  -9   8   4   78.66    4.06   0
   9  -8  -4   79.26    3.56   0
  -8   8   4  -22.54    2.08   0
   8  -8  -4  -30.99    1.86   0
  -7   8   4    7.43    1.53   0
   7  -8  -4    7.21    1.96   0
  -6   8   4   15.26    1.70   0
  -6   8   4   15.21    1.88   0
  -5   8   4   39.11    2.58   0
   5  -8  -4   39.23    3.25   0
  -4   8   4  128.75    4.72   0
   4  -8  -4  129.10    5.33   0
  -3   8   4    1.99    2.44   0
   3  -8  -4    2.14    2.28   0
  -2   8   4  131.97    5.30   0
  -2   8   4  127.54    4.75   0
   2  -8  -4  114.84    5.07   0
  -1   8   4   13.25    2.48   0
   1  -8  -4   12.76    2.59   0
   1  -8  -4   12.65    2.55   0
   0   8   4   22.62    2.58   0
   0  -8  -4   23.27    3.19   0
   0  -8  -4   22.95    2.56   0
   1   8   4    7.69    1.52   0
  -1  -8  -4    7.86    2.14   0
  -1  -8  -4    7.53    1.64   0
   2   8   4   58.64    3.03   0
   2   8   4   58.57    3.40   0
  -2  -8  -4   59.21    2.97   0
  -2  -8  -4   58.53    2.70   0
   3   8   4   81.38    4.63   0
  -3  -8  -4   81.29    4.95   0
   4   8   4   19.20    2.15   0
  -4  -8  -4   18.80    1.52   0
   5   8   4    1.99    2.43   0
  -5  -8  -4    2.39    2.49   0
   6   8   4    6.11    2.10   0
  -6  -8  -4    5.60    2.29   0
  -6  -8  -4    5.95    1.53   0
  -9   9   4    8.96    2.14   0
   9  -9  -4    9.48    2.14   0
  -8   9   4   23.71    1.89   0
   8  -9  -4   14.67    2.42   0
  -7   9   4   27.69    2.23   0
  -7   9   4   28.27    2.35   0
  -6   9   4    9.09    2.38   0
   6  -9  -4    9.01    2.40   0
  -5   9   4    5.67    1.60   0
  -5   9   4    6.28    2.07   0
   5  -9  -4    6.22    2.12   0
  -4   9   4  124.58    4.91   0
   4  -9  -4  124.60    5.26   0
  -3   9   4   31.53    2.53   0
   3  -9  -4   32.33    2.89   0
  -2   9   4  486.08    5.67   0
   2  -9  -4  486.36    6.30   0
  -1   9   4  441.42    6.05   0
   1  -9  -4  441.28    6.46   0
   0   9   4  274.64    4.93   0
   0   9   4  315.14    5.13   0
   1   9   4    1.60    2.16   0
  -1  -9  -4    1.56    2.27   0
  -1  -9  -4    1.61    1.67   0
   2   9   4    6.30    2.18   0
  -2  -9  -4    6.36    1.56   0
   3   9   4   -0.46    2.07   0
   3   9   4    8.09    2.07   0
  -3  -9  -4    6.23    1.90   0
   4   9   4   -3.95    1.82   0
   4   9   4  -10.99    2.18   0
  -4  -9  -4    8.01    2.30   0
  -4  -9  -4   -1.00    1.61   0
   5   9   4   -3.04    2.37   0
  -5  -9  -4    5.17    2.35   0
  -9  10   4    0.04    1.76   0
   9 -10  -4    0.06    2.09   0
  -8  10   4    0.91    2.42   0
  -8  10   4    0.88    2.47   0
   8 -10  -4    0.90    1.93   0
  -7  10   4    0.81    1.68   0
  -7  10   4    0.78    1.72   0
   7 -10  -4    0.77    2.19   0
  -6  10   4   26.02    2.24   0
   6 -10  -4   25.98    2.48   0
  -5  10   4    8.97    1.50   0
  -5  10   4    9.13    2.11   0
   5 -10  -4    9.35    1.57   0
  -4  10   4   11.24    2.35   0
  -4  10   4   11.21    2.01   0
   4 -10  -4   11.06    1.67   0
  -3  10   4   78.64    3.88   0
  -3  10   4   78.89    3.98   0
  -2  10   4   37.87    2.91   0
   2 -10  -4   37.94    2.85   0
   1 -10  -4   39.27    3.17   0
   1 -10  -4   38.83    2.73   0
   0  10   4    0.15    2.30   0
   0  10   4    0.12    1.55   0
   0 -10  -4    0.10    2.05   0
   0 -10  -4    0.15    2.03   0
   1  10   4   54.39    3.56   0
   1  10   4   53.97    3.92   0
  -1 -10  -4   54.34    3.57   0
   2  10   4    4.62    1.81   0
   2  10   4    6.84    1.68   0
  -2 -10  -4   10.04    1.55   0
  -2 -10  -4    1.42    1.97   0
   3  10   4    2.07    1.73   0
  -3 -10  -4    1.88    2.29   0
  -3 -10  -4    2.11    2.01   0
   4  10   4    6.21    2.32   0
   4  10   4    6.07    2.36   0
  -4 -10  -4    5.76    1.86   0
  -8  11   4   40.46    2.91   0
   8 -11  -4   39.56    2.66   0
  -7  11   4    7.72    2.29   0
  -7  11   4    8.39    1.88   0
   7 -11  -4    7.75    1.93   0
  -6  11   4  176.10    4.95   0
   6 -11  -4  210.48    4.91   0
  -5  11   4  401.67    6.12   0
   5 -11  -4  402.26    6.36   0
  -4  11   4   70.46    3.43   0
   4 -11  -4   69.76    2.61   0
  -3  11   4    9.21    3.41   0
  -3  11   4    9.39    3.12   0
  -2  11   4   68.57    3.95   0
  -2  11   4   69.21    4.13   0
   2 -11  -4   69.26    3.88   0
  -1  11   4   12.33    2.38   0
  -1  11   4   12.30    1.53   0
   1 -11  -4   12.19    1.90   0
   0  11   4   79.10    4.14   0
   0  11   4   79.15    4.23   0
   1  11   4    1.30    2.12   0
  -1 -11  -4  -16.65    1.79   0
  -1 -11  -4   -2.05    1.50   0
   2  11   4   15.23    1.83   0
   2  11   4   14.50    2.48   0
   3  11   4   31.29    2.74   0
   3  11   4   30.89    2.72   0
  -6  12   4   75.17    3.83   0
   6 -12  -4   74.68    3.68   0
  -5  12   4  128.39    5.20   0
   5 -12  -4  127.53    5.13   0
  -4  12   4    2.25    2.17   0
  -4  12   4    1.58    2.15   0
   4 -12  -4    2.37    2.02   0
  -3  12   4    7.65    1.97   0
   3 -12  -4    8.05    2.10   0
  -2  12   4   23.32    2.14   0
   2 -12  -4   22.99    2.36   0
   2 -12  -4   22.93    2.43   0
  -1  12   4    1.73    1.56   0
   1 -12  -4    1.70    2.23   0
   0  12   4   -2.08    2.19   0
   0  12   4    7.51    2.09   0
   0 -12  -4    7.24    2.42   0
  -1 -12  -4    7.39    2.07   0
  -1 -12  -4   -5.80    2.29   0
  -2 -12   5   17.42    1.54   0
   2  12  -5   17.17    2.29   0
  -1 -12   5   44.02    2.56   0
  -1 -12   5   44.12    3.45   0
   1  12  -5   44.29    2.58   0
   0 -12   5   21.32    1.54   0
   0 -12   5   30.26    2.41   0
   1 -12   5    7.75    2.45   0
   1 -12   5    0.22    2.28   0
   1 -12   5    2.09    1.59   0
   2 -12   5    8.04    1.95   0
  -2  12  -5   25.25    1.53   0
   3 -12   5   36.83    2.50   0
  -3  12  -5   37.01    3.27   0
  -4 -11   5   31.75    2.83   0
  -4 -11   5   32.05    3.43   0
   4  11  -5   32.48    2.76   0
  -3 -11   5   68.28    3.86   0
   3  11  -5   95.51    3.87   0
  -2 -11   5    1.16    1.75   0
   2  11  -5    1.20    1.67   0
  -1 -11   5   52.79    1.95   0
  -1 -11   5   53.43    2.41   0
   1  11  -5   53.32    2.22   0
   0 -11   5   64.05    3.65   0
   0  11  -5   64.30    3.71   0
   1 -11   5   13.88    2.03   0
   1 -11   5   17.99    1.55   0
  -1  11  -5    4.85    2.42   0
   2 -11   5   14.63    1.55   0
  -2  11  -5   15.46    2.00   0
   3 -11   5   18.02    8.07   0
  -3  11  -5    3.64    1.96   0
   4 -11   5   15.80    2.86   0
  -4  11  -5   34.59    3.38   0
   5 -11   5   73.63    3.77   0
  -5  11  -5   74.48    4.04   0
  -6 -10   5    5.71    1.72   0
  -6 -10   5   11.75    2.23   0
  -5 -10   5    1.49    2.36   0
  -5 -10   5   10.50    1.50   0
  -4 -10   5    7.96    1.58   0
  -4 -10   5    7.77    2.23   0
  -3 -10   5    1.97    2.41   0
  -3 -10   5    1.28    1.73   0
   3  10  -5    2.01    1.65   0
  -2 -10   5   25.25    2.22   0
  -2 -10   5   12.83    1.50   0
  -1 -10   5   15.90    1.56   0
  -1 -10   5   23.91    2.11   0
   1  10  -5   29.78    1.60   0
   0 -10   5   42.82    3.19   0
   0 -10   5   43.30    2.94   0
   1 -10   5   75.77    3.59   0
  -1  10  -5   75.53    4.08   0
   2 -10   5   28.11    2.60   0
  -2  10  -5   28.46    2.65   0
   3 -10   5    6.86    2.35   0
  -3  10  -5    6.57    1.67   0
   4 -10   5   -7.50    1.73   0
  -4  10  -5   10.48    1.87   0
   5 -10   5   23.37    8.65   0
  -5  10  -5  -19.85   11.96   0
  -6  10  -5   17.33   13.69   0
  -7  -9   5  -12.34   10.81   0
  -7  -9   5  -14.57    7.50   0
  -6  -9   5  -20.62   11.69   0
  -6  -9   5  -20.51    7.98   0
  -5  -9   5    6.43    9.84   0
  -5  -9   5   28.19   10.70   0
  -4  -9   5   15.06   12.43   0
  -4  -9   5    7.45    9.28   0
   4   9  -5    4.91    6.29   0
  -3  -9   5    3.88    8.61   0
  -3  -9   5   -8.00    9.46   0
  -2  -9   5   11.11   16.11   0
  -2  -9   5   -4.12    8.08   0
  -1  -9   5    0.26    2.11   0
  -1  -9   5    0.34    1.85   0
   1   9  -5    0.30    2.40   0
   0  -9   5   64.03    3.46   0
   0  -9   5   64.45    2.82   0
   0   9  -5   63.93    2.64   0
   1  -9   5   62.34    3.63   0
  -1   9  -5   -8.16    1.71   0
   2  -9   5    8.87    1.58   0
  -2   9  -5    8.79    1.69   0
   3  -9   5   12.28    1.87   0
  -3   9  -5    0.69    2.18   0
   4  -9   5    2.69    1.95   0
  -4   9  -5    2.83    1.81   0
   5  -9   5   -4.56    1.85   0
  -5   9  -5   23.25    2.98   0
   6  -9   5    5.64    2.40   0
  -6   9  -5    5.57    1.66   0
   7  -9   5    0.16    2.22   0
  -7   9  -5    0.10    2.16   0
  -7   9  -5    0.14    1.79   0
  -8  -8   5    2.32    2.03   0
  -8  -8   5    2.30    2.25   0
  -7  -8   5    7.36    2.46   0
  -7  -8   5    6.71    2.10   0
  -6  -8   5  -10.48    2.46   0
  -6  -8   5    2.06    1.87   0
  -5  -8   5    3.25    2.19   0
  -5  -8   5    3.19    2.32   0
  -4  -8   5   56.64    3.94   0
   4   8  -5   57.36    3.97   0
  -3  -8   5   38.26    2.59   0
  -3  -8   5   26.17    2.91   0
   3   8  -5   42.16    2.58   0
  -2  -8   5    7.72    1.99   0
  -2  -8   5    7.52    1.83   0
   2   8  -5    8.45    1.59   0
  -1  -8   5    3.97    1.53   0
  -1  -8   5    3.73    2.34   0
   1   8  -5   27.19    7.75   0
   0  -8   5  -10.81    1.58   0
   0  -8   5    4.12    1.83   0
   0   8  -5  -10.42    1.88   0
   1  -8   5   57.65    4.26   0
  -1   8  -5   58.07    3.86   0
   2  -8   5  -14.98    2.13   0
  -2   8  -5    7.62    1.70   0
   3  -8   5    0.46    2.48   0
  -3   8  -5    0.52    2.38   0
   4  -8   5    4.90    1.94   0
  -4   8  -5   25.80    2.03   0
   5  -8   5    8.18    2.39   0
  -5   8  -5   -6.55    2.27   0
  -5   8  -5   13.12    1.58   0
  -6   8  -5   26.68    1.70   0
  -6   8  -5   20.17    1.77   0
  -7   8  -5    3.40    2.17   0
  -7   8  -5   13.96    2.07   0
   8  -8   5    3.34    2.40   0
  -8   8  -5    2.56    1.99   0
  -9  -7   5   42.45    3.17   0
  -9  -7   5   37.12    3.33   0
  -9  -7   5   52.43    3.49   0
  -8  -7   5    2.33    2.23   0
  -8  -7   5   14.37    1.87   0
  -7  -7   5   -4.24    1.72   0
  -7  -7   5   -3.72    2.44   0
  -6  -7   5    1.19    2.15   0
  -6  -7   5    1.38    1.52   0
  -5  -7   5  -11.49    1.58   0
  -5  -7   5    9.94    2.17   0
  -4  -7   5    1.20    2.09   0
  -4  -7   5    1.44    2.45   0
  -3  -7   5    6.70    2.27   0
  -3  -7   5    7.22    1.63   0
   3   7  -5    7.10    2.19   0
  -2  -7   5   20.54    2.23   0
   2   7  -5   21.19    2.11   0
  -1  -7   5  111.34    4.88   0
  -1  -7   5   66.05    2.67   0
  -1  -7   5   65.91    3.10   0
   1   7  -5  112.02    5.15   0
   0  -7   5    9.00    1.92   0
   0  -7   5    8.84    1.84   0
   0  -7   5    9.45    1.71   0
   0   7  -5    8.67    1.70   0
   1  -7   5   66.36    4.06   0
  -1   7  -5   65.93    3.56   0
   2  -7   5   29.39    2.71   0
  -2   7  -5   29.20    3.47   0
   3  -7   5   38.75    3.36   0
  -3   7  -5   39.04    2.61   0
   4  -7   5   10.64    2.24   0
  -4   7  -5   11.05    2.16   0
  -4   7  -5   11.14    2.35   0
   5  -7   5   62.82    2.79   0
  -5   7  -5   62.74    3.43   0
  -5   7  -5   63.09    3.23   0
  -5   7  -5   63.19    3.25   0
   6  -7   5   90.95    4.56   0
  -6   7  -5   90.72    4.64   0
  -7   7  -5   22.98    2.50   0
  -7   7  -5   34.10    3.33   0
  -8   7  -5    0.46    2.03   0
  -8   7  -5    3.20    1.94   0
  -8   7  -5    2.61    1.79   0
  -9  -6   5   25.26    2.24   0
  -9  -6   5   24.84    1.59   0
  -8  -6   5    2.83    1.80   0
  -8  -6   5    2.78    1.73   0
  -7  -6   5  -19.80    2.29   0
  -7  -6   5  -10.86    2.02   0
  -6  -6   5  -13.65    1.79   0
  -6  -6   5   -6.41    2.03   0
  -5  -6   5   61.34    3.37   0
  -5  -6   5   61.09    3.14   0
  -4  -6   5  174.60    6.26   0
  -4  -6   5  175.00    5.75   0
  -3  -6   5   14.57    1.56   0
  -3  -6   5    7.85    1.74   0
  -3  -6   5   -2.94    2.30   0
  -2  -6   5   16.91    1.68   0
   2   6  -5    3.83    1.77   0
  -1  -6   5    3.66    1.63   0
  -1  -6   5    4.19    2.07   0
  -1  -6   5    3.94    2.47   0
   1   6  -5    4.01    1.60   0
   0  -6   5    1.91    2.44   0
   0   6  -5    1.90    3.36   0
   1  -6   5    5.90    2.36   0
  -1   6  -5    6.48    1.76   0
   2  -6   5   15.52    2.23   0
  -2   6  -5   16.27    2.43   0
   3  -6   5  133.48    6.35   0
  -3   6  -5  132.62    5.78   0
   4  -6   5   14.45    1.62   0
  -4   6  -5   14.27    1.61   0
  -4   6  -5   13.73    2.00   0
  -4   6  -5   13.74    2.13   0
   5  -6   5   74.56    4.43   0
  -5   6  -5   75.11    3.85   0
   6  -6   5    8.54    2.04   0
  -6   6  -5    8.95    2.03   0
  -6   6  -5    8.56    1.80   0
   7  -6   5    6.66    2.13   0
  -7   6  -5    7.30    2.38   0
  -7   6  -5    7.10    2.19   0
   8  -6   5   11.79    2.18   0
  -8   6  -5   11.65    2.19   0
  -9   6  -5    0.01    1.70   0
  -9   6  -5    0.03    2.27   0
  -9   6  -5    0.01    1.56   0
 -10  -5   5   23.23    2.31   0
 -10  -5   5   23.42    2.42   0
 -10  -5   5  -18.59    1.78   0
  -9  -5   5    6.70    1.58   0
  -9  -5   5    7.43    2.29   0
  -9  -5   5    7.28    1.93   0
  -8  -5   5    2.32    2.41   0
  -8  -5   5    2.06    1.93   0
  -7  -5   5  131.26    5.49   0
  -7  -5   5  115.19    4.81   0
  -6  -5   5  239.58    5.34   0
  -6  -5   5  240.24    5.42   0
  -5  -5   5  126.78    5.29   0
  -5  -5   5  127.38    4.93   0
  -4  -5   5   29.18    2.93   0
  -4  -5   5   28.98    2.70   0
  -4  -5   5   28.81    2.78   0
  -3  -5   5    4.01    2.25   0
  -3  -5   5    3.88    1.56   0
  -3  -5   5    4.11    1.96   0
  -2  -5   5    5.20    2.34   0
  -2  -5   5    5.16    2.01   0
  -1  -5   5  236.25    5.59   0
   1   5  -5  236.20    6.22   0
   0  -5   5    0.36    3.35   0
   0   5  -5    0.39    3.33   0
   1  -5   5  865.06    8.81   0
  -1   5  -5  864.92    8.52   0
   2  -5   5  470.97    6.03   0
  -2   5  -5  471.27    5.91   0
   3  -5   5  179.59    5.10   0
  -3   5  -5  180.46    5.16   0
  -3   5  -5  179.74    4.63   0
  -4   5  -5  107.98    5.35   0
  -4   5  -5  107.97    4.78   0
  -4   5  -5  108.09    5.40   0
   5  -5   5   14.19    1.80   0
  -5   5  -5   13.80    2.23   0
  -5   5  -5   13.75    2.30   0
   6  -5   5    3.41    2.18   0
  -6   5  -5    2.85    2.45   0
   7  -5   5   12.28    2.26   0
  -7   5  -5   12.48    2.17   0
  -7   5  -5   12.25    1.75   0
   8  -5   5    5.84    2.18   0
  -8   5  -5    5.90    1.52   0
   9  -5   5   11.84    1.60   0
  -9   5  -5   12.07    2.48   0
 -10  -4   5   -4.57    1.93   0
 -10  -4   5  -27.00    2.06   0
 -10  -4   5   17.88    1.65   0
  -9  -4   5    0.27    1.55   0
  -9  -4   5    0.23    2.41   0
  -8  -4   5    5.40    2.21   0
  -8  -4   5    4.99    2.35   0
  -8  -4   5    4.98    2.48   0
  -7  -4   5  159.70    5.32   0
  -7  -4   5  160.44    5.39   0
  -6  -4   5  201.95    6.33   0
  -6  -4   5  202.34    5.99   0
  -5  -4   5    1.13    1.69   0
  -5  -4   5   14.98    1.83   0
  -4  -4   5   49.29    3.44   0
  -4  -4   5   49.01    3.31   0
  -4  -4   5   48.96    3.23   0
  -3  -4   5  197.55    5.27   0
  -3  -4   5  197.96    5.45   0
  -2  -4   5    6.46    1.60   0
  -2  -4   5    5.79    2.45   0
   2   4  -5    6.00    2.35   0
  -1  -4   5   67.41    3.94   0
  -1  -4   5   67.33    3.57   0
  -1  -4   5   67.04    4.16   0
   0  -4   5  111.44    5.42   0
   0   4  -5  110.65    5.08   0
   1  -4   5  128.41    4.74   0
  -1   4  -5  127.68    4.67   0
   2  -4   5    0.21    1.52   0
  -2   4  -5    0.22    2.40   0
  -2   4  -5    0.23    1.51   0
  -2   4  -5    0.20    2.48   0
   3  -4   5  111.06    4.56   0
  -3   4  -5  144.13    4.97   0
   4  -4   5   12.57    2.46   0
  -4   4  -5   12.60    2.09   0
  -4   4  -5   13.36    2.14   0
   5  -4   5  126.07    5.02   0
  -5   4  -5  125.84    5.07   0
  -6   4  -5   18.50    2.35   0
  -6   4  -5   19.26    1.98   0
  -7   4  -5    5.35    1.88   0
  -7   4  -5    5.28    1.71   0
  -8   4  -5    9.82    1.97   0
  -8   4  -5   -2.34    1.90   0
  -9   4  -5   42.20    3.61   0
  -9   4  -5   41.74    3.90   0
 -11  -3   5  -29.55    1.88   0
 -11  -3   5  -14.27    2.00   0
 -10  -3   5  -21.65    2.03   0
 -10  -3   5   -4.83    2.07   0
  -9  -3   5  -35.38    2.30   0
  -9  -3   5   -8.71    1.72   0
  -8  -3   5   11.88    2.17   0
  -8  -3   5   11.67    2.42   0
  -7  -3   5    5.99    1.97   0
  -7  -3   5    5.54    2.29   0
  -6  -3   5   51.70    2.67   0
  -6  -3   5   67.33    3.11   0
  -5  -3   5   16.45    2.13   0
  -5  -3   5   -0.84    1.76   0
  -4  -3   5  113.23    4.72   0
  -4  -3   5  116.76    4.50   0
  -3  -3   5   23.64    1.88   0
  -3  -3   5   23.93    1.65   0
  -2  -3   5   32.74    3.14   0
  -2  -3   5   33.34    2.51   0
  -1  -3   5   64.26    4.10   0
   1   3  -5   63.77    3.84   0
   0  -3   5   53.99    3.69   0
   0   3  -5   53.64    3.79   0
   0   3  -5   53.59    3.61   0
   1  -3   5   45.37    2.84   0
   1  -3   5   44.72    3.35   0
  -1   3  -5   45.11    2.60   0
  -1   3  -5   45.37    2.90   0
   2  -3   5   28.50    3.17   0
   2  -3   5   29.49    2.65   0
  -2   3  -5   28.80    3.28   0
  -2   3  -5   28.74    3.21   0
  -3   3  -5  169.00    5.00   0
  -3   3  -5  178.66    5.12   0
   4  -3   5   17.32    1.79   0
  -4   3  -5   16.51    2.28   0
  -4   3  -5   16.67    2.03   0
  -5   3  -5   21.34    1.83   0
  -5   3  -5   20.96    1.77   0
  -5   3  -5   21.27    1.85   0
   6  -3   5   12.22    1.76   0
  -6   3  -5   12.48    2.25   0
  -7   3  -5   35.97    1.76   0
  -7   3  -5   13.00    2.38   0
   8  -3   5   76.18    4.78   0
  -8   3  -5   76.27    4.61   0
   9  -3   5   11.73    2.10   0
  -9   3  -5   12.03    1.57   0
 -11  -2   5   68.87    3.18   0
 -11  -2   5   68.91    3.09   0
 -10  -2   5  144.54    4.88   0
 -10  -2   5  144.55    5.37   0
  -9  -2   5    2.36    1.96   0
  -9  -2   5    1.96    1.99   0
  -8  -2   5    6.18    1.83   0
  -8  -2   5    5.58    1.84   0
  -7  -2   5   18.84    1.36   0
  -7  -2   5    0.20    2.13   0
  -6  -2   5    2.85    2.08   0
  -6  -2   5    2.96    1.88   0
  -5  -2   5    6.00    2.24   0
  -4  -2   5  312.86    4.53   0
   4   2  -5  313.35    4.97   0
  -3  -2   5 3930.27   39.19   0
   3   2  -5 3930.06   38.69   0
  -2  -2   5 3623.16   35.71   0
   2   2  -5 3623.45   36.05   0
  -1  -2   5   18.22    2.67   0
   1   2  -5   18.47    2.73   0
   0  -2   5    9.81    2.42   0
   0  -2   5    9.73    1.82   0
   0   2  -5    9.95    1.86   0
   0   2  -5   10.22    1.57   0
   1  -2   5  400.31    6.78   0
  -1   2  -5  399.69    7.01   0
   2  -2   5    6.64    1.66   0
  -2   2  -5   13.30    2.14   0
  -2   2  -5   -3.64    2.33   0
   3  -2   5   94.42    4.09   0
  -3   2  -5   94.40    3.62   0
  -3   2  -5   93.52    3.51   0
   4  -2   5  106.73    5.48   0
  -4   2  -5  106.89    5.08   0
   5  -2   5  866.85    6.91   0
  -5   2  -5  867.19    7.37   0
   6  -2   5  311.20    5.00   0
  -6   2  -5  310.88    4.74   0
  -7   2  -5  -13.48    1.95   0
  -7   2  -5  -23.18    2.10   0
   8  -2   5    6.68    1.55   0
  -8   2  -5    7.33    2.02   0
   9  -2   5   58.66    3.06   0
  -9   2  -5   59.34    3.10   0
 -11  -1   5   24.97    1.69   0
 -11  -1   5   44.53    2.98   0
 -10  -1   5    7.74    2.23   0
 -10  -1   5   21.13    2.20   0
  -9  -1   5    1.14    1.96   0
  -9  -1   5    1.15    1.50   0
  -8  -1   5  155.85    4.99   0
  -8  -1   5  156.45    3.63   0
  -7  -1   5  630.03    5.59   0
  -7  -1   5  630.45    5.62   0
  -6  -1   5  229.11    5.48   0
   6   1  -5  195.90    4.80   0
  -5  -1   5  150.90    5.17   0
   5   1  -5  182.74    5.49   0
  -4  -1   5  -14.77    1.53   0
   4   1  -5   -9.81    1.66   0
  -3  -1   5   62.90    2.75   0
   3   1  -5   12.83    1.60   0
  -2  -1   5  116.05    5.20   0
   2   1  -5  160.94    4.94   0
  -1  -1   5   22.47    2.43   0
  -1  -1   5   21.99    1.98   0
   1   1  -5   21.57    2.21   0
   0  -1   5 1320.40   11.75   0
   0   1  -5 1320.10   11.58   0
   1  -1   5 2723.56   14.59   0
  -1   1  -5 2723.69   14.67   0
   2  -1   5  528.53    4.93   0
  -2   1  -5  528.69    4.68   0
  -3   1  -5  105.17    5.28   0
  -3   1  -5  104.84    4.78   0
   4  -1   5  107.53    4.62   0
  -4   1  -5  108.18    5.06   0
   5  -1   5  220.15    5.21   0
  -5   1  -5  219.87    4.87   0
  -5   1  -5  219.97    4.55   0
   6  -1   5   13.24   11.27   0
  -6   1  -5   11.76   24.83   0
  -7   1  -5   -9.70   10.06   0
  -7   1  -5  -25.34   12.01   0
  -8   1  -5   39.54   26.11   0
  -8   1  -5   33.70    9.35   0
   9  -1   5   65.80    3.93   0
  -9   1  -5   65.62    3.86   0
 -11   0   5   15.54    1.95   0
 -11   0   5  -23.06    2.07   0
 -10   0   5    0.44    2.37   0
 -10   0   5    0.38    2.38   0
  -9   0   5   -8.89    2.23   0
  -9   0   5    9.18    2.46   0
  -8   0   5  -14.64    2.08   0
  -7   0   5    7.82    1.84   0
   7   0  -5  -18.09    2.38   0
  -6   0   5   34.37    2.95   0
   6   0  -5   33.73    3.41   0
  -5   0   5    8.63    1.66   0
   5   0  -5    9.40    2.36   0
  -4   0   5    7.83    1.79   0
   4   0  -5    7.77    1.67   0
  -3   0   5   13.99    2.53   0
   3   0  -5   13.83    1.61   0
  -2   0   5    2.32    2.06   0
   2   0  -5    2.03    2.18   0
  -1   0   5    0.39    2.33   0
   1   0  -5    0.41    1.69   0
   0   0   5  -21.43    1.61   0
   0   0  -5  -15.88    2.40   0
   1   0   5   -0.32    1.74   0
   1   0   5    2.19    1.86   0
  -1   0  -5    9.41    2.27   0
   2   0   5   15.48    2.41   0
  -2   0  -5   15.08    1.77   0
   3   0   5    5.61    2.44   0
  -3   0  -5    1.92    2.12   0
   4   0   5   -1.33    1.54   0
  -4   0  -5   -0.05    2.49   0
   5   0   5   -1.52    1.79   0
  -5   0  -5    0.90    1.68   0
  -6   0  -5   -1.11    2.04   0
  -6   0  -5    2.77    1.76   0
  -7   0  -5   -1.65    2.45   0
  -7   0  -5  -22.04    2.47   0
  -8   0  -5    6.49    2.42   0
  -8   0  -5   -1.99    2.37   0
  -8   0  -5   -1.04    2.46   0
   9   0   5    2.09    1.53   0
  -9   0  -5    2.04    2.48   0
 -12   1   5   13.92    1.77   0
 -12   1   5   14.49    1.57   0
 -11   1   5   36.65    2.80   0
 -11   1   5   37.44    3.02   0
 -10   1   5   13.60    1.94   0
 -10   1   5   13.70    1.72   0
  -9   1   5   37.67    2.82   0
  -8   1   5  329.20    5.13   0
   8  -1  -5  329.43    5.40   0
  -7   1   5  764.10    6.24   0
   7  -1  -5  633.11    6.29   0
  -6   1   5   53.51    5.47   0
   6  -1  -5   53.82    4.89   0
  -5   1   5  231.88    6.03   0
   5  -1  -5  231.83    5.79   0
  -4   1   5   35.70    3.12   0
   4  -1  -5   35.61    3.13   0
  -3   1   5   11.85    2.17   0
   3  -1  -5   11.84    2.25   0
  -2   1   5  433.88    5.76   0
   2  -1  -5  434.10    6.31   0
  -1   1   5  114.64    5.20   0
   1  -1  -5  114.76    4.90   0
   0   1   5 1663.46   13.36   0
   0  -1  -5 1663.32   13.00   0
   1   1   5 2732.95   24.64   0
  -1  -1  -5 2750.60   22.25   0
   2   1   5  142.03    5.69   0
  -2  -1  -5  142.12    5.78   0
   3   1   5  216.94    5.67   0
  -3  -1  -5  217.46    5.81   0
   4   1   5  166.32    4.71   0
  -4  -1  -5  165.84    5.43   0
   5   1   5  188.75    4.50   0
  -5  -1  -5  189.01    5.01   0
   6   1   5    3.26    1.79   0
  -6  -1  -5    3.01    1.73   0
  -6  -1  -5    3.27    1.98   0
   7   1   5    3.48    2.27   0
  -7  -1  -5    2.56    1.88   0
  -7  -1  -5    2.79    1.76   0
  -8  -1  -5   71.27    3.57   0
  -8  -1  -5   72.49    3.63   0
  -9  -1  -5   54.46    2.15   0
  -9  -1  -5   26.09    2.49   0
 -12   2   5   17.69    1.68   0
 -12   2   5   18.08    1.96   0
 -11   2   5  146.73    5.55   0
 -11   2   5  147.12    5.99   0
 -10   2   5   46.88    3.09   0
 -10   2   5   30.99    2.55   0
  -9   2   5   17.94    2.25   0
   9  -2  -5   18.33    1.57   0
  -8   2   5    0.24    1.65   0
   8  -2  -5    0.23    2.07   0
  -7   2   5   12.14    1.52   0
   7  -2  -5   11.50    2.37   0
  -6   2   5   30.86    2.06   0
   6  -2  -5   -4.39    1.81   0
  -5   2   5   24.61    1.51   0
   5  -2  -5   24.90    2.39   0
  -4   2   5 1817.78   12.61   0
   4  -2  -5 1818.45   13.07   0
  -3   2   5 5367.74   35.30   0
   3  -2  -5 5368.11   32.82   0
  -2   2   5  984.20    6.90   0
   2  -2  -5  922.50    6.84   0
  -1   2   5   74.60    4.14   0
   1  -2  -5   74.93    3.52   0
   0   2   5   48.47    3.33   0
   0   2   5   47.96    2.70   0
   0  -2  -5   47.92    2.74   0
   1   2   5  421.64    5.89   0
  -1  -2  -5  421.68    5.90   0
   2   2   5  234.16    4.61   0
  -2  -2  -5  234.48    5.29   0
   3   2   5   14.30    2.23   0
  -3  -2  -5   -6.02    2.31   0
   4   2   5  606.99    6.03   0
  -4  -2  -5  606.59    5.72   0
   5   2   5  719.50    6.80   0
  -5  -2  -5  720.42    6.98   0
   6   2   5   89.58    4.06   0
  -6  -2  -5   90.08    4.24   0
   7   2   5   -1.67    2.05   0
  -7  -2  -5    5.15    2.38   0
  -7  -2  -5   -2.37    1.86   0
   8   2   5   19.32    1.65   0
  -8  -2  -5   19.29    2.32   0
  -8  -2  -5   18.71    1.77   0
   9   2   5   35.85    2.57   0
  -9  -2  -5   36.34    2.86   0
 -12   3   5   -6.64    2.24   0
 -12   3   5  -17.14    2.27   0
 -11   3   5    2.15    2.34   0
 -11   3   5    1.81    1.96   0
 -10   3   5   12.03    2.28   0
  10  -3  -5   12.46    2.15   0
  -9   3   5   -2.32    2.22   0
   9  -3  -5    4.33    2.49   0
  -8   3   5   13.43    1.59   0
   8  -3  -5   12.54    1.81   0
  -7   3   5   60.74    3.95   0
   7  -3  -5   61.07    3.96   0
  -6   3   5   27.93    1.66   0
   6  -3  -5   78.13    2.22   0
  -5   3   5   82.52    4.48   0
   5  -3  -5   82.76    3.87   0
  -4   3   5  109.92    5.27   0
   4  -3  -5  190.20    5.06   0
  -3   3   5   89.19    3.80   0
   3  -3  -5   89.05    3.98   0
  -2   3   5   46.78    2.78   0
   2  -3  -5   46.86    3.02   0
  -1   3   5   69.08    3.88   0
  -1   3   5   68.68    3.53   0
   1  -3  -5   68.76    3.85   0
   0   3   5   17.82    1.76   0
   0   3   5   17.98    2.31   0
   0  -3  -5   17.54    2.14   0
   1   3   5    6.28    1.79   0
   1   3   5    6.12    2.28   0
  -1  -3  -5    5.55    1.82   0
   2   3   5  177.89    5.20   0
  -2  -3  -5  210.13    5.05   0
   3   3   5    5.87    2.44   0
  -3  -3  -5   -1.04    1.75   0
  -3  -3  -5   17.92    1.66   0
   4   3   5   53.16    3.36   0
  -4  -3  -5   33.71    2.75   0
  -4  -3  -5   74.52    3.23   0
  -5  -3  -5   33.30    2.77   0
  -5  -3  -5   39.87    3.17   0
   6   3   5   11.07    2.34   0
  -6  -3  -5   10.71    2.20   0
   7   3   5   87.87    4.60   0
  -7  -3  -5   88.45    4.75   0
   8   3   5   27.34    2.80   0
  -8  -3  -5   22.65    1.90   0
  -8  -3  -5   35.58    2.37   0
 -11   4   5    6.63    1.58   0
 -10   4   5    2.19    2.17   0
  10  -4  -5    2.17    1.65   0
  -9   4   5  -13.09    1.82   0
   9  -4  -5  -14.17    2.32   0
  -8   4   5  259.20    6.10   0
   8  -4  -5  258.74    6.38   0
  -7   4   5  177.56    5.50   0
   7  -4  -5  177.43    5.47   0
  -6   4   5   51.98    3.44   0
   6  -4  -5   15.55    3.43   0
  -5   4   5  104.02    5.30   0
   5  -4  -5  103.98    5.23   0
  -4   4   5  293.84    7.40   0
   4  -4  -5  294.37    6.94   0
  -3   4   5   83.12    3.56   0
  -3   4   5   81.24    4.15   0
  -2   4   5    5.44    2.30   0
   2  -4  -5    4.63    1.58   0
  -1   4   5  395.32    5.45   0
   1  -4  -5  417.07    4.78   0
   0   4   5   21.66    2.89   0
   0   4   5   22.41    3.38   0
   1   4   5    7.05    2.36   0
   1   4   5    6.90    1.78   0
  -1  -4  -5    7.45    2.49   0
  -1  -4  -5    6.89    2.28   0
   2   4   5   48.86    3.08   0
   2   4   5   48.86    2.63   0
  -2  -4  -5  123.96    5.28   0
  -2  -4  -5  122.65    4.56   0
   3   4   5   34.72    1.79   0
  -3  -4  -5   29.52    1.96   0
   4   4   5  104.08    4.78   0
  -4  -4  -5  104.39    4.77   0
   5   4   5   16.97    1.96   0
  -5  -4  -5   17.47    1.86   0
   6   4   5    2.18    2.20   0
  -6  -4  -5    2.36    2.34   0
   7   4   5    0.89    1.95   0
  -7  -4  -5   20.63    2.14   0
  -8  -4  -5   52.73    3.29   0
  -8  -4  -5   11.93    2.03   0
 -11   5   5    7.51    1.84   0
 -10   5   5    8.05    2.40   0
  10  -5  -5    8.29    1.78   0
  -9   5   5   16.01    2.26   0
   9  -5  -5   15.64    1.68   0
  -8   5   5  268.19    5.59   0
   8  -5  -5  267.62    6.09   0
  -7   5   5  114.94    5.38   0
   7  -5  -5  115.37    5.31   0
  -6   5   5  185.44    5.17   0
   6  -5  -5  185.10    4.69   0
  -5   5   5   16.64    2.30   0
   5  -5  -5   16.78    1.64   0
  -4   5   5   14.31    1.50   0
   4  -5  -5   13.88    1.84   0
  -3   5   5  232.21    6.08   0
  -3   5   5  231.71    6.10   0
  -2   5   5   56.84    2.66   0
  -2   5   5   56.52    2.88   0
   2  -5  -5   31.66    2.04   0
  -1   5   5   68.61    3.09   0
   1  -5  -5   68.70    3.37   0
   0   5   5 1131.39   11.45   0
   0  -5  -5 1130.90   11.44   0
   1   5   5  246.24    4.81   0
  -1  -5  -5  246.41    5.28   0
  -1  -5  -5  246.35    5.36   0
   2   5   5  344.66    4.67   0
  -2  -5  -5  345.29    5.37   0
   3   5   5    1.16    2.47   0
  -3  -5  -5    1.14    1.99   0
   4   5   5   -0.61    2.34   0
  -4  -5  -5    3.39    2.26   0
  -4  -5  -5   -4.86    1.61   0
   5   5   5   15.02    1.96   0
  -5  -5  -5   15.04    2.32   0
   6   5   5  -13.18    1.98   0
  -6  -5  -5  -13.36    2.28   0
   7   5   5    0.31    2.18   0
  -7  -5  -5    0.33    2.44   0
  -7  -5  -5    0.34    2.08   0
   8   5   5   43.33    1.88   0
  -8  -5  -5   11.91    2.19   0
 -11   6   5   16.18    2.14   0
  11  -6  -5   15.67    2.33   0
 -10   6   5    2.15    2.26   0
  10  -6  -5    1.92    2.15   0
  -9   6   5    1.53    2.48   0
   9  -6  -5    4.93    2.24   0
  -8   6   5   14.15    1.51   0
   8  -6  -5   14.25    2.37   0
  -7   6   5   41.67    2.52   0
  -7   6   5   61.23    3.08   0
  -6   6   5   47.77    4.03   0
  -6   6   5   48.19    4.47   0
   6  -6  -5   47.51    3.09   0
  -5   6   5  103.58    4.74   0
   5  -6  -5  103.74    4.53   0
  -4   6   5   67.43    3.67   0
   4  -6  -5   67.34    3.57   0
  -3   6   5   48.44    3.01   0
   3  -6  -5   47.70    3.40   0
  -2   6   5  -20.35    1.81   0
  -2   6   5   -0.97    1.73   0
  -1   6   5   16.24    1.67   0
   1  -6  -5    4.20    1.60   0
   0   6   5    2.06    1.73   0
   0  -6  -5    1.16    2.16   0
   0  -6  -5    4.35    1.92   0
   1   6   5  167.80    5.07   0
  -1  -6  -5  168.24    5.45   0
  -1  -6  -5  167.81    4.79   0
   2   6   5    8.12    1.80   0
  -2  -6  -5   11.40    2.06   0
  -2  -6  -5    0.81    1.94   0
   3   6   5   14.90    2.40   0
  -3  -6  -5    5.62    7.76   0
   4   6   5  108.41    5.30   0
  -4  -6  -5  107.51    4.70   0
   5   6   5   14.27    2.09   0
  -5  -6  -5   13.93    1.69   0
   6   6   5   30.05    1.98   0
  -6  -6  -5    8.21    1.93   0
  -6  -6  -5  -11.11    2.00   0
   7   6   5    1.72    1.83   0
  -7  -6  -5    1.55    2.01   0
 -11   7   5   82.85    4.24   0
  11  -7  -5   93.49    4.48   0
 -10   7   5    1.12    1.54   0
 -10   7   5    1.17    2.36   0
  -9   7   5    0.12    1.57   0
   9  -7  -5    0.15    2.12   0
  -8   7   5    1.19    2.37   0
  -8   7   5    1.22    1.58   0
   8  -7  -5    1.24    1.65   0
  -7   7   5   -1.41    1.52   0
   7  -7  -5   -8.38    2.24   0
  -6   7   5   11.64    2.01   0
   6  -7  -5   11.70    2.14   0
  -5   7   5   11.46    1.85   0
  -5   7   5   11.19    1.81   0
   5  -7  -5   10.96    2.43   0
  -4   7   5   13.52    2.41   0
  -4   7   5   13.59    1.69   0
  -3   7   5   69.39    2.72   0
  -3   7   5   68.51    3.27   0
  -2   7   5    0.32    2.39   0
   2  -7  -5    0.26    2.28   0
  -1   7   5   32.74    3.26   0
   1  -7  -5   33.45    3.13   0
   0   7   5  113.12    4.16   0
   0   7   5  113.32    4.32   0
   0  -7  -5  113.06    4.00   0
   1   7   5   62.71    3.88   0
  -1  -7  -5   40.17    3.75   0
   2   7   5   12.47    2.36   0
   2   7   5   11.65    1.67   0
  -2  -7  -5   12.24    2.43   0
  -2  -7  -5   11.99    1.84   0
   3   7   5   46.69    3.29   0
  -3  -7  -5   46.93    3.49   0
  -3  -7  -5   46.95    3.10   0
   4   7   5   77.27    4.09   0
  -4  -7  -5   76.71    4.29   0
   5   7   5   13.79    1.59   0
  -5  -7  -5   14.19    2.38   0
   6   7   5    8.65    2.15   0
  -6  -7  -5   -6.89    1.89   0
 -10   8   5   36.75   10.38   0
  10  -8  -5    9.86   10.18   0
  -9   8   5   -1.37    6.69   0
   9  -8  -5   11.81   11.20   0
  -8   8   5   14.80    9.79   0
  -8   8   5   10.37   15.87   0
  -7   8   5  -11.03   10.42   0
  -7   8   5   -8.08   10.51   0
  -6   8   5  176.89   11.71   0
  -6   8   5  167.29   15.55   0
  -5   8   5   11.60    8.90   0
  -5   8   5    1.40   15.32   0
  -4   8   5   18.81   12.63   0
   4  -8  -5   12.42   11.63   0
  -3   8   5   26.35   10.19   0
   3  -8  -5   17.12   11.70   0
  -2   8   5    8.80    2.00   0
   2  -8  -5    9.23    1.61   0
  -1   8   5   20.61    2.73   0
  -1   8   5   16.43    8.57   0
   1  -8  -5   64.53    3.27   0
   1  -8  -5   60.49    3.32   0
   0   8   5   -3.70    2.11   0
   0   8   5   15.58    2.34   0
   0  -8  -5   11.18    1.98   0
  -1  -8  -5   -2.74    1.96   0
  -1  -8  -5   -9.59    1.58   0
   2   8   5    9.21    1.93   0
   2   8   5   22.34    1.82   0
  -2  -8  -5   23.25    2.26   0
  -2  -8  -5   12.55    1.54   0
   3   8   5   -1.94    2.07   0
  -3  -8  -5    5.02    2.36   0
  -3  -8  -5   15.77    2.01   0
   4   8   5   10.61    2.18   0
  -4  -8  -5   11.19    2.18   0
   5   8   5    0.30    2.40   0
  -5  -8  -5    0.28    2.31   0
   6   8   5  -10.15    1.96   0
  -6  -8  -5  -12.70    1.50   0
  -9   9   5    8.54    2.01   0
  -9   9   5    9.42    1.72   0
  -8   9   5    0.64    1.72   0
   8  -9  -5    0.61    1.90   0
  -7   9   5   36.85    3.28   0
   7  -9  -5   41.02    3.19   0
  -6   9   5   16.46    2.23   0
   6  -9  -5   15.54    1.68   0
  -5   9   5    1.49    1.70   0
   5  -9  -5  -16.07    1.83   0
  -4   9   5   16.70    1.74   0
   4  -9  -5   16.63    2.47   0
  -3   9   5   17.84    2.39   0
  -3   9   5   17.77    2.04   0
   3  -9  -5   17.96    1.87   0
  -2   9   5   38.86    2.62   0
  -2   9   5   63.72    3.12   0
  -1   9   5   40.66    2.90   0
   1  -9  -5   45.74    2.73   0
   1  -9  -5   39.09    3.26   0
   0   9   5   -3.80    2.19   0
   0   9   5   24.24    2.06   0
   0  -9  -5   20.15    1.96   0
   0  -9  -5    1.02    1.86   0
   1   9   5   -4.44    1.70   0
  -1  -9  -5    6.35    1.84   0
   2   9   5    4.06    1.76   0
   2   9   5    3.80    2.47   0
  -2  -9  -5    4.03    2.04   0
   3   9   5    0.25    1.80   0
   3   9   5    0.30    1.65   0
  -3  -9  -5    0.32    2.09   0
  -3  -9  -5    0.27    2.39   0
   4   9   5    2.00    1.53   0
  -4  -9  -5    7.65    1.55   0
   5   9   5    0.67    2.27   0
  -5  -9  -5    7.25    2.37   0
  -5  -9  -5   12.51    1.51   0
  -9  10   5    4.70    2.16   0
  -9  10   5   -6.50    1.96   0
   9 -10  -5   -1.18    1.65   0
  -8  10   5    5.83    2.11   0
   8 -10  -5    5.68    2.35   0
  -7  10   5   34.94    2.83   0
   7 -10  -5   37.54    3.18   0
  -6  10   5  -13.21    2.18   0
  -6  10   5  -12.16    1.79   0
  -5  10   5   28.13    2.07   0
   5 -10  -5   28.16    1.60   0
  -4  10   5   38.34    3.07   0
  -4  10   5   37.83    2.94   0
  -3  10   5   72.31    3.53   0
   3 -10  -5   72.20    4.29   0
  -2  10   5   16.82    2.08   0
   2 -10  -5   16.58    1.59   0
  -1  10   5   77.71    4.33   0
  -1  10   5   77.66    3.77   0
   1 -10  -5   78.20    3.64   0
   1 -10  -5   77.53    3.87   0
   0  10   5   12.54    2.40   0
   0 -10  -5   -1.57    1.55   0
   0 -10  -5    0.93    2.49   0
   1  10   5    8.41    2.30   0
  -1 -10  -5    3.06    1.52   0
  -1 -10  -5    7.10    2.48   0
   2  10   5   21.25    1.54   0
  -2 -10  -5   10.50    1.66   0
   3  10   5    0.44    1.58   0
  -3 -10  -5    0.38    2.32   0
  -3 -10  -5    0.40    2.11   0
   4  10   5   31.99    3.48   0
  -4 -10  -5   32.25    2.82   0
  -7  11   5   71.21    3.13   0
  -7  11   5   70.78    2.66   0
   7 -11  -5   71.01    3.46   0
  -6  11   5   60.47    3.38   0
  -6  11   5   60.38    2.93   0
   6 -11  -5   59.70    2.89   0
  -5  11   5    5.62    2.13   0
  -5  11   5    5.75    1.80   0
   5 -11  -5    6.00    2.12   0
  -4  11   5  120.11    5.10   0
   4 -11  -5  120.07    5.41   0
  -3  11   5   82.10    4.48   0
   3 -11  -5   81.64    4.21   0
  -2  11   5   15.81    2.21   0
   2 -11  -5   16.35    1.71   0
  -1  11   5   37.13    3.38   0
   1 -11  -5   43.85    3.29   0
   0  11   5   24.86    2.31   0
   0  11   5   13.41    2.25   0
   0 -11  -5   14.75    2.39   0
   0 -11  -5   23.25    1.81   0
   1  11   5   20.35    2.22   0
   1  11   5   12.23    2.21   0
  -1 -11  -5   19.01    1.60   0
  -1 -11  -5   16.86    2.14   0
   2  11   5   43.22    2.58   0
   2  11   5   42.60    3.47   0
  -2 -11  -5   43.25    2.52   0
  -5  12   5   49.75    2.67   0
  -5  12   5   69.19    3.45   0
  -4  12   5   65.45    3.40   0
   4 -12  -5   78.98    3.65   0
  -3  12   5   36.71    2.60   0
   3 -12  -5   37.16    2.96   0
  -2  12   5    1.27    2.43   0
  -2  12   5    1.33    1.89   0
  -1  12   5    5.87    2.26   0
  -1  12   5   12.61    2.45   0
   1 -12  -5   13.86    2.31   0
   0  12   5   50.91    2.89   0
   0  12   5   51.25    2.37   0
   0 -12  -5   51.12    3.24   0
  -1 -12   6  191.08    5.89   0
   1  12  -6  191.35    5.50   0
   0 -12   6  120.06    4.55   0
   0  12  -6  119.59    4.61   0
   1 -12   6    8.63    2.12   0
  -1  12  -6    8.64    1.84   0
   2 -12   6   15.24    1.54   0
  -2  12  -6   15.29    2.35   0
  -4 -11   6    4.57    2.10   0
   4  11  -6    3.51    1.73   0
  -3 -11   6    0.09    2.08   0
   3  11  -6    0.08    2.32   0
  -2 -11   6   13.05    2.66   0
  -2 -11   6   13.49    2.52   0
  -2 -11   6   13.23    3.03   0
  -1 -11   6  108.61    5.27   0
  -1 -11   6  108.86    4.88   0
   0 -11   6  185.85    3.50   0
   0  11  -6  186.27    4.00   0
   1 -11   6    6.27    2.02   0
  -1  11  -6    5.82    1.56   0
   2 -11   6    0.19    1.73   0
  -2  11  -6    0.20    2.45   0
  -3  11  -6  -26.48    2.09   0
   4 -11   6    0.13    2.19   0
  -4  11  -6    0.11    1.67   0
  -5 -10   6   22.07    2.08   0
  -5 -10   6   22.40    1.81   0
  -4 -10   6   30.50    2.04   0
  -4 -10   6   31.27    2.49   0
  -4 -10   6   31.19    2.03   0
  -3 -10   6    6.80    2.35   0
   3  10  -6    7.44    1.76   0
  -2 -10   6    2.40    1.91   0
  -2 -10   6   11.07    1.98   0
  -2 -10   6   14.74    1.73   0
   2  10  -6    4.17    2.26   0
  -1 -10   6   28.16    2.50   0
  -1 -10   6   27.83    3.37   0
   1  10  -6   27.89    2.60   0
   0 -10   6   29.56    2.69   0
   0  10  -6   29.80    2.62   0
   1 -10   6   14.25    2.16   0
  -1  10  -6   14.12    1.67   0
   2 -10   6    3.36    1.59   0
  -2  10  -6    3.26    1.64   0
   3 -10   6   13.70    1.66   0
  -3  10  -6   13.66    1.73   0
   4 -10   6   -2.27    2.17   0
  -4  10  -6   51.15    3.63   0
   5 -10   6   31.87    3.88   0
  -5  10  -6   69.42    3.79   0
  -6  10  -6   43.43    4.31   0
  -7  -9   6  -11.76    2.16   0
  -7  -9   6    4.77    1.98   0
  -6  -9   6   71.14    4.25   0
  -6  -9   6   71.12    3.97   0
  -5  -9   6  376.52    5.57   0
  -5  -9   6  377.46    5.97   0
  -4  -9   6   96.72    4.92   0
  -4  -9   6   97.28    4.61   0
  -3  -9   6    4.84    2.08   0
  -3  -9   6    4.57    2.41   0
  -2  -9   6    1.29    2.32   0
  -2  -9   6    1.33    1.84   0
  -2  -9   6    1.32    1.62   0
   2   9  -6    1.28    1.90   0
  -1  -9   6   -1.60    1.81   0
  -1  -9   6   10.30    1.59   0
   0  -9   6   25.85    1.89   0
   0   9  -6   25.90    1.78   0
   1  -9   6    9.28    2.08   0
  -1   9  -6    8.96    2.41   0
   2  -9   6    1.06    2.24   0
  -2   9  -6   19.14    1.89   0
   3  -9   6  217.10    5.29   0
  -3   9  -6  217.21    4.53   0
   4  -9   6   23.67    1.89   0
  -4   9  -6  -12.44    1.86   0
   5  -9   6   14.85    2.45   0
  -6   9  -6    4.36    1.62   0
  -7   9  -6    4.42    1.78   0
  -7   9  -6    4.18    1.97   0
  -8  -8   6   26.33    1.99   0
  -8  -8   6   19.40    1.62   0
  -7  -8   6    2.76    2.34   0
  -7  -8   6    3.15    1.56   0
  -6  -8   6  -12.31    1.96   0
  -6  -8   6    5.08    9.00   0
  -6  -8   6   24.08    9.24   0
  -5  -8   6    5.29    2.26   0
  -5  -8   6    4.60    2.33   0
  -4  -8   6    0.03    2.26   0
  -4  -8   6    0.04    2.06   0
  -3  -8   6    4.49    2.18   0
  -3  -8   6    3.57    1.50   0
   3   8  -6    3.60    2.14   0
  -2  -8   6   56.10    3.22   0
   2   8  -6   56.29    3.17   0
  -1  -8   6  288.23    7.59   0
  -1  -8   6  268.85    7.53   0
   1   8  -6  406.99    8.24   0
   0  -8   6    6.24    2.14   0
   0   8  -6    6.42    2.41   0
   1  -8   6   10.49    1.65   0
  -1   8  -6   10.63    1.55   0
   2  -8   6   67.37    4.16   0
  -2   8  -6   66.65    3.87   0
   3  -8   6  252.68    6.11   0
  -3   8  -6  253.29    6.03   0
   4  -8   6   56.79    2.92   0
  -4   8  -6   40.14    3.48   0
   5  -8   6    9.23    1.90   0
  -5   8  -6    9.12    1.54   0
  -6   8  -6   12.95    1.43   0
  -6   8  -6    3.98    2.21   0
  -6   8  -6   -0.94    1.94   0
  -7   8  -6    7.44    2.44   0
  -7   8  -6   32.36    1.54   0
  -7   8  -6   17.60    1.60   0
  -8  -7   6   36.02    3.45   0
  -8  -7   6   35.57    3.26   0
  -7  -7   6    4.51    1.97   0
  -7  -7   6   18.38    2.43   0
  -6  -7   6    0.30    2.49   0
  -6  -7   6    0.31    1.76   0
  -5  -7   6    0.08    1.56   0
  -5  -7   6    0.12    1.67   0
  -4  -7   6   17.48    2.05   0
  -4  -7   6   14.35    2.39   0
  -3  -7   6  196.67    4.87   0
   3   7  -6  273.90    5.20   0
  -2  -7   6  337.47    4.69   0
   2   7  -6  350.65    5.33   0
  -1  -7   6    9.98    1.52   0
  -1  -7   6    9.65    2.05   0
   0  -7   6   13.85    1.67   0
   0   7  -6   13.71    1.50   0
   1  -7   6    4.50    1.53   0
  -1   7  -6    4.78    1.83   0
   2  -7   6    8.96    3.24   0
  -2   7  -6    9.24    2.78   0
   3  -7   6    9.23    1.68   0
  -3   7  -6    8.88    1.84   0
   4  -7   6    3.81    1.51   0
  -4   7  -6    3.86    1.54   0
   5  -7   6   32.81    2.57   0
  -5   7  -6   32.71    3.14   0
  -5   7  -6   32.92    3.26   0
   6  -7   6   26.45    2.39   0
  -6   7  -6   25.74    1.81   0
  -6   7  -6   25.56    1.97   0
   7  -7   6    1.71    2.44   0
  -7   7  -6    1.62    1.54   0
  -7   7  -6    1.51    1.94   0
  -8   7  -6  -12.17    2.36   0
  -8   7  -6   -4.98    1.52   0
  -8   7  -6   -5.24    2.03   0
  -9  -6   6   16.37    3.10   0
  -9  -6   6   15.88    3.46   0
  -8  -6   6    5.10    2.21   0
  -8  -6   6   -2.41    1.65   0
  -8  -6   6    9.20    2.25   0
  -7  -6   6    9.34    1.91   0
  -7  -6   6   -8.24    2.04   0
  -6  -6   6  -14.02    1.66   0
  -6  -6   6  -28.79    1.89   0
  -6  -6   6    1.91    1.70   0
  -5  -6   6    5.49    2.21   0
  -5  -6   6    5.52    1.94   0
  -4  -6   6   15.19    1.98   0
  -4  -6   6   14.50    2.07   0
  -4  -6   6   14.81    2.44   0
  -3  -6   6  118.92    4.66   0
   3   6  -6  119.75    5.11   0
  -2  -6   6  155.81    4.78   0
  -2  -6   6  156.39    5.36   0
  -2  -6   6  156.24    4.73   0
   2   6  -6  156.02    4.78   0
  -1  -6   6  127.17    5.34   0
  -1  -6   6  127.11    5.44   0
   1   6  -6  127.42    5.12   0
   0  -6   6    1.33    2.52   0
   0   6  -6    1.34    3.32   0
   1  -6   6    2.54    2.38   0
  -1   6  -6    3.01    1.62   0
   2  -6   6   47.00    2.77   0
  -2   6  -6   46.73    3.35   0
   3  -6   6   68.90    3.33   0
  -3   6  -6   69.13    3.24   0
   4  -6   6   16.57    1.79   0
  -4   6  -6   16.63    1.83   0
  -4   6  -6   16.53    1.92   0
  -4   6  -6   17.19    2.49   0
  -5   6  -6   15.72    2.06   0
  -5   6  -6   -0.99    1.60   0
  -5   6  -6    1.39    1.82   0
   6  -6   6   21.08    2.24   0
  -6   6  -6   21.49    2.18   0
  -7   6  -6    2.84    1.93   0
  -7   6  -6   -2.42    1.90   0
  -8   6  -6  -18.73    1.88   0
  -8   6  -6   -1.98    1.93   0
 -10  -5   6   15.58    1.98   0
 -10  -5   6   16.22    1.83   0
  -9  -5   6   37.25    2.05   0
  -9  -5   6   16.55    1.62   0
  -8  -5   6    3.57    2.42   0
  -8  -5   6    3.85    2.22   0
  -7  -5   6   36.20    2.98   0
  -7  -5   6   35.84    3.38   0
  -6  -5   6  456.58    5.33   0
  -6  -5   6  456.97    4.59   0
  -5  -5   6  133.19    5.28   0
  -5  -5   6  132.68    4.69   0
  -4  -5   6   60.69    4.40   0
  -4  -5   6   60.93    4.30   0
  -4  -5   6   61.40    3.54   0
  -3  -5   6   78.88    4.35   0
  -3  -5   6   79.23    4.20   0
  -3  -5   6   78.53    3.89   0
  -2  -5   6    2.20    1.95   0
  -2  -5   6   15.58    2.23   0
   2   5  -6   -2.69    2.48   0
  -1  -5   6   19.98    2.41   0
  -1  -5   6   12.83    2.01   0
  -1  -5   6   10.17    2.45   0
   0  -5   6   13.03    2.33   0
   0   5  -6   13.37    2.49   0
   1  -5   6  159.17    5.10   0
  -1   5  -6  158.66    5.30   0
   2  -5   6  572.74    6.84   0
  -2   5  -6  572.66    7.22   0
   3  -5   6  137.82    5.17   0
  -3   5  -6  137.84    5.24   0
  -3   5  -6  138.00    5.27   0
   4  -5   6   35.20    2.37   0
  -4   5  -6   30.09    2.34   0
  -4   5  -6   19.88    1.87   0
   5  -5   6   11.41    1.81   0
  -5   5  -6   10.54    1.86   0
  -5   5  -6   11.06    2.18   0
  -6   5  -6   26.58    2.76   0
  -6   5  -6   37.62    2.87   0
   7  -5   6    8.87    1.55   0
  -7   5  -6    8.72    1.84   0
   8  -5   6    4.43    1.73   0
  -8   5  -6    4.03    1.79   0
  -9   5  -6   -4.05    1.92   0
  -9   5  -6    5.15    2.19   0
 -10  -4   6    6.56    2.09   0
 -10  -4   6    7.01    2.33   0
  -9  -4   6   -6.72    2.16   0
  -9  -4   6   -9.50    1.70   0
  -8  -4   6    1.72    2.27   0
  -8  -4   6    2.06    1.95   0
  -7  -4   6  204.72    5.89   0
  -7  -4   6  204.75    5.80   0
  -6  -4   6  388.19    7.11   0
  -6  -4   6  387.80    6.77   0
  -5  -4   6   20.23    2.42   0
  -5  -4   6   20.21    2.36   0
  -5  -4   6   20.22    1.80   0
  -4  -4   6  134.71    5.01   0
  -4  -4   6  133.04    5.34   0
  -3  -4   6   36.30    2.94   0
  -3  -4   6   35.52    2.75   0
  -2  -4   6  250.72    5.11   0
   2   4  -6  250.70    5.19   0
  -1  -4   6  132.61    4.91   0
   1   4  -6  133.04    5.20   0
   0  -4   6    7.21    2.37   0
   0   4  -6    7.33    2.37   0
   1  -4   6  811.19    6.94   0
  -1   4  -6  811.06    7.08   0
   2  -4   6  461.04    6.02   0
  -2   4  -6  461.18    5.83   0
  -3   4  -6   35.78    3.12   0
  -3   4  -6   17.47    3.19   0
  -3   4  -6   30.96    3.22   0
   4  -4   6   38.93    2.56   0
  -4   4  -6   41.75    3.45   0
  -4   4  -6   66.05    2.74   0
   5  -4   6  202.25    5.06   0
  -5   4  -6  202.41    5.47   0
  -6   4  -6  100.27    4.04   0
  -6   4  -6  100.07    3.72   0
  -7   4  -6   10.80    1.54   0
  -7   4  -6   -8.15    2.46   0
  -8   4  -6   -3.13    2.28   0
  -8   4  -6   -5.21    1.61   0
  -8   4  -6   -5.73    1.65   0
  -9   4  -6  -12.62    2.30   0
  -9   4  -6   17.71    2.48   0
 -11  -3   6    9.70    2.15   0
 -11  -3   6    0.10    1.75   0
 -10  -3   6  -26.79   10.59   0
 -10  -3   6  -26.51   18.86   0
  -9  -3   6  -11.43    9.97   0
  -9  -3   6   37.83   14.65   0
  -8  -3   6   -1.38    2.01   0
  -8  -3   6   11.01    2.41   0
  -7  -3   6  179.77    5.32   0
  -7  -3   6  139.75    5.18   0
  -6  -3   6    5.26    2.14   0
  -6  -3   6    5.48    2.35   0
  -5  -3   6   -0.12    1.55   0
  -5  -3   6   22.80    1.53   0
  -5  -3   6  -22.61    2.16   0
  -4  -3   6  335.32    4.96   0
  -4  -3   6  335.15    4.92   0
  -3  -3   6 1365.42   11.88   0
   3   3  -6 1364.72   11.59   0
  -2  -3   6  399.51    6.87   0
   2   3  -6  400.44    6.81   0
  -1  -3   6  130.58    5.02   0
  -1  -3   6  117.23    5.36   0
   1   3  -6  212.91    5.31   0
   0  -3   6   13.34    2.37   0
   0   3  -6   13.43    1.92   0
   1  -3   6   87.66    3.57   0
   1  -3   6  110.60    5.19   0
  -1   3  -6   80.70    4.14   0
   2  -3   6   24.40    2.14   0
   2  -3   6    4.92    1.85   0
  -2   3  -6    6.78    2.23   0
   3  -3   6   29.28    3.22   0
  -3   3  -6   29.42    3.24   0
  -4   3  -6  183.96    5.30   0
  -4   3  -6  183.58    5.49   0
   5  -3   6  561.59    4.74   0
  -5   3  -6  562.37    4.88   0
  -6   3  -6   94.48    3.84   0
  -6   3  -6   93.96    4.43   0
  -7   3  -6   31.61    2.61   0
  -7   3  -6   42.71    2.63   0
   8  -3   6    4.90    1.76   0
  -8   3  -6    5.41    2.16   0
  -9   3  -6   12.76    2.27   0
  -9   3  -6   12.52    1.95   0
  -9   3  -6   13.01    1.50   0
 -11  -2   6   23.15    1.97   0
 -11  -2   6   23.49    1.93   0
 -10  -2   6    1.11    1.63   0
 -10  -2   6    1.18    1.95   0
  -9  -2   6    0.43    1.76   0
  -9  -2   6    0.36    1.59   0
  -8  -2   6   20.57    1.78   0
  -8  -2   6   -6.13    2.36   0
  -7  -2   6    6.40    2.31   0
  -7  -2   6    5.64    2.03   0
  -6  -2   6   43.74    2.65   0
  -5  -2   6   26.04    1.57   0
   5   2  -6   26.12    2.31   0
  -4  -2   6   93.33    4.05   0
  -4  -2   6   93.36    4.09   0
   4   2  -6   92.70    4.20   0
  -3  -2   6  936.68   10.01   0
  -3  -2   6  945.41   10.38   0
   3   2  -6  911.61    9.62   0
  -2  -2   6   28.06    2.79   0
   2   2  -6   28.34    3.11   0
  -1  -2   6    8.45    1.73   0
  -1  -2   6    7.96    2.41   0
   1   2  -6    8.49    1.59   0
   0  -2   6  136.45    5.28   0
   0   2  -6  135.97    5.18   0
   0   2  -6  135.50    5.43   0
   1  -2   6   21.11    2.15   0
  -1   2  -6   20.94    1.50   0
   2  -2   6  130.05    4.56   0
  -2   2  -6  130.41    5.30   0
   3  -2   6    1.15    2.33   0
  -3   2  -6    1.13    1.72   0
   4  -2   6   42.68    2.55   0
  -4   2  -6   42.75    3.12   0
   5  -2   6   45.59    2.77   0
  -5   2  -6   17.84    2.36   0
  -5   2  -6   46.21    2.95   0
   6  -2   6    5.24    2.19   0
  -6   2  -6    5.12    1.64   0
   7  -2   6    2.39    2.16   0
  -7   2  -6    2.42    2.15   0
   8  -2   6   16.18    1.75   0
  -8   2  -6   15.90    2.10   0
  -8   2  -6   16.08    2.23   0
   9  -2   6   16.15    3.00   0
  -9   2  -6   15.64    3.32   0
 -11  -1   6   19.98    2.40   0
 -11  -1   6   20.13    2.20   0
 -10  -1   6   -7.59    7.36   0
 -10  -1   6   76.80   11.14   0
  -9  -1   6   40.54    3.16   0
  -9  -1   6   41.19    3.32   0
  -8  -1   6   68.03    3.85   0
  -8  -1   6   68.10    3.80   0
  -7  -1   6    5.80    2.40   0
   7   1  -6    5.82    2.19   0
  -6  -1   6    4.08    1.58   0
   6   1  -6    3.90    2.38   0
  -5  -1   6    0.48    1.99   0
   5   1  -6    0.50    1.74   0
  -4  -1   6   23.28    2.20   0
   4   1  -6   22.61    2.45   0
  -3  -1   6  288.13    6.42   0
   3   1  -6  287.66    5.76   0
  -2  -1   6   74.68    3.53   0
  -2  -1   6   71.78    3.75   0
  -1  -1   6    4.39    1.92   0
  -1  -1   6    3.80    1.56   0
   1   1  -6   18.35    2.10   0
   0  -1   6   13.40    1.51   0
   0   1  -6   12.58    2.11   0
   1  -1   6  498.90    6.79   0
  -1   1  -6  498.60    7.30   0
   2  -1   6   19.14    1.61   0
   2  -1   6   24.44    2.03   0
  -2   1  -6   22.94    2.33   0
  -2   1  -6   30.23    1.54   0
   3  -1   6    2.64    1.75   0
  -3   1  -6   13.45    2.33   0
  -3   1  -6   -4.11    2.44   0
   4  -1   6   48.53    3.23   0
  -4   1  -6   48.61    3.01   0
  -5   1  -6   77.68    4.45   0
  -5   1  -6   96.23    4.27   0
  -6   1  -6   36.94    1.63   0
  -6   1  -6   24.53    1.78   0
  -7   1  -6   -0.41    2.18   0
  -7   1  -6   11.01    2.32   0
   8  -1   6    3.80    1.84   0
  -8   1  -6    4.39    1.61   0
   9  -1   6   45.96    3.30   0
  -9   1  -6   46.29    3.40   0
  -9   1  -6   46.37    2.53   0
 -11   0   6   18.61    2.23   0
 -11   0   6   18.55    1.70   0
 -10   0   6    1.38    3.37   0
 -10   0   6    1.35    2.79   0
  -9   0   6   28.51    3.33   0
  -9   0   6   72.58    2.64   0
  -8   0   6  126.54    5.01   0
   8   0  -6  127.00    4.55   0
  -7   0   6 1013.28   10.71   0
   7   0  -6 1012.98   10.67   0
  -6   0   6   29.73    2.39   0
   6   0  -6    2.04    1.79   0
  -5   0   6   16.88    1.75   0
   5   0  -6   17.45    1.52   0
  -4   0   6  -10.37    2.19   0
   4   0  -6   29.59    2.08   0
  -3   0   6   -5.77    1.97   0
   3   0  -6   22.80    1.57   0
  -2   0   6   39.31    2.88   0
   2   0  -6   38.84    3.05   0
  -1   0   6  271.73    5.97   0
   1   0  -6  271.89    5.93   0
   0   0   6 2655.54   13.46   0
   0   0  -6 2656.05   12.80   0
   1   0   6 9999.99   14.36   0
  -1   0  -6 9720.21   13.60   0
   2   0   6  309.25    5.76   0
  -2   0  -6  308.76    5.57   0
   3   0   6   20.52    1.77   0
  -3   0  -6   21.25    1.94   0
   4   0   6   23.95    2.48   0
  -4   0  -6   24.33    2.47   0
   5   0   6   58.82    2.70   0
  -5   0  -6   25.47    2.84   0
  -5   0  -6   35.02    2.86   0
  -5   0  -6   40.39    2.84   0
   6   0   6   99.67    4.94   0
  -6   0  -6   99.77    4.71   0
   7   0   6   -4.20    9.00   0
  -7   0  -6   11.92    2.29   0
  -7   0  -6    0.52    1.71   0
  -7   0  -6  -16.59    2.28   0
   8   0   6  108.90    4.95   0
  -8   0  -6  109.04    4.53   0
   9   0   6   89.10    3.81   0
  -9   0  -6   88.62    4.43   0
 -11   1   6   31.33    2.30   0
 -11   1   6   30.86    1.79   0
 -10   1   6   10.25    2.30   0
 -10   1   6   10.32    1.99   0
  -9   1   6   78.68    3.75   0
   9  -1  -6   78.91    2.94   0
  -8   1   6   41.82    2.86   0
   8  -1  -6   41.51    3.24   0
  -7   1   6    2.94    1.76   0
   7  -1  -6    2.90    2.37   0
  -6   1   6   14.01    2.04   0
   6  -1  -6   14.29    2.19   0
  -5   1   6    4.71    2.25   0
   5  -1  -6    4.67    1.84   0
  -4   1   6   49.78    3.96   0
   4  -1  -6   50.32    3.67   0
  -3   1   6  619.90    7.60   0
   3  -1  -6  620.39    7.60   0
  -2   1   6   29.20    3.44   0
   2  -1  -6   29.49    2.74   0
  -1   1   6   89.94    3.82   0
   1  -1  -6   89.60    4.19   0
   0   1   6   53.29    3.28   0
   0  -1  -6   52.89    3.03   0
   1   1   6  417.67    7.08   0
  -1  -1  -6  417.91    6.93   0
   2   1   6   12.07    3.55   0
  -2  -1  -6   12.18    3.81   0
   3   1   6   27.07    3.46   0
  -3  -1  -6   26.94    3.00   0
   4   1   6   47.90    3.01   0
  -4  -1  -6   47.94    3.05   0
   5   1   6  142.53    5.05   0
  -5  -1  -6  142.93    4.66   0
   6   1   6   -0.75    2.17   0
  -6  -1  -6   -1.71    1.99   0
   7   1   6    1.41    2.34   0
  -7  -1  -6    1.49    2.36   0
  -7  -1  -6    1.35    1.88   0
   8   1   6   12.35    2.34   0
  -8  -1  -6   12.38    2.22   0
  -8  -1  -6   11.55    1.06   0
  -9  -1  -6   32.45    2.74   0
  -9  -1  -6   31.67    3.30   0
  -9  -1  -6   32.19    3.34   0
  -9  -1  -6    1.65    2.19   0
 -12   2   6   24.25    2.27   0
 -12   2   6   23.61    1.80   0
 -11   2   6   28.19    3.32   0
 -11   2   6   28.25    3.10   0
 -10   2   6   10.38    1.91   0
  10  -2  -6   10.30    1.59   0
  -9   2   6    6.94    1.68   0
   9  -2  -6    6.92    2.24   0
  -8   2   6   43.22    2.15   0
   8  -2  -6  -26.58    1.60   0
  -7   2   6   51.21    4.10   0
   7  -2  -6   51.05    3.70   0
  -6   2   6  -19.02    2.50   0
   6  -2  -6   46.85    3.41   0
  -5   2   6   22.35    2.13   0
   5  -2  -6   -0.78    2.41   0
  -4   2   6  543.17    4.68   0
   4  -2  -6  471.75    5.10   0
  -3   2   6  562.86    5.23   0
   3  -2  -6  261.16    5.44   0
  -2   2   6    4.75    1.94   0
   2  -2  -6    4.61    2.00   0
  -1   2   6    6.94    1.95   0
   1  -2  -6    7.19    2.19   0
   0   2   6  200.39    5.91   0
   0   2   6  199.77    5.69   0
   1   2   6  112.63    4.81   0
  -1  -2  -6  112.62    4.57   0
   2   2   6  -13.87    3.30   0
  -2  -2  -6  -21.76    3.47   0
   3   2   6   46.30    2.89   0
  -3  -2  -6   63.35    2.81   0
   4   2   6    5.33    2.67   0
  -4  -2  -6   37.63    3.47   0
   5   2   6   30.87    3.43   0
  -5  -2  -6   -1.78    3.37   0
   6   2   6   10.00    1.91   0
  -6  -2  -6    9.80    1.98   0
   7   2   6    2.53    3.19   0
  -7  -2  -6    2.40    3.35   0
   8   2   6   25.75    2.06   0
  -8  -2  -6   26.15    2.00   0
 -11   3   6   18.48    2.24   0
 -10   3   6   27.45    2.02   0
  10  -3  -6  -10.76    1.64   0
  -9   3   6    0.25    2.15   0
   9  -3  -6    0.21    1.58   0
  -8   3   6   65.13    4.78   0
   8  -3  -6   64.95    4.88   0
  -7   3   6   11.63    1.51   0
   7  -3  -6   12.27    1.66   0
  -6   3   6    3.42    1.58   0
   6  -3  -6    2.70    1.86   0
  -5   3   6  174.33    5.15   0
   5  -3  -6  173.61    5.48   0
  -4   3   6 1448.82   11.93   0
   4  -3  -6 1448.99   11.67   0
  -3   3   6  849.35    6.23   0
   3  -3  -6  848.77    6.17   0
  -2   3   6  110.80    5.46   0
   2  -3  -6  174.00    5.17   0
  -1   3   6    0.63    1.80   0
   1  -3  -6    0.60    2.23   0
   0   3   6    2.66    2.03   0
   0   3   6    3.28    2.20   0
   0  -3  -6    2.93    1.68   0
   1   3   6    4.28    1.95   0
  -1  -3  -6    5.92    2.26   0
   2   3   6   13.00    1.77   0
  -2  -3  -6    0.35    1.61   0
   3   3   6   45.43    3.64   0
  -3  -3  -6   44.51    3.66   0
   4   3   6  741.38    6.93   0
  -4  -3  -6  741.33    7.31   0
   5   3   6  182.15    4.73   0
  -5  -3  -6  181.56    4.72   0
   6   3   6   33.28    2.31   0
  -6  -3  -6    3.69    1.75   0
   7   3   6   10.12    2.02   0
  -7  -3  -6   10.16    2.29   0
   8   3   6   15.04    1.76   0
  -8  -3  -6   14.80    1.50   0
 -11   4   6    2.13    1.81   0
  11  -4  -6    2.15    1.93   0
 -10   4   6    0.63    1.94   0
  10  -4  -6    0.57    2.07   0
  -9   4   6    5.90    2.07   0
   9  -4  -6    6.11    2.16   0
  -8   4   6  210.51    6.27   0
   8  -4  -6  210.93    6.37   0
  -7   4   6  472.47    7.08   0
   7  -4  -6  471.86    7.13   0
  -6   4   6   -1.75    1.99   0
   6  -4  -6    8.57    1.70   0
  -5   4   6   63.58    3.92   0
   5  -4  -6   63.67    4.44   0
  -4   4   6  186.38    5.17   0
   4  -4  -6  185.72    5.08   0
  -3   4   6  182.38    4.72   0
   3  -4  -6  182.18    4.99   0
  -2   4   6  121.74    4.26   0
   2  -4  -6  122.41    3.97   0
  -1   4   6    7.14    2.03   0
   1  -4  -6    6.68    1.62   0
   0   4   6  816.70    7.79   0
   0  -4  -6  817.18    7.54   0
   1   4   6  552.68    5.62   0
  -1  -4  -6  552.94    5.81   0
   2   4   6   16.65    2.44   0
  -2  -4  -6   17.20    1.88   0
   3   4   6   31.71    2.42   0
  -3  -4  -6   26.85    1.70   0
   4   4   6  236.64    5.11   0
  -4  -4  -6  237.05    5.20   0
   5   4   6   52.92    4.41   0
  -5  -4  -6   53.01    4.23   0
   6   4   6    6.67    1.56   0
  -6  -4  -6    6.74    1.87   0
   7   4   6    3.82    1.71   0
  -7  -4  -6  -15.41    1.64   0
   8   4   6   80.03    4.48   0
  -8  -4  -6   90.22    4.28   0
 -11   5   6   21.62    2.63   0
  11  -5  -6   22.20    3.01   0
 -10   5   6    5.15    2.04   0
  10  -5  -6    5.42    1.89   0
  -9   5   6   -4.80    1.50   0
   9  -5  -6  -11.51    1.60   0
  -8   5   6  201.98    4.74   0
   8  -5  -6  202.42    5.42   0
  -7   5   6  784.16    6.88   0
   7  -5  -6  784.08    7.07   0
  -6   5   6   29.24    2.00   0
   6  -5  -6   29.36    2.11   0
  -5   5   6  130.37    4.74   0
  -5   5   6  130.31    5.03   0
  -4   5   6   54.98    3.09   0
  -4   5   6   54.94    3.13   0
   4  -5  -6   54.77    2.89   0
  -3   5   6   14.50    1.77   0
   3  -5  -6   17.96    2.23   0
  -2   5   6   15.36    2.07   0
   2  -5  -6   12.94    2.35   0
  -1   5   6    5.29    1.55   0
   1  -5  -6    4.80    1.70   0
   0   5   6  498.65    6.13   0
   0  -5  -6  498.62    5.57   0
   1   5   6  665.32    7.24   0
  -1  -5  -6  665.30    6.83   0
   2   5   6    1.23    1.82   0
   2   5   6    6.25    2.15   0
  -2  -5  -6   -1.16    1.85   0
   3   5   6   30.28    3.36   0
  -3  -5  -6   30.34    3.02   0
  -3  -5  -6   29.88    3.15   0
   4   5   6   31.48    2.01   0
  -4  -5  -6   19.61    1.98   0
   5   5   6   10.23    1.98   0
  -5  -5  -6    4.62    1.70   0
  -5  -5  -6   15.01    2.40   0
  -6  -5  -6  -13.80    2.48   0
  -6  -5  -6   -6.58    1.78   0
   7   5   6  -12.52    2.26   0
  -7  -5  -6   24.09    2.28   0
  -7  -5  -6    5.47    2.04   0
 -11   6   6   43.77    2.63   0
 -11   6   6   44.05    2.63   0
 -10   6   6   12.82    2.40   0
  10  -6  -6   13.20    2.13   0
  -9   6   6   26.20    2.37   0
   9  -6  -6   25.50    1.89   0
  -8   6   6    8.61    2.05   0
   8  -6  -6    9.36    1.89   0
  -7   6   6    7.53    1.86   0
   7  -6  -6    8.13    1.99   0
  -6   6   6  -30.29    1.94   0
  -6   6   6   13.45    1.68   0
   6  -6  -6   57.88    2.01   0
  -5   6   6   55.43    3.06   0
   5  -6  -6   66.15    3.42   0
  -4   6   6  183.82    5.40   0
   4  -6  -6  183.58    4.64   0
  -3   6   6  221.64    5.82   0
   3  -6  -6  231.80    6.13   0
  -2   6   6   27.94    2.98   0
  -2   6   6   28.24    3.44   0
  -1   6   6    1.69    2.06   0
   1  -6  -6    3.12    2.15   0
   0   6   6   14.22    2.47   0
   0  -6  -6   14.04    1.93   0
   1   6   6   56.19    3.70   0
   1   6   6   55.63    3.73   0
   2   6   6   16.79    1.91   0
   2   6   6   36.19    2.08   0
   3   6   6    0.19    1.59   0
  -3  -6  -6    0.23    1.54   0
  -3  -6  -6    0.18    2.30   0
   4   6   6    2.73    2.47   0
  -4  -6  -6    3.14    2.18   0
  -4  -6  -6    3.11    1.96   0
   5   6   6    6.50    1.71   0
  -5  -6  -6    7.38    2.43   0
  -5  -6  -6    6.81    1.57   0
   6   6   6    1.63    2.09   0
  -6  -6  -6    1.81    2.49   0
   7   6   6   12.71    1.91   0
  -7  -6  -6    8.38    2.46   0
 -10   7   6   73.95    3.61   0
  10  -7  -6   63.31    4.38   0
  -9   7   6   17.40    1.54   0
   9  -7  -6   16.89    2.02   0
  -8   7   6    0.93    2.12   0
   8  -7  -6    0.87    2.04   0
  -7   7   6    6.59    1.37   0
   7  -7  -6    6.78    1.48   0
  -6   7   6    1.99    1.82   0
   6  -7  -6   -3.68    2.17   0
  -5   7   6  333.20    4.74   0
   5  -7  -6  333.09    4.67   0
  -4   7   6  215.35    4.56   0
   4  -7  -6  214.68    5.00   0
  -3   7   6   50.97    3.98   0
   3  -7  -6   50.91    3.66   0
  -2   7   6   56.44    2.62   0
   2  -7  -6   56.21    3.17   0
  -1   7   6   12.19    2.24   0
   1  -7  -6   12.46    1.69   0
   0   7   6   13.41    2.49   0
   0  -7  -6    1.05    2.47   0
   1   7   6   19.74    2.37   0
   1   7   6    0.74    1.70   0
  -1  -7  -6    2.91    1.88   0
   2   7   6   15.12    2.23   0
  -2  -7  -6    8.78    1.93   0
   3   7   6   31.12    3.10   0
  -3  -7  -6   30.94    3.35   0
  -3  -7  -6   30.55    2.96   0
   4   7   6   18.35    1.77   0
  -4  -7  -6   59.73    2.60   0
  -4  -7  -6   39.72    2.65   0
   5   7   6   14.28    2.49   0
  -5  -7  -6   14.38    1.91   0
   6   7   6    3.47    1.86   0
  -6  -7  -6    2.87    2.28   0
 -10   8   6   -9.63    2.03   0
 -10   8   6   -3.05    2.34   0
  10  -8  -6    2.18    1.58   0
  -9   8   6    0.49    1.55   0
   9  -8  -6    0.39    1.62   0
  -8   8   6   26.62    2.60   0
  -8   8   6   38.77    2.82   0
  -7   8   6    9.11    1.51   0
   7  -8  -6    9.26    1.87   0
  -6   8   6    5.68    2.26   0
  -6   8   6    5.88    1.55   0
  -5   8   6   10.23    2.05   0
  -5   8   6    9.74    2.37   0
   5  -8  -6    9.65    1.71   0
  -4   8   6  142.00    5.04   0
   4  -8  -6  149.63    5.42   0
  -3   8   6  365.23    5.87   0
   3  -8  -6  365.06    6.24   0
  -2   8   6   15.20    2.35   0
   2  -8  -6   15.08    1.51   0
  -1   8   6    4.29    2.25   0
  -1   8   6    3.72    1.97   0
   0   8   6  221.11    4.71   0
   0   8   6  222.60    4.57   0
   1   8   6  120.03    5.43   0
  -1  -8  -6  115.43    5.48   0
  -1  -8  -6  137.25    4.62   0
   2   8   6   31.30    3.45   0
  -2  -8  -6   30.69    3.07   0
   3   8   6    6.03    1.83   0
   3   8   6    5.77    1.79   0
  -3  -8  -6    6.40    2.06   0
  -3  -8  -6    5.96    1.68   0
   4   8   6   45.68    3.54   0
  -4  -8  -6   46.09    3.52   0
   5   8   6   35.41    3.41   0
  -5  -8  -6   34.92    3.30   0
  -9   9   6   26.29    1.99   0
   9  -9  -6   21.44    1.82   0
  -8   9   6  396.05    4.58   0
   8  -9  -6  396.02    5.42   0
  -7   9   6  445.29    4.88   0
   7  -9  -6  445.18    5.35   0
  -6   9   6   33.55    2.05   0
  -6   9   6  -21.83    2.42   0
   6  -9  -6    7.30    2.15   0
  -5   9   6   12.14    2.36   0
   5  -9  -6    0.37    2.35   0
  -4   9   6    6.58    2.34   0
   4  -9  -6    6.85    1.64   0
  -3   9   6   31.20    2.32   0
   3  -9  -6    5.82    1.62   0
  -2   9   6   21.14    1.90   0
  -2   9   6   20.79    2.42   0
  -1   9   6    3.11    1.70   0
   1  -9  -6    2.71    1.72   0
   0   9   6  127.57    4.84   0
   0  -9  -6  127.91    5.31   0
   1   9   6  148.38    4.58   0
  -1  -9  -6  148.44    5.25   0
   2   9   6   10.58    1.53   0
   2   9   6   -9.61    2.10   0
  -2  -9  -6   -5.56    2.22   0
   3   9   6   20.95    2.46   0
  -3  -9  -6   27.57    2.04   0
  -3  -9  -6   25.74    1.50   0
  -4  -9  -6    6.47    1.66   0
  -4  -9  -6   12.44    2.09   0
  -8  10   6   62.30    3.50   0
  -8  10   6   61.60    3.71   0
   8 -10  -6   62.09    3.97   0
  -7  10   6   86.04    4.38   0
  -7  10   6   43.96    4.00   0
   7 -10  -6   86.13    4.46   0
  -6  10   6  -29.57    1.88   0
   6 -10  -6   -6.14    2.41   0
  -5  10   6    9.30    2.13   0
   5 -10  -6    9.16    1.82   0
  -4  10   6   35.63    2.85   0
  -4  10   6   39.57    2.81   0
   4 -10  -6   28.68    1.51   0
  -3  10   6   17.88    2.41   0
   3 -10  -6   18.32    1.67   0
  -2  10   6   64.85    3.53   0
   2 -10  -6   64.79    3.99   0
  -1  10   6   -3.09    2.15   0
   1 -10  -6   11.34    2.31   0
   0  10   6   12.38    2.13   0
   0 -10  -6   11.51    2.31   0
   1  10   6   11.04    2.00   0
  -1 -10  -6   11.42    2.30   0
   2  10   6   20.51    2.19   0
   2  10   6   20.82    2.28   0
  -2 -10  -6   21.05    2.31   0
   3  10   6   34.60    3.49   0
   3  10   6   34.85    2.66   0
  -3 -10  -6   35.46    3.48   0
  -7  11   6   29.78    2.55   0
  -7  11   6   30.00    2.87   0
   7 -11  -6   29.99    3.26   0
  -6  11   6   -6.98    1.53   0
   6 -11  -6  -13.61    2.12   0
  -5  11   6   49.72    3.94   0
  -5  11   6   49.99    3.73   0
   5 -11  -6   50.34    3.87   0
  -4  11   6  223.44    6.39   0
   4 -11  -6  222.53    6.39   0
  -3  11   6  242.37    5.06   0
   3 -11  -6  241.64    4.67   0
  -2  11   6    7.61    2.08   0
  -2  11   6    8.26    1.69   0
  -1  11   6  -13.30    1.56   0
   1 -11  -6  -17.49    2.39   0
   0  11   6    0.95    1.53   0
   0  11   6    0.89    2.01   0
   0 -11  -6    0.94    2.21   0
   1  11   6    5.52    1.62   0
   1  11   6    6.14    2.12   0
  -1 -11  -6    5.53    2.41   0
  -4  12   6  235.51    5.78   0
  -4  12   6  235.21    5.83   0
  -3  12   6  148.51    5.29   0
   3 -12  -6  174.46    5.33   0
  -2  12   6    2.83    1.54   0
   2 -12  -6    2.73    2.02   0
  -1  12   6   28.31    2.24   0
   1 -12  -6    8.92    1.91   0
  -3 -11   7    3.15    1.68   0
  -3 -11   7    3.37    2.13   0
  -3 -11   7    3.43    1.77   0
   3  11  -7    2.64    2.34   0
  -2 -11   7  100.37    4.68   0
   2  11  -7  100.00    4.85   0
  -1 -11   7  216.04    4.79   0
   1  11  -7  216.00    4.57   0
   0 -11   7  123.30    5.23   0
   0  11  -7  123.13    4.76   0
   1 -11   7    5.30    1.94   0
  -1  11  -7    5.06    2.23   0
   2 -11   7    4.31    1.81   0
  -2  11  -7    3.70    2.48   0
   3 -11   7    0.45    1.55   0
  -3  11  -7    0.42    1.51   0
  -5 -10   7  191.98    5.21   0
  -5 -10   7  192.21    4.85   0
  -4 -10   7   41.06    3.41   0
  -4 -10   7   41.09    3.10   0
  -3 -10   7   17.76    1.66   0
  -3 -10   7   18.16    1.50   0
   3  10  -7   17.82    1.63   0
  -2 -10   7   13.82    2.13   0
  -2 -10   7    2.88    1.63   0
  -2 -10   7    2.49    2.26   0
  -1 -10   7   12.06    1.56   0
   1  10  -7   11.88    2.05   0
   0 -10   7   -6.51    1.99   0
   0  10  -7    5.35    1.85   0
   1 -10   7    9.39    1.77   0
  -1  10  -7   -2.41    2.39   0
   2 -10   7  197.10    5.02   0
  -2  10  -7  307.71    4.50   0
   3 -10   7  243.17    5.58   0
  -3  10  -7  243.05    5.95   0
   4 -10   7   62.29    4.47   0
  -4  10  -7   61.75    4.39   0
   5 -10   7    3.43    1.96   0
  -6  -9   7   12.21    2.24   0
  -6  -9   7   11.79    2.01   0
  -5  -9   7   19.17    1.75   0
  -5  -9   7   19.38    2.58   0
  -4  -9   7   22.54    2.05   0
  -4  -9   7   22.79    1.95   0
  -3  -9   7    0.18    2.34   0
   3   9  -7    0.23    1.54   0
  -2  -9   7    7.65    2.42   0
  -2  -9   7   -7.98    1.97   0
   2   9  -7   -4.71    2.21   0
  -1  -9   7   33.86    3.57   0
   1   9  -7   34.45    3.62   0
   0  -9   7   85.61    4.20   0
   0   9  -7   86.42    3.99   0
   1  -9   7   13.59    3.03   0
  -1   9  -7   52.65    3.25   0
   2  -9   7   43.34    1.89   0
  -2   9  -7   -5.10    1.57   0
   3  -9   7  128.45    4.99   0
  -3   9  -7  127.64    5.42   0
   4  -9   7   53.67    3.05   0
  -4   9  -7   45.26    2.69   0
   5  -9   7   -6.97    2.27   0
  -5   9  -7   -2.52    2.15   0
   6  -9   7    4.28    1.95   0
  -7  -8   7    0.16    1.63   0
  -7  -8   7    3.12    2.28   0
  -7  -8   7   12.32    1.52   0
  -6  -8   7   94.08    4.40   0
  -6  -8   7   93.89    3.86   0
  -6  -8   7   93.50    4.00   0
  -5  -8   7  134.43    4.83   0
  -5  -8   7  134.19    5.21   0
  -4  -8   7   15.21    2.28   0
  -4  -8   7   15.23    1.98   0
  -3  -8   7   42.12    2.62   0
  -3  -8   7   42.28    3.23   0
   3   8  -7   41.83    2.93   0
  -2  -8   7  149.96    4.82   0
  -2  -8   7  149.97    5.14   0
   2   8  -7  149.83    5.03   0
  -1  -8   7    0.01    2.22   0
   1   8  -7    0.02    1.99   0
   0  -8   7  -13.72    2.40   0
   0   8  -7   34.35    2.11   0
   1  -8   7    5.86    2.21   0
  -1   8  -7    5.89    2.32   0
   2  -8   7  128.37    4.83   0
  -2   8  -7  128.46    4.54   0
   3  -8   7  227.79    5.59   0
  -3   8  -7  228.13    5.70   0
   4  -8   7   14.19    1.99   0
  -4   8  -7   18.96    2.21   0
   5  -8   7    8.38    2.13   0
  -5   8  -7    7.71    2.46   0
  -6   8  -7   62.98    3.02   0
  -7   8  -7    2.29    1.86   0
  -7   8  -7    1.74    2.08   0
  -7   8  -7    2.08    2.24   0
  -8  -7   7   -0.88    2.49   0
  -8  -7   7  -16.83    2.11   0
  -7  -7   7   -4.37    2.10   0
  -7  -7   7   18.08    1.79   0
  -6  -7   7    0.97    2.17   0
  -6  -7   7    0.89    2.37   0
  -6  -7   7    0.91    1.58   0
  -5  -7   7   50.05    2.62   0
  -5  -7   7   43.55    3.08   0
  -4  -7   7    4.18    1.73   0
  -4  -7   7    4.21    1.69   0
  -3  -7   7  122.70    4.56   0
   3   7  -7  122.79    4.75   0
  -2  -7   7 1900.00   13.96   0
  -2  -7   7 1899.70   13.76   0
   2   7  -7 1900.38   13.87   0
  -1  -7   7 1218.95   11.19   0
   1   7  -7 1220.84   11.01   0
   0  -7   7   22.39    2.59   0
   0   7  -7   21.90    2.94   0
   1  -7   7   33.71    3.30   0
  -1   7  -7   33.63    2.95   0
   2  -7   7  156.68    5.76   0
  -2   7  -7  156.36    5.69   0
   3  -7   7   23.82    2.31   0
  -3   7  -7  -25.51    2.48   0
   4  -7   7    5.45    2.22   0
  -4   7  -7    4.54    1.85   0
   5  -7   7    8.41    1.75   0
  -5   7  -7    8.32    2.21   0
   6  -7   7  189.62    4.89   0
  -6   7  -7  190.11    4.85   0
  -7   7  -7  104.12    4.96   0
  -7   7  -7  137.79    5.14   0
  -9  -6   7    0.02    2.03   0
  -9  -6   7    0.01    2.34   0
  -8  -6   7    5.84    1.88   0
  -8  -6   7    6.00    2.19   0
  -7  -6   7    6.94    1.98   0
  -7  -6   7    6.77    1.55   0
  -6  -6   7   65.48    3.70   0
  -6  -6   7   64.54    3.66   0
  -5  -6   7   49.70    3.45   0
  -5  -6   7   49.98    3.38   0
  -4  -6   7    3.17    1.84   0
  -4  -6   7    8.99    2.34   0
  -3  -6   7   86.76    3.96   0
  -3  -6   7   73.21    4.27   0
  -2  -6   7    6.28    2.02   0
  -2  -6   7    5.91    1.58   0
   2   6  -7    6.37    2.49   0
  -1  -6   7   37.91    3.18   0
  -1  -6   7   37.78    2.39   0
   1   6  -7   38.36    3.41   0
   0  -6   7  249.26    6.02   0
   0   6  -7  249.27    5.78   0
   1  -6   7   51.66    3.22   0
  -1   6  -7   40.45    2.89   0
   2  -6   7  272.98    5.76   0
  -2   6  -7  392.29    5.56   0
   3  -6   7   12.22    1.51   0
  -3   6  -7   12.24    1.58   0
   4  -6   7    0.73    1.86   0
  -4   6  -7    1.94    2.47   0
  -5   6  -7   26.06    3.41   0
  -5   6  -7   30.87    3.09   0
  -5   6  -7   36.39    2.72   0
  -6   6  -7   24.93    2.47   0
  -6   6  -7   24.69    2.11   0
  -6   6  -7   25.17    1.87   0
   7  -6   7   11.51    1.88   0
  -7   6  -7   11.65    1.69   0
  -7   6  -7   11.93    2.04   0
  -8   6  -7   42.62    3.44   0
  -8   6  -7   40.59    3.15   0
 -10  -5   7   28.43    1.92   0
 -10  -5   7   -4.29    1.94   0
  -9  -5   7  -10.66    2.28   0
  -9  -5   7   -0.35    1.54   0
  -8  -5   7   39.64    3.34   0
  -8  -5   7   40.29    2.80   0
  -7  -5   7   70.07    3.57   0
  -7  -5   7   70.04    3.69   0
  -6  -5   7    0.04    1.60   0
  -6  -5   7    0.05    2.11   0
  -5  -5   7  172.13    4.90   0
  -5  -5   7  171.90    4.54   0
  -4  -5   7  127.41    4.69   0
  -4  -5   7  126.86    5.10   0
  -3  -5   7   36.08    2.36   0
  -3  -5   7   -4.09    2.26   0
  -2  -5   7   24.00    2.78   0
  -2  -5   7   17.85    2.92   0
  -2  -5   7   45.84    3.08   0
   2   5  -7   41.94    2.62   0
  -1  -5   7   14.25    2.59   0
  -1  -5   7   10.07    3.21   0
  -1  -5   7   49.78    2.77   0
   0  -5   7  322.89    4.71   0
   0   5  -7  248.65    5.45   0
   1  -5   7 1156.69   12.05   0
  -1   5  -7 1157.29   11.53   0
   2  -5   7  198.95    5.54   0
  -2   5  -7  198.54    5.56   0
   3  -5   7    0.14    2.48   0
  -3   5  -7   12.42    1.55   0
  -3   5  -7   14.95    2.21   0
   4  -5   7    5.14    2.17   0
  -4   5  -7   27.39    3.28   0
  -4   5  -7   37.01    3.41   0
  -4   5  -7   14.06    2.05   0
  -5   5  -7    1.76    2.07   0
  -5   5  -7    3.88    1.96   0
  -5   5  -7   -9.80    2.01   0
   6  -5   7    5.04    1.87   0
  -6   5  -7    4.81    2.13   0
  -7   5  -7   29.80    2.21   0
  -7   5  -7   32.99    2.25   0
  -8   5  -7   -4.57    1.88   0
  -8   5  -7  -16.54    2.25   0
 -10  -4   7    1.99    2.61   0
 -10  -4   7    2.18    3.03   0
 -10  -4   7    2.43    2.55   0
  -9  -4   7    2.54    2.61   0
  -9  -4   7    1.94    3.02   0
  -9  -4   7    1.99    3.46   0
  -8  -4   7   27.96    2.27   0
  -8  -4   7   23.43    2.28   0
  -7  -4   7  137.95    3.66   0
  -7  -4   7  137.48    4.18   0
  -6  -4   7  292.25    4.85   0
  -6  -4   7  292.11    5.43   0
  -5  -4   7  399.89    5.56   0
  -5  -4   7  399.68    6.13   0
  -4  -4   7  -13.03    2.52   0
  -4  -4   7   17.22    2.57   0
  -4  -4   7   43.47    3.19   0
  -3  -4   7    2.10    1.91   0
  -3  -4   7    1.62    1.73   0
  -2  -4   7   39.06    3.13   0
  -2  -4   7   38.53    2.89   0
  -1  -4   7   12.80    1.54   0
   1   4  -7   13.38    1.62   0
   0  -4   7   18.19    2.18   0
   0   4  -7   -1.20    1.67   0
   1  -4   7  251.33    5.21   0
  -1   4  -7  251.15    5.37   0
   2  -4   7  295.75    5.70   0
  -2   4  -7  296.05    6.38   0
  -2   4  -7  295.55    6.06   0
   3  -4   7  193.31    5.01   0
  -3   4  -7  193.16    5.25   0
  -3   4  -7  192.57    5.17   0
  -4   4  -7    9.72    1.97   0
  -4   4  -7    2.40    2.09   0
  -5   4  -7   37.07    3.27   0
  -5   4  -7   43.01    3.43   0
  -6   4  -7   13.93    2.58   0
  -6   4  -7   35.73    2.74   0
  -7   4  -7    9.69    2.01   0
  -7   4  -7   23.11    1.80   0
  -7   4  -7   11.16    2.01   0
  -8   4  -7    8.18    2.21   0
  -8   4  -7   -4.38    2.34   0
  -8   4  -7   -8.99    2.37   0
 -11  -3   7   -8.38    2.05   0
 -11  -3   7   -5.60    1.91   0
 -10  -3   7   28.86    2.80   0
 -10  -3   7   11.12    2.29   0
 -10  -3   7   18.66    2.45   0
  -9  -3   7   11.91    2.00   0
  -9  -3   7   12.25    2.36   0
  -8  -3   7   11.58    1.67   0
  -8  -3   7   12.43    1.59   0
  -7  -3   7   76.41    4.24   0
  -7  -3   7   76.86    4.19   0
  -6  -3   7   25.71    1.54   0
  -6  -3   7   26.23    2.24   0
  -5  -3   7   -1.70    1.53   0
  -5  -3   7  -21.68    2.25   0
  -4  -3   7   12.99    1.71   0
   4   3  -7   13.01    1.69   0
  -3  -3   7  353.18    4.58   0
   3   3  -7  352.60    5.01   0
  -2  -3   7  135.66    5.20   0
  -2  -3   7  135.71    4.58   0
  -1  -3   7   32.09    2.64   0
   1   3  -7   39.51    3.21   0
   0  -3   7  267.81    5.84   0
   0   3  -7  268.49    6.13   0
   1  -3   7   34.39    2.89   0
   1  -3   7   42.36    2.60   0
  -1   3  -7   54.73    2.86   0
  -1   3  -7   58.55    3.25   0
   2  -3   7    1.39    2.13   0
  -2   3  -7    1.16    2.45   0
  -2   3  -7    1.14    2.44   0
   3  -3   7   14.74    1.51   0
  -3   3  -7   15.47    2.34   0
   4  -3   7  134.02    4.76   0
  -4   3  -7  159.29    5.03   0
   5  -3   7  446.91    4.87   0
  -5   3  -7  447.26    5.30   0
  -6   3  -7   73.22    3.68   0
  -6   3  -7   73.24    3.76   0
  -6   3  -7   72.77    4.05   0
  -7   3  -7   -4.36    1.99   0
  -7   3  -7    5.73    1.57   0
  -8   3  -7   13.36    1.90   0
  -8   3  -7    5.03    2.01   0
 -11  -2   7   -5.71    1.79   0
 -11  -2   7   -0.81    1.52   0
 -10  -2   7    2.62    1.95   0
 -10  -2   7   24.52    2.07   0
  -9  -2   7   35.88    3.41   0
  -9  -2   7   36.24    2.62   0
  -8  -2   7   45.84    2.05   0
  -8  -2   7   -6.12    2.30   0
  -7  -2   7    6.27    1.65   0
  -7  -2   7   10.26    2.11   0
  -6  -2   7   58.17    2.55   0
   6   2  -7   57.63    3.08   0
  -5  -2   7  173.02    5.21   0
  -5  -2   7  173.44    4.67   0
  -4  -2   7  162.30    5.32   0
  -4  -2   7  162.28    4.64   0
   4   2  -7  161.63    5.33   0
  -3  -2   7  548.65    4.68   0
  -3  -2   7  549.20    6.37   0
   3   2  -7  549.09    5.17   0
  -2  -2   7   15.03    1.81   0
  -2  -2   7   14.68    2.31   0
  -1  -2   7   29.38    3.04   0
  -1  -2   7   38.10    3.25   0
   0  -2   7   56.15    3.13   0
   0  -2   7   55.91    3.14   0
   0   2  -7   56.29    2.75   0
   1  -2   7   34.83    2.68   0
  -1   2  -7   27.02    3.03   0
  -1   2  -7   25.95    2.64   0
   2  -2   7    1.19    2.15   0
  -2   2  -7    1.23    1.88   0
  -2   2  -7    1.24    1.96   0
   3  -2   7   14.10    1.50   0
  -3   2  -7  -10.24    2.18   0
  -3   2  -7   -7.72    2.16   0
   4  -2   7  156.15    5.11   0
  -4   2  -7  155.88    4.99   0
   5  -2   7  299.25    6.39   0
  -5   2  -7  299.31    6.00   0
  -6   2  -7   12.24    1.75   0
  -6   2  -7    5.74    2.25   0
  -7   2  -7    1.57    2.33   0
  -7   2  -7    1.96    1.66   0
  -8   2  -7   11.28    1.84   0
  -8   2  -7    4.16    1.96   0
  -8   2  -7   -2.17    2.27   0
 -11  -1   7   14.43    9.69   0
 -10  -1   7   26.56    2.75   0
 -10  -1   7    8.36    8.83   0
  -9  -1   7   -1.73    2.09   0
  -9  -1   7   52.18    2.95   0
  -8  -1   7    7.54    1.85   0
  -7  -1   7    7.75    2.06   0
   7   1  -7    8.42    1.82   0
  -6  -1   7   28.94    2.45   0
   6   1  -7   28.60    1.97   0
  -5  -1   7   29.32    2.74   0
   5   1  -7   30.28    2.60   0
  -4  -1   7  275.36    6.91   0
   4   1  -7  274.58    7.28   0
  -3  -1   7   16.61    1.77   0
   3   1  -7   27.99    1.96   0
  -2  -1   7    5.20    2.27   0
  -2  -1   7  -13.69    1.79   0
   2   1  -7   -0.49    1.55   0
  -1  -1   7   55.35    3.28   0
  -1  -1   7   55.29    2.66   0
   0  -1   7    3.43    2.06   0
   0   1  -7    3.15    1.65   0
   1  -1   7  128.96    4.61   0
   1  -1   7  128.64    4.73   0
  -1   1  -7  128.50    5.11   0
   2  -1   7   32.83    2.75   0
   2  -1   7   32.64    2.70   0
   3  -1   7   47.82    3.40   0
  -3   1  -7   46.37    2.78   0
   4  -1   7   12.46    2.26   0
  -4   1  -7   -7.66    2.49   0
  -4   1  -7   31.56    2.49   0
   5  -1   7   41.87    2.52   0
  -5   1  -7   41.82    3.27   0
  -5   1  -7   42.35    2.89   0
   6  -1   7    0.38    2.07   0
  -6   1  -7   -5.72    2.13   0
  -6   1  -7    1.42    1.52   0
  -7   1  -7    0.02    2.40   0
  -7   1  -7    9.97    2.03   0
  -8   1  -7   18.20    1.73   0
  -8   1  -7    4.48    2.22   0
  -8   1  -7   11.65    2.25   0
  -8   1  -7   -0.09    2.35   0
 -11   0   7  -16.18    2.28   0
 -11   0   7   20.53    1.80   0
 -10   0   7   -4.71    2.14   0
 -10   0   7    7.54    1.66   0
  -9   0   7    2.81    2.45   0
  -8   0   7    0.16    2.39   0
   8   0  -7    0.25    1.57   0
  -7   0   7    4.27    1.97   0
   7   0  -7    4.26    1.71   0
  -6   0   7  -24.87    1.99   0
   6   0  -7   21.53    2.04   0
  -5   0   7  -11.33    1.92   0
   5   0  -7   37.79    2.35   0
  -4   0   7   21.52    1.55   0
   4   0  -7   22.17    1.97   0
  -3   0   7   10.98    2.19   0
   3   0  -7   11.27    1.64   0
  -2   0   7   33.01    2.07   0
   2   0  -7   12.40    1.71   0
  -1   0   7   20.35    2.42   0
  -1   0   7   19.59    2.31   0
   0   0   7   19.04    1.99   0
   0   0  -7   19.14    1.56   0
   1   0   7   11.11    1.89   0
   1   0   7    4.38    2.35   0
  -1   0  -7    3.99    2.14   0
   2   0   7    0.57    2.18   0
  -2   0  -7    0.59    1.77   0
   3   0   7   23.09    1.86   0
  -3   0  -7    3.41    1.59   0
   4   0   7   -8.99    1.58   0
  -4   0  -7    7.02    2.18   0
   5   0   7   16.79    2.34   0
  -5   0  -7  -21.14    2.04   0
   6   0   7  -13.21    2.14   0
  -6   0  -7   -9.99    1.79   0
   7   0   7    0.02    1.55   0
  -7   0  -7    0.01    1.85   0
  -8   0  -7  -11.27    1.96   0
 -11   1   7    0.19    1.60   0
 -11   1   7    0.21    2.00   0
 -10   1   7    2.48    1.76   0
  -9   1   7   14.43    1.87   0
   9  -1  -7   14.19    2.47   0
  -8   1   7    3.85    1.76   0
   8  -1  -7    3.83    1.52   0
  -7   1   7   50.63    3.61   0
   7  -1  -7   50.67    3.76   0
  -6   1   7    5.35    1.63   0
   6  -1  -7    5.37    1.75   0
  -5   1   7  153.44    5.18   0
   5  -1  -7  153.07    5.16   0
  -4   1   7   66.52    3.32   0
   4  -1  -7   66.91    3.00   0
  -3   1   7   11.95    1.62   0
   3  -1  -7   11.69    1.54   0
  -2   1   7    2.51    1.51   0
   2  -1  -7    3.39    1.85   0
  -1   1   7   24.27    1.57   0
   1  -1  -7   24.02    2.49   0
   0   1   7  -13.11    2.11   0
   0   1   7   -0.43    2.00   0
   1   1   7  201.26    6.02   0
   1   1   7  200.67    5.68   0
  -1  -1  -7  200.54    6.24   0
   2   1   7  -10.32    2.06   0
  -2  -1  -7   23.60    1.66   0
   3   1   7   89.96    2.34   0
  -3  -1  -7   67.09    2.26   0
   4   1   7   -5.83    1.67   0
  -4  -1  -7    8.20    1.66   0
   5   1   7   31.05    2.86   0
  -5  -1  -7   31.20    2.71   0
   6   1   7    3.52    1.79   0
  -6  -1  -7   -7.41    2.24   0
   7   1   7   -1.91    1.60   0
  -7  -1  -7   10.30    2.48   0
   8   1   7   10.86    1.77   0
  -8  -1  -7   11.47    1.99   0
 -11   2   7    5.33    2.25   0
 -10   2   7   51.48    1.82   0
  10  -2  -7  -13.89    2.09   0
  -9   2   7  -15.10    1.65   0
   9  -2  -7    3.92    1.52   0
  -8   2   7   66.40    2.76   0
   8  -2  -7   66.23    3.08   0
  -7   2   7    4.81    2.17   0
   7  -2  -7    5.37    1.60   0
  -6   2   7  184.68    4.64   0
   6  -2  -7  184.94    4.94   0
  -5   2   7   69.61    4.27   0
   5  -2  -7   82.81    3.96   0
  -4   2   7  481.84    4.89   0
   4  -2  -7  441.25    4.76   0
  -3   2   7  112.92    5.06   0
   3  -2  -7  113.15    4.88   0
  -2   2   7  109.76    4.97   0
   2  -2  -7  110.30    5.11   0
  -1   2   7   35.14    3.44   0
   1  -2  -7   34.95    2.58   0
   0   2   7    0.83    2.28   0
   0  -2  -7    0.84    1.75   0
   1   2   7   37.72    2.65   0
  -1  -2  -7   38.46    3.00   0
   2   2   7   23.00    2.18   0
  -2  -2  -7  -15.79    2.35   0
   3   2   7   70.58    3.08   0
  -3  -2  -7   62.69    2.60   0
   4   2   7  233.54    5.52   0
  -4  -2  -7  234.05    5.61   0
   5   2   7  104.30    4.97   0
  -5  -2  -7  138.40    5.43   0
   6   2   7   29.48    1.52   0
  -6  -2  -7  -31.11    1.59   0
   7   2   7    3.52    1.70   0
  -7  -2  -7    3.77    2.49   0
   8   2   7   -7.17    8.45   0
  -8  -2  -7   15.84    2.36   0
 -11   3   7   27.69    2.90   0
  11  -3  -7   28.14    2.63   0
 -10   3   7   74.63    4.84   0
  10  -3  -7   74.53    4.97   0
  -9   3   7   14.35    2.75   0
   9  -3  -7   14.47    3.11   0
  -8   3   7   73.06    5.26   0
   8  -3  -7   72.65    4.96   0
  -7   3   7   45.97    4.05   0
   7  -3  -7   46.21    3.76   0
  -6   3   7    6.24    2.73   0
   6  -3  -7    5.67    2.56   0
  -5   3   7    0.27    1.86   0
   5  -3  -7    0.24    2.21   0
  -4   3   7  396.46    6.71   0
   4  -3  -7  396.13    6.54   0
  -3   3   7  292.65    6.60   0
   3  -3  -7  293.25    6.62   0
  -2   3   7    1.25    3.26   0
   2  -3  -7    1.27    2.65   0
  -1   3   7  459.36    6.34   0
   1  -3  -7  453.77    6.13   0
   0   3   7   12.07    2.07   0
   0  -3  -7   12.24    2.22   0
   1   3   7    8.71    1.88   0
   1   3   7    8.77    2.10   0
   2   3   7    6.72    2.47   0
  -2  -3  -7   39.15    9.42   0
   3   3   7   58.38    4.27   0
  -3  -3  -7   58.45    4.43   0
   4   3   7  486.37    6.62   0
  -4  -3  -7  486.34    7.35   0
   5   3   7  109.27    3.94   0
  -5  -3  -7  109.40    3.67   0
   6   3   7    5.00    2.34   0
  -6  -3  -7    4.69    2.27   0
   7   3   7   10.26    1.51   0
  -7  -3  -7   12.80    2.19   0
 -11   4   7   -3.45    1.56   0
  11  -4  -7  -17.14    2.15   0
 -10   4   7    3.96    2.34   0
  10  -4  -7    3.65    2.07   0
  -9   4   7   15.42    1.80   0
   9  -4  -7   15.00    1.84   0
  -8   4   7  259.72    5.39   0
   8  -4  -7  260.08    4.90   0
  -7   4   7  401.68    6.43   0
   7  -4  -7  401.56    6.15   0
  -6   4   7  704.98    7.35   0
   6  -4  -7  705.17    7.29   0
  -5   4   7    3.35    1.80   0
   5  -4  -7    2.90    1.95   0
  -4   4   7    8.24    1.91   0
   4  -4  -7    8.27    2.04   0
  -3   4   7   92.50    4.05   0
   3  -4  -7   89.28    4.15   0
  -2   4   7    8.55    1.59   0
  -2   4   7    9.11    2.10   0
  -1   4   7    2.56    2.19   0
   1  -4  -7    2.60    1.91   0
   0   4   7  412.93    5.03   0
   0   4   7  564.12    4.70   0
   0  -4  -7  257.59    4.83   0
   1   4   7  171.70    4.74   0
  -1  -4  -7  212.73    4.84   0
   2   4   7  268.17    5.02   0
  -2  -4  -7  408.21    5.33   0
   3   4   7   11.54    2.36   0
  -3  -4  -7   11.93    1.96   0
   4   4   7    9.56    2.30   0
  -4  -4  -7    9.78    2.37   0
   5   4   7   27.49    2.51   0
  -5  -4  -7   27.76    2.77   0
   6   4   7   -8.19    2.32   0
  -6  -4  -7    7.90    1.86   0
   7   4   7    2.34    1.50   0
  -7  -4  -7    1.97    2.36   0
 -11   5   7   14.41    2.35   0
  11  -5  -7  -18.84    1.91   0
 -10   5   7  -16.66    2.04   0
  10  -5  -7    0.16    2.22   0
  -9   5   7  102.87    5.00   0
   9  -5  -7  103.15    4.63   0
  -8   5   7   40.17    3.33   0
   8  -5  -7   40.08    2.84   0
  -7   5   7   26.73    2.64   0
   7  -5  -7   26.50    2.52   0
  -6   5   7  373.41    6.10   0
   6  -5  -7  373.35    6.03   0
  -5   5   7   40.42    2.68   0
   5  -5  -7   59.03    2.86   0
  -4   5   7  118.87    5.13   0
   4  -5  -7  119.24    5.49   0
  -3   5   7    2.43    1.95   0
  -3   5   7    2.35    2.75   0
   3  -5  -7    2.49    1.93   0
  -2   5   7   14.78    2.36   0
   2  -5  -7   15.56    2.28   0
  -1   5   7  914.42    6.69   0
   1  -5  -7  913.84    6.75   0
   0   5   7  593.41    6.41   0
   0  -5  -7  593.16    6.48   0
   1   5   7  146.19    4.81   0
  -1  -5  -7  146.46    4.59   0
   2   5   7    5.34    1.98   0
  -2  -5  -7    8.66    2.40   0
   3   5   7   16.99    1.83   0
  -3  -5  -7   16.62    2.05   0
   4   5   7  -18.46    1.84   0
  -4  -5  -7   24.10    2.26   0
   5   5   7    6.01    2.46   0
  -5  -5  -7    5.69    1.63   0
   6   5   7   44.43    2.27   0
  -6  -5  -7   28.84    1.58   0
   7   5   7   10.80    2.43   0
  -7  -5  -7   16.40    2.17   0
 -11   6   7    5.44    1.79   0
 -11   6   7    4.61    1.99   0
 -10   6   7    2.95    2.09   0
  10  -6  -7    2.68    2.47   0
  -9   6   7   18.16    1.59   0
   9  -6  -7   18.46    2.37   0
  -8   6   7   44.34    3.57   0
  -8   6   7   44.47    3.71   0
   8  -6  -7   43.75    4.26   0
  -7   6   7  182.33    5.76   0
   7  -6  -7  181.51    6.04   0
  -6   6   7   13.33    1.56   0
   6  -6  -7   13.34    1.92   0
  -5   6   7   24.19    2.29   0
   5  -6  -7   29.82    2.14   0
  -4   6   7  -13.40    1.83   0
   4  -6  -7    8.28    2.12   0
  -3   6   7   33.63    2.76   0
  -3   6   7   39.67    2.79   0
   3  -6  -7   43.58    2.88   0
  -2   6   7  148.29    5.50   0
   2  -6  -7  148.30    5.57   0
  -1   6   7  109.01    4.87   0
   1  -6  -7  109.11    5.15   0
   0   6   7  299.12    5.65   0
   0   6   7  299.43    6.46   0
   1   6   7  199.74    5.86   0
   1   6   7  200.35    5.88   0
   2   6   7   41.88    2.93   0
  -2  -6  -7   42.47    3.09   0
   3   6   7   -2.75    2.16   0
  -3  -6  -7   17.97    1.99   0
  -4  -6  -7    1.48    1.94   0
   5   6   7    5.49    2.22   0
  -5  -6  -7  -10.58    1.89   0
   6   6   7    6.89    2.43   0
  -6  -6  -7    6.77    1.91   0
 -10   7   7    1.27    2.30   0
  10  -7  -7    9.38    2.18   0
  -9   7   7   27.76    1.77   0
  -9   7   7   -6.37    2.33   0
  -8   7   7    0.32    2.43   0
   8  -7  -7    0.28    2.15   0
  -7   7   7   56.54    4.21   0
  -7   7   7   56.59    3.68   0
  -6   7   7    1.05    1.81   0
   6  -7  -7    1.03    2.08   0
  -5   7   7  125.16    5.19   0
   5  -7  -7  125.34    4.88   0
  -4   7   7 2426.90   11.46   0
   4  -7  -7 2427.36   11.49   0
  -3   7   7 1699.28   13.66   0
   3  -7  -7 1698.83   13.79   0
  -2   7   7   49.14    3.02   0
  -2   7   7   48.90    3.17   0
   2  -7  -7   48.77    3.16   0
  -1   7   7   71.93    3.19   0
   1  -7  -7   72.38    3.20   0
   0   7   7  112.67    5.10   0
   0   7   7  112.75    4.52   0
   0  -7  -7  112.58    5.24   0
   1   7   7    8.28    1.94   0
  -1  -7  -7    1.46    2.17   0
   2   7   7   36.64    2.56   0
  -2  -7  -7   29.37    3.09   0
   3   7   7   12.49    2.29   0
  -3  -7  -7   12.06    1.97   0
   4   7   7  214.25    6.46   0
  -4  -7  -7  214.34    6.01   0
   5   7   7  112.17    5.10   0
  -5  -7  -7  112.03    5.36   0
 -10   8   7    5.25    1.98   0
 -10   8   7   -1.97    1.88   0
  -9   8   7    3.62    1.77   0
  -9   8   7   16.91    2.12   0
  -8   8   7  188.76    5.67   0
   8  -8  -7  180.59    5.90   0
  -7   8   7   17.99    2.02   0
   7  -8  -7   75.35    1.61   0
  -6   8   7    0.72    1.80   0
   6  -8  -7    0.69    2.05   0
  -5   8   7  132.60    5.45   0
  -5   8   7  132.96    5.26   0
  -4   8   7  156.76    5.47   0
  -4   8   7  144.25    4.86   0
  -3   8   7    3.54    2.45   0
  -3   8   7    3.70    1.96   0
  -2   8   7   19.95    1.73   0
  -2   8   7   25.48    2.13   0
  -1   8   7    5.30    2.12   0
   1  -8  -7    4.85    1.73   0
   0   8   7  248.60    6.14   0
   0  -8  -7  249.28    5.50   0
   1   8   7  180.55    4.97   0
  -1  -8  -7  189.32    4.66   0
   2   8   7   16.65    2.13   0
  -2  -8  -7   17.34    1.65   0
   3   8   7    8.83    1.50   0
   3   8   7    9.60    2.05   0
  -3  -8  -7   14.47    1.63   0
   4   8   7   51.17    4.10   0
  -4  -8  -7   51.07    3.90   0
  -9   9   7   11.07    1.99   0
   9  -9  -7   10.63    2.14   0
  -8   9   7    2.06    2.13   0
   8  -9  -7    2.31    2.48   0
  -7   9   7   52.85    3.01   0
   7  -9  -7   52.86    3.18   0
  -6   9   7   26.72    2.08   0
   6  -9  -7   -3.24    1.94   0
  -5   9   7    5.30    2.31   0
   5  -9  -7  -12.05    1.96   0
  -4   9   7   19.34    2.22   0
   4  -9  -7   19.18    1.83   0
  -3   9   7  104.46    4.50   0
  -3   9   7  103.84    4.80   0
  -2   9   7   58.03    2.91   0
   2  -9  -7   57.54    3.37   0
  -1   9   7    1.50    3.30   0
   1  -9  -7    1.53    2.78   0
   0   9   7   52.04    3.43   0
   0   9   7   49.20    3.45   0
   1   9   7  128.41    4.77   0
   1   9   7  128.26    4.92   0
  -1  -9  -7  127.64    5.01   0
   2   9   7   -4.36    1.85   0
  -2  -9  -7    2.10    2.26   0
   3   9   7    0.21    1.54   0
  -3  -9  -7    0.24    1.79   0
  -8  10   7  411.56    5.66   0
   8 -10  -7  411.55    6.36   0
  -7  10   7  112.37    4.97   0
   7 -10  -7  111.71    4.71   0
  -6  10   7   18.06    2.33   0
   6 -10  -7   18.14    1.74   0
  -5  10   7   41.30    2.99   0
  -5  10   7   47.73    2.61   0
   5 -10  -7   32.79    3.35   0
  -4  10   7   10.15    1.85   0
   4 -10  -7    9.50    2.19   0
  -3  10   7    2.83    1.79   0
   3 -10  -7    2.57    1.77   0
  -2  10   7    1.69    2.24   0
   2 -10  -7    2.06    1.75   0
  -1  10   7  154.35    4.72   0
   1 -10  -7  154.03    5.28   0
   0  10   7  475.76    9.40   0
   0 -10  -7  469.30    8.57   0
   1  10   7  101.72    4.84   0
   1  10   7  109.51    4.76   0
   2  10   7    0.19    1.57   0
  -2 -10  -7    0.23    1.72   0
  -6  11   7   10.63    1.93   0
  -6  11   7   14.69    1.50   0
   6 -11  -7   16.42    2.06   0
  -5  11   7  100.17    4.77   0
   5 -11  -7  100.47    4.83   0
  -4  11   7  359.76    5.66   0
   4 -11  -7  360.08    5.59   0
  -3  11   7   99.20    4.00   0
   3 -11  -7   98.92    4.10   0
  -2  11   7   17.01    2.10   0
  -2  11   7   17.25    1.64   0
   2 -11  -7   16.83    1.97   0
  -1  11   7    2.11    2.36   0
   1 -11  -7    2.01    1.99   0
   0  11   7    1.84    2.08   0
   0  11   7    1.76    2.38   0
   0 -11  -7    1.79    1.80   0
  -2 -11   8   50.89    8.19   0
   2  11  -8   12.89    7.93   0
  -1 -11   8   18.65    6.88   0
   1  11  -8    2.31    6.78   0
   0 -11   8   51.47    8.82   0
   0  11  -8  -14.72   10.36   0
   1 -11   8   -0.88    8.91   0
  -1  11  -8    7.28    7.52   0
   2 -11   8   57.67    9.25   0
  -2  11  -8   43.21   10.09   0
  -5 -10   8   -6.71    1.61   0
  -5 -10   8  -13.79    2.18   0
  -4 -10   8   18.44    1.63   0
  -4 -10   8    2.29    2.05   0
  -4 -10   8    9.59    2.27   0
  -3 -10   8   43.88    3.30   0
  -3 -10   8   41.24    2.91   0
   3  10  -8   47.47    2.97   0
  -2 -10   8   -0.21    1.55   0
  -2 -10   8    0.98    2.41   0
  -2 -10   8    8.16    2.34   0
   2  10  -8   10.80    2.48   0
  -1 -10   8   44.65    3.28   0
   1  10  -8   58.56    3.42   0
   0 -10   8    1.58    1.69   0
   0  10  -8    1.82    2.07   0
   1 -10   8   21.00    1.57   0
  -1  10  -8   20.93    1.66   0
   2 -10   8  152.12    5.79   0
  -2  10  -8  151.96    5.93   0
   3 -10   8   36.64    3.24   0
  -3  10  -8   32.41    2.84   0
   4 -10   8    1.46    2.43   0
  -4  10  -8    1.48    1.65   0
  -6  -9   8  187.61    5.08   0
  -6  -9   8  188.33    5.10   0
  -6  -9   8  187.55    5.05   0
  -5  -9   8  218.05    4.79   0
  -5  -9   8  218.15    5.49   0
  -4  -9   8   16.52    2.18   0
  -4  -9   8   16.75    2.30   0
  -3  -9   8   -1.66    1.70   0
  -3  -9   8   -6.01    1.93   0
  -3  -9   8   -1.95    2.34   0
   3   9  -8   -1.49    2.02   0
  -2  -9   8   -7.70    2.22   0
  -2  -9   8    1.67    1.74   0
  -2  -9   8   12.55    2.30   0
  -1  -9   8   15.70    2.24   0
   1   9  -8   -0.32    1.88   0
   0  -9   8    0.67    1.96   0
   0   9  -8    0.72    1.59   0
   1  -9   8   95.59    3.22   0
  -1   9  -8   95.84    3.04   0
   2  -9   8  556.24    6.22   0
  -2   9  -8  555.89    5.88   0
   3  -9   8  415.02    5.79   0
  -3   9  -8  415.10    5.63   0
   4  -9   8   24.98    2.56   0
  -4   9  -8   24.68    2.76   0
   5  -9   8  -11.75    1.86   0
  -5   9  -8    6.49    2.14   0
  -7  -8   8   19.19    1.78   0
  -7  -8   8   19.35    1.87   0
  -6  -8   8   62.63    3.48   0
  -6  -8   8   62.66    2.91   0
  -6  -8   8   63.44    2.81   0
  -5  -8   8   20.93    1.65   0
  -5  -8   8  -18.25    2.44   0
  -5  -8   8    1.29    1.68   0
  -4  -8   8  -24.34    2.04   0
  -4  -8   8   14.34    2.02   0
  -3  -8   8   33.39    2.47   0
  -3  -8   8   45.03    1.83   0
  -2  -8   8  281.17    4.91   0
  -2  -8   8  281.48    4.54   0
  -1  -8   8  152.97    4.77   0
   1   8  -8  152.90    5.31   0
   0  -8   8    2.43    2.04   0
   0   8  -8    2.37    2.46   0
   1  -8   8  -12.88    1.77   0
  -1   8  -8   24.82    2.20   0
   2  -8   8   34.40    2.11   0
  -2   8  -8   -3.49    1.68   0
   3  -8   8   51.24    1.67   0
  -3   8  -8   21.93    2.33   0
   4  -8   8   34.53    3.48   0
  -4   8  -8   32.50    3.38   0
   5  -8   8   94.57    3.81   0
  -5   8  -8   42.56    3.48   0
  -6   8  -8  143.70    5.38   0
  -8  -7   8    6.47    2.37   0
  -8  -7   8    5.88    2.20   0
  -7  -7   8    9.00    1.76   0
  -7  -7   8    8.82    1.77   0
  -7  -7   8    8.62    1.83   0
  -6  -7   8    7.68    1.94   0
  -6  -7   8    3.94    2.43   0
  -6  -7   8   15.94    2.48   0
  -5  -7   8   47.70    3.50   0
  -5  -7   8   47.50    3.79   0
  -4  -7   8   75.07    3.70   0
  -4  -7   8   75.01    4.13   0
  -3  -7   8   51.74    3.01   0
  -3  -7   8   68.28    2.89   0
  -2  -7   8    4.04    1.61   0
  -2  -7   8    4.20    2.40   0
  -2  -7   8    3.83    1.90   0
   2   7  -8    4.19    1.82   0
  -1  -7   8  181.51    4.81   0
   1   7  -8  181.71    5.25   0
   0  -7   8   22.57    2.08   0
   0   7  -8   22.74    1.74   0
   1  -7   8  -13.95    2.23   0
  -1   7  -8  -11.79    2.49   0
   2  -7   8   -6.13    1.70   0
  -2   7  -8  -25.00    1.67   0
   3  -7   8    0.77    2.36   0
  -3   7  -8    0.69    1.57   0
   4  -7   8   47.65    3.97   0
  -4   7  -8   48.05    3.63   0
   5  -7   8   91.03    3.81   0
  -5   7  -8   58.40    3.93   0
  -6   7  -8    5.54    2.03   0
  -6   7  -8   -1.54    1.61   0
  -6   7  -8   -1.00    1.72   0
  -9  -6   8   30.76    2.80   0
  -9  -6   8   30.57    2.99   0
  -8  -6   8  -22.93    2.26   0
  -8  -6   8  -44.76    1.59   0
  -7  -6   8   10.46    2.00   0
  -7  -6   8   25.14    2.42   0
  -6  -6   8    0.25    2.46   0
  -6  -6   8    0.23    1.94   0
  -5  -6   8   22.53    2.49   0
  -5  -6   8   30.95    1.69   0
  -4  -6   8   20.85    2.15   0
  -4  -6   8   24.13    2.38   0
  -3  -6   8  224.21    4.94   0
  -3  -6   8  223.52    4.60   0
  -2  -6   8 1025.22   10.30   0
  -2  -6   8 1025.23    9.90   0
   2   6  -8 1024.91   10.14   0
  -1  -6   8  772.90    6.72   0
   1   6  -8  772.57    7.40   0
   0  -6   8    4.68    1.95   0
   0   6  -8    4.94    1.80   0
   1  -6   8  176.48    5.24   0
  -1   6  -8  176.27    5.11   0
   2  -6   8   56.29    3.62   0
  -2   6  -8   60.54    4.37   0
   3  -6   8   37.58    2.99   0
  -3   6  -8   50.55    3.38   0
   4  -6   8   35.97    2.68   0
  -4   6  -8   71.65    3.44   0
   5  -6   8   26.93    2.01   0
  -5   6  -8   26.61    1.92   0
   6  -6   8  219.71    6.24   0
  -6   6  -8  219.83    5.95   0
  -6   6  -8  220.37    6.04   0
   7  -6   8  105.00    4.58   0
  -7   6  -8  104.60    4.78   0
  -7   6  -8  105.42    4.87   0
  -9  -5   8    6.63    2.27   0
  -9  -5   8    7.28    1.71   0
  -8  -5   8   -5.87    1.55   0
  -8  -5   8   11.10    2.12   0
  -7  -5   8  -18.23    2.35   0
  -7  -5   8   54.32    2.55   0
  -7  -5   8   17.01    2.06   0
  -6  -5   8  203.70    5.30   0
  -6  -5   8  203.68    4.61   0
  -5  -5   8  103.08    5.49   0
  -5  -5   8  103.39    4.58   0
  -4  -5   8   37.58    2.55   0
  -4  -5   8   38.02    3.11   0
  -4  -5   8   37.60    2.58   0
  -3  -5   8    1.87    2.31   0
  -3  -5   8  -13.47    2.05   0
  -2  -5   8    0.54    1.80   0
  -2  -5   8   12.46    1.77   0
  -2  -5   8    3.21    1.52   0
  -1  -5   8  115.05    4.89   0
  -1  -5   8  115.34    4.65   0
   1   5  -8  114.60    5.32   0
   0  -5   8   58.74    1.71   0
   0   5  -8  -10.95    1.75   0
   1  -5   8  282.99    4.37   0
  -1   5  -8  136.19    3.94   0
   2  -5   8  491.66    5.35   0
  -2   5  -8  491.86    4.75   0
   3  -5   8   89.05    2.78   0
  -3   5  -8   88.62    3.48   0
  -3   5  -8   89.43    3.03   0
  -3   5  -8   88.98    3.46   0
   4  -5   8    8.51    2.21   0
  -4   5  -8    8.77    1.93   0
  -4   5  -8    8.64    2.29   0
  -5   5  -8   -9.94    1.86   0
  -5   5  -8    2.35    2.10   0
  -5   5  -8  -26.59    2.17   0
   6  -5   8   37.75    2.68   0
  -6   5  -8   37.69    3.41   0
  -6   5  -8   37.76    3.01   0
   7  -5   8   14.17    2.34   0
  -7   5  -8   14.20    1.85   0
 -10  -4   8   33.98    2.84   0
 -10  -4   8   33.66    3.22   0
  -9  -4   8   48.48    3.17   0
  -9  -4   8   48.17    2.52   0
  -8  -4   8   28.32    1.85   0
  -8  -4   8   24.67    2.38   0
  -7  -4   8   17.70    1.59   0
  -7  -4   8   20.66    1.88   0
  -6  -4   8  141.27    4.67   0
  -6  -4   8  141.18    5.32   0
  -5  -4   8  316.96    4.92   0
  -5  -4   8  217.76    5.21   0
  -4  -4   8   93.67    4.38   0
  -4  -4   8   93.99    3.50   0
  -3  -4   8   42.30    2.70   0
  -3  -4   8   41.89    2.92   0
  -2  -4   8  177.14    4.52   0
   2   4  -8  177.09    5.31   0
  -1  -4   8   66.26    2.66   0
  -1  -4   8   66.12    3.23   0
   0  -4   8  205.23    5.09   0
   0   4  -8  239.34    5.20   0
   1  -4   8   14.36    2.08   0
  -1   4  -8   14.37    2.27   0
  -1   4  -8   13.97    1.94   0
   2  -4   8  222.92    4.39   0
  -2   4  -8  222.55    3.87   0
  -3   4  -8  217.34    3.85   0
  -3   4  -8  220.04    4.48   0
  -4   4  -8   -5.93    2.21   0
  -4   4  -8   -0.89    1.93   0
  -4   4  -8    6.49    2.20   0
   5  -4   8    2.65    2.10   0
  -5   4  -8    3.40    1.52   0
   6  -4   8    8.17    2.06   0
  -6   4  -8    7.52    2.17   0
  -6   4  -8    7.53    2.13   0
  -7   4  -8    0.60    1.89   0
  -7   4  -8    0.59    2.23   0
  -8   4  -8    1.26    1.92   0
  -8   4  -8   -7.87    1.86   0
  -8   4  -8    5.98    1.70   0
 -10  -3   8   29.78    2.00   0
 -10  -3   8   23.18    2.20   0
  -9  -3   8  101.85    4.58   0
  -9  -3   8  102.35    4.73   0
  -8  -3   8    0.20    1.93   0
  -8  -3   8    0.24    2.18   0
  -7  -3   8   34.86    2.30   0
  -7  -3   8   34.67    2.27   0
  -6  -3   8    7.13    1.66   0
  -6  -3   8    7.02    2.44   0
  -5  -3   8   47.11    4.18   0
   5   3  -8   47.43    3.54   0
  -4  -3   8   35.06    2.91   0
   4   3  -8   34.81    3.39   0
  -3  -3   8    0.03    2.20   0
  -3  -3   8    0.01    1.82   0
   3   3  -8    0.01    1.69   0
  -2  -3   8   33.70    2.73   0
  -2  -3   8   33.64    2.64   0
  -1  -3   8  314.70    5.37   0
   1   3  -8  315.24    4.86   0
   0  -3   8    3.63    1.70   0
   0   3  -8    3.96    1.56   0
   1  -3   8   26.14    2.56   0
  -1   3  -8   25.70    2.59   0
  -1   3  -8   26.21    2.55   0
   2  -3   8   54.78    2.77   0
  -2   3  -8   54.67    2.97   0
  -2   3  -8   54.75    3.03   0
   3  -3   8  200.49    5.13   0
  -3   3  -8  195.48    4.95   0
  -4   3  -8   63.69    3.00   0
  -4   3  -8   66.66    3.00   0
   5  -3   8   28.56    3.31   0
  -5   3  -8   29.14    2.81   0
   6  -3   8   17.15    1.73   0
  -6   3  -8   17.36    2.39   0
   7  -3   8    0.51    1.55   0
  -7   3  -8    0.57    1.54   0
  -8   3  -8  -20.46    2.47   0
  -8   3  -8  -17.27    2.21   0
 -11  -2   8    1.37    2.16   0
 -11  -2   8    1.39    1.51   0
 -10  -2   8   19.11    1.61   0
 -10  -2   8    3.13    2.34   0
  -9  -2   8   -1.24    1.90   0
  -9  -2   8   13.11    2.38   0
  -8  -2   8  -13.38    2.12   0
  -7  -2   8   36.18    1.99   0
   7   2  -8   35.73    2.15   0
  -6  -2   8   39.02    3.22   0
  -6  -2   8   39.31    2.77   0
  -5  -2   8   33.22    2.01   0
  -5  -2   8   19.16    2.36   0
   5   2  -8   21.21    1.63   0
  -4  -2   8    6.16    1.71   0
  -4  -2   8    5.83    2.05   0
  -3  -2   8  109.72    5.29   0
   3   2  -8  109.93    5.22   0
  -2  -2   8  561.73    5.85   0
   2   2  -8  642.59    6.15   0
  -1  -2   8  778.90    7.21   0
   1   2  -8  788.62    6.87   0
   0  -2   8   18.96    1.70   0
   0  -2   8   18.91    2.12   0
   1  -2   8    6.37    2.31   0
  -1   2  -8   -1.83    2.37   0
   2  -2   8   92.18    4.47   0
   2  -2   8   92.20    4.06   0
   3  -2   8    8.73    1.69   0
  -3   2  -8    8.86    1.68   0
  -3   2  -8    8.99    2.30   0
   4  -2   8    3.52    1.56   0
  -4   2  -8   -4.72    2.09   0
  -4   2  -8    3.73    2.36   0
   5  -2   8    8.96    2.16   0
  -5   2  -8    8.78    2.13   0
  -6   2  -8    6.87    1.97   0
  -6   2  -8   28.17    2.39   0
   7  -2   8   42.97    3.03   0
  -7   2  -8   43.28    2.59   0
  -7   2  -8   43.04    3.30   0
  -8   2  -8   -1.83    1.52   0
  -8   2  -8   -6.36    1.83   0
 -11  -1   8  -12.66    2.24   0
 -11  -1   8   14.48    2.28   0
 -10  -1   8    7.13    2.46   0
 -10  -1   8   13.50    1.51   0
  -9  -1   8   13.46    2.53   0
  -8  -1   8    0.02    2.40   0
   8   1  -8    0.03    2.33   0
  -7  -1   8   52.64    3.28   0
   7   1  -8   53.40    3.21   0
  -6  -1   8   34.65    1.98   0
   6   1  -8  -12.88    2.10   0
  -5  -1   8   91.86    4.20   0
   5   1  -8   91.96    3.91   0
  -4  -1   8   16.10    1.81   0
   4   1  -8   15.87    1.84   0
  -3  -1   8    5.44    2.27   0
   3   1  -8    4.77    2.41   0
  -2  -1   8  213.45    5.35   0
   2   1  -8  258.02    5.31   0
  -1  -1   8   18.03    2.56   0
   1   1  -8   17.87    3.42   0
   0  -1   8   29.72    2.95   0
   0   1  -8   43.33    3.14   0
   1  -1   8    3.30    1.84   0
  -1   1  -8    3.21    1.81   0
   2  -1   8   33.06    1.99   0
   2  -1   8   16.32    2.45   0
  -2   1  -8   28.10    2.02   0
   3  -1   8   71.44    2.78   0
  -3   1  -8   71.21    3.32   0
   4  -1   8    3.12    1.67   0
  -4   1  -8   -5.91    1.68   0
   5  -1   8    6.19    2.21   0
  -5   1  -8    6.45    1.65   0
   6  -1   8   27.90    2.73   0
  -6   1  -8   27.80    2.54   0
  -7   1  -8    4.81    1.51   0
  -8   1  -8   23.48    3.44   0
  -8   1  -8   22.96    2.56   0
 -11   0   8  -11.51    2.20   0
 -11   0   8    6.35    2.37   0
 -10   0   8   59.12    3.67   0
  -9   0   8    6.35    2.36   0
   9   0  -8    6.36    2.03   0
  -8   0   8    6.51    3.17   0
   8   0  -8    7.32    3.03   0
  -7   0   8  193.71    4.57   0
   7   0  -8  193.59    5.41   0
  -6   0   8  659.73    5.64   0
   6   0  -8  660.02    5.88   0
  -5   0   8   21.97    1.95   0
   5   0  -8   21.97    2.20   0
  -4   0   8    8.70    1.82   0
   4   0  -8   19.96    2.44   0
  -3   0   8   28.13    3.09   0
   3   0  -8   28.49    3.24   0
  -2   0   8  411.89    8.12   0
   2   0  -8  412.17    8.15   0
  -1   0   8   22.65    2.30   0
   1   0  -8   22.99    1.63   0
   0   0   8   42.63    3.06   0
   0   0  -8   43.36    3.20   0
   1   0   8    5.02    3.16   0
   1   0   8  -14.46    2.61   0
  -1   0  -8   -2.73    2.58   0
   2   0   8   67.36    3.07   0
  -2   0  -8   43.03    3.27   0
   3   0   8  153.26    4.75   0
  -3   0  -8  152.83    4.71   0
   4   0   8   -2.55    1.66   0
  -4   0  -8   33.55    1.88   0
   5   0   8    9.07    1.77   0
  -5   0  -8    8.99    2.13   0
   6   0   8   -9.01    2.07   0
  -6   0  -8   26.27    2.08   0
   7   0   8   18.22    2.22   0
  -7   0  -8    6.55    1.71   0
 -11   1   8    0.05    2.24   0
 -10   1   8   28.37    2.10   0
  10  -1  -8   28.49    2.01   0
  -9   1   8    0.50    2.36   0
   9  -1  -8    0.48    1.74   0
  -8   1   8   19.03    2.24   0
   8  -1  -8   19.18    2.38   0
  -7   1   8   21.24    1.56   0
   7  -1  -8   20.71    2.29   0
  -6   1   8    8.24    1.86   0
   6  -1  -8    8.08    1.98   0
  -5   1   8   75.32    3.20   0
   5  -1  -8   97.14    3.44   0
  -4   1   8   57.24    3.27   0
   4  -1  -8   62.48    3.17   0
  -3   1   8  -17.61    2.26   0
   3  -1  -8   -2.57    1.74   0
  -2   1   8  292.85    5.85   0
   2  -1  -8  292.90    5.70   0
  -1   1   8    5.46    1.75   0
   1  -1  -8    5.16    2.14   0
   0   1   8   68.82    3.66   0
   0  -1  -8   77.96    3.23   0
   1   1   8   16.53    2.27   0
   1   1   8   12.98    2.08   0
   1   1   8   -6.85    2.29   0
  -1  -1  -8   15.19    1.70   0
   2   1   8   29.54    2.57   0
  -2  -1  -8   29.89    2.64   0
   3   1   8  156.36    4.65   0
  -3  -1  -8  156.07    4.94   0
   4   1   8    2.61    2.11   0
  -4  -1  -8    2.63    1.75   0
   5   1   8    1.97    2.11   0
  -5  -1  -8    2.35    2.38   0
   6   1   8   12.64    1.81   0
  -6  -1  -8   12.82    2.16   0
   7   1   8  -17.19    2.27   0
  -7  -1  -8    9.07    1.95   0
 -11   2   8   32.51    1.87   0
  11  -2  -8   32.99    1.59   0
 -10   2   8   70.04    3.38   0
  10  -2  -8   69.77    3.35   0
  -9   2   8   19.65    1.93   0
   9  -2  -8    5.79    2.17   0
  -8   2   8   12.93    2.16   0
   8  -2  -8   13.27    1.83   0
  -7   2   8   56.88    4.27   0
   7  -2  -8   57.15    3.76   0
  -6   2   8    1.83    1.82   0
   6  -2  -8  -12.35    2.03   0
  -5   2   8   18.43    1.86   0
   5  -2  -8   18.31    1.75   0
  -4   2   8   74.67    3.23   0
   4  -2  -8   61.81    2.86   0
  -3   2   8  471.73    5.69   0
   3  -2  -8  472.00    6.18   0
  -2   2   8 1052.68   10.47   0
   2  -2  -8 1053.43    9.91   0
  -1   2   8  159.90    5.54   0
   1  -2  -8  160.01    5.99   0
   0   2   8    2.23    2.29   0
   0   2   8    2.75    2.37   0
   1   2   8   44.11    3.33   0
  -1  -2  -8   43.59    3.24   0
   2   2   8   17.74    1.51   0
  -2  -2  -8   18.43    2.33   0
   3   2   8   35.78    2.67   0
  -3  -2  -8   35.70    3.45   0
   4   2   8   -1.67    2.40   0
  -4  -2  -8   17.42    1.50   0
   5   2   8   18.97    1.63   0
  -5  -2  -8  -12.00    2.16   0
   6   2   8  -11.32    1.85   0
  -6  -2  -8   25.80    1.88   0
   7   2   8  -12.98    2.01   0
  -7  -2  -8   -1.08    2.24   0
 -11   3   8   35.62    2.62   0
  11  -3  -8   36.49    2.73   0
 -10   3   8  144.91    5.11   0
  10  -3  -8  145.08    5.19   0
  -9   3   8    0.10    2.44   0
   9  -3  -8    0.13    2.40   0
  -8   3   8   18.06    1.73   0
   8  -3  -8   17.74    1.96   0
  -7   3   8   19.91    2.82   0
   7  -3  -8   81.24    3.40   0
  -6   3   8    8.00    1.72   0
   6  -3  -8    7.63    1.92   0
  -5   3   8    3.50    1.62   0
   5  -3  -8    3.84    1.95   0
  -4   3   8   26.38    3.39   0
   4  -3  -8   62.37    2.68   0
  -3   3   8   78.60    2.70   0
   3  -3  -8  120.49    5.20   0
  -2   3   8  229.61    6.20   0
   2  -3  -8  230.45    5.64   0
  -1   3   8    1.31    3.13   0
  -1   3   8    1.48    3.10   0
   0   3   8   24.49    1.83   0
   0   3   8   34.86    1.99   0
   0  -3  -8   24.55    1.71   0
   1   3   8   46.85    3.91   0
   1   3   8   39.80    4.26   0
   2   3   8   91.69    4.54   0
  -2  -3  -8   92.27    4.87   0
   3   3   8    5.16    2.01   0
  -3  -3  -8    5.23    2.46   0
   4   3   8   61.52    3.17   0
  -4  -3  -8   29.97    3.34   0
   5   3   8    6.20    2.14   0
   6   3   8    3.65    1.63   0
  -6  -3  -8    4.08    1.86   0
   7   3   8    0.16    1.91   0
  -7  -3  -8    0.17    1.87   0
 -11   4   8   62.43    3.73   0
  11  -4  -8   61.70    4.29   0
 -10   4   8  139.02    4.80   0
  10  -4  -8  119.90    5.22   0
  -9   4   8    7.83    1.95   0
   9  -4  -8    7.59    2.49   0
  -8   4   8   21.70    2.29   0
   8  -4  -8   27.47    2.41   0
  -7   4   8  314.36    6.34   0
   7  -4  -8  241.03    5.93   0
  -6   4   8  155.87    5.04   0
   6  -4  -8  155.66    4.99   0
  -5   4   8  258.08    5.71   0
   5  -4  -8  257.97    6.16   0
  -4   4   8   10.59    1.92   0
   4  -4  -8   10.75    2.34   0
  -3   4   8  196.45    6.43   0
   3  -4  -8  195.89    6.13   0
  -2   4   8  171.26    5.24   0
  -2   4   8  171.36    5.16   0
   2  -4  -8  170.81    4.53   0
  -1   4   8   66.70    3.26   0
  -1   4   8   66.73    3.41   0
   1  -4  -8   57.43    2.94   0
   0   4   8   15.79    2.25   0
   0  -4  -8   16.24    1.72   0
   1   4   8  323.17    5.94   0
  -1  -4  -8  323.03    5.55   0
   2   4   8  124.06    3.50   0
  -2  -4  -8  123.75    4.05   0
   3   4   8   -9.36    1.84   0
  -3  -4  -8   -2.22    2.02   0
   4   4   8   14.21    1.90   0
  -4  -4  -8   12.36    2.24   0
   5   4   8    4.93    1.67   0
  -5  -4  -8    4.98    2.37   0
   6   4   8    0.09    1.78   0
  -6  -4  -8    0.09    1.70   0
 -11   5   8    1.66    2.16   0
  11  -5  -8    2.07    2.15   0
 -10   5   8   -2.40    1.99   0
  10  -5  -8   16.84    1.91   0
  -9   5   8    8.29    1.71   0
   9  -5  -8    8.07    2.02   0
  -8   5   8  134.21    5.14   0
   8  -5  -8  105.26    5.44   0
  -7   5   8  260.04    4.67   0
   7  -5  -8  399.32    4.66   0
  -6   5   8  125.70    2.69   0
   6  -5  -8   80.37    2.52   0
  -5   5   8   21.77    2.48   0
   5  -5  -8   21.88    2.46   0
  -4   5   8    1.41    1.68   0
   4  -5  -8    1.37    2.11   0
  -3   5   8   39.65    3.18   0
  -3   5   8   39.88    2.70   0
  -2   5   8   51.80    3.25   0
  -2   5   8   52.26    3.39   0
  -1   5   8   48.36    3.83   0
   1  -5  -8   46.31    3.50   0
   0   5   8  542.83    7.24   0
   0  -5  -8  542.98    7.09   0
   1   5   8  349.57    5.59   0
  -1  -5  -8  325.70    5.64   0
   2   5   8   17.89    1.96   0
   2   5   8   17.92    2.38   0
  -2  -5  -8   18.45    2.07   0
   3   5   8  -19.32    1.55   0
  -3  -5  -8   -6.23    1.88   0
   4   5   8   19.53    1.96   0
   5   5   8   37.74    2.85   0
  -5  -5  -8   37.58    2.79   0
   6   5   8    0.36    1.87   0
  -6  -5  -8   43.23    1.90   0
 -10   6   8  -15.39    1.51   0
  10  -6  -8    5.02    2.13   0
  -9   6   8    9.12    1.96   0
   9  -6  -8   23.94    2.41   0
  -8   6   8    0.18    2.11   0
   8  -6  -8    0.23    1.89   0
  -7   6   8   21.05    1.92   0
   7  -6  -8   21.30    1.54   0
  -6   6   8   87.82    3.76   0
   6  -6  -8   58.03    3.64   0
  -5   6   8   88.46    3.86   0
   5  -6  -8   88.47    4.43   0
  -4   6   8  861.28    4.70   0
  -4   6   8  861.06    4.86   0
  -3   6   8 1396.76   12.09   0
   3  -6  -8 1341.97   12.32   0
  -2   6   8   82.19    4.71   0
   2  -6  -8   81.85    4.63   0
  -1   6   8   92.01    4.95   0
   1  -6  -8   92.16    5.08   0
   0   6   8  128.26    5.21   0
   0  -6  -8  127.77    4.76   0
   1   6   8    1.57    1.68   0
  -1  -6  -8    1.60    2.21   0
   2   6   8  119.12    5.37   0
   2   6   8  118.69    4.59   0
  -2  -6  -8  118.77    4.68   0
   3   6   8  -15.95    3.08   0
  -3  -6  -8   13.78    2.14   0
   4   6   8  141.77    4.89   0
  -4  -6  -8  141.74    5.46   0
   5   6   8  139.95    5.35   0
  -5  -6  -8  139.91    4.87   0
 -10   7   8    4.27    2.07   0
  10  -7  -8    4.49    2.03   0
  -9   7   8   27.71    2.60   0
   9  -7  -8   27.72    2.88   0
  -8   7   8   23.25    1.74   0
   8  -7  -8   22.83    2.39   0
  -7   7   8   41.60    2.73   0
  -7   7   8   41.96    3.14   0
   7  -7  -8   41.76    2.69   0
  -6   7   8  103.93    4.90   0
  -6   7   8  104.18    4.91   0
   6  -7  -8  104.21    5.49   0
  -5   7   8   36.43    3.83   0
  -5   7   8   36.84    3.84   0
  -4   7   8   18.89    2.16   0
  -4   7   8   19.01    1.93   0
  -3   7   8  107.22    5.62   0
   3  -7  -8  106.89    6.47   0
  -2   7   8   89.61    4.34   0
   2  -7  -8   89.87    4.35   0
  -1   7   8   18.91    1.66   0
  -1   7   8   18.83    2.10   0
   1  -7  -8   18.64    1.53   0
   0   7   8   13.22    2.15   0
   0   7   8   17.06    2.03   0
   0  -7  -8   11.50    1.63   0
   1   7   8  -20.79    2.19   0
   1   7   8  -19.91    1.53   0
   2   7   8   58.26    2.84   0
   2   7   8   58.47    2.79   0
   3   7   8   39.71    3.02   0
  -3  -7  -8   39.83    2.64   0
   4   7   8   -7.67    2.34   0
  -4  -7  -8   10.87    2.08   0
   5   7   8   16.82    2.04   0
  -5  -7  -8   -8.33    1.68   0
  -9   8   8   13.27    2.02   0
  -9   8   8   20.56    1.92   0
   9  -8  -8   25.64    2.16   0
  -8   8   8  101.38    5.26   0
   8  -8  -8  100.58    5.07   0
  -7   8   8   22.10    1.78   0
  -7   8   8   22.08    2.11   0
  -6   8   8   13.83    2.29   0
   6  -8  -8    5.74    2.47   0
  -5   8   8   79.24    4.03   0
   5  -8  -8   78.56    3.98   0
  -4   8   8  573.41    6.19   0
  -4   8   8  572.96    5.88   0
  -3   8   8   48.24    2.96   0
  -3   8   8   47.62    2.52   0
  -2   8   8   11.50    2.02   0
   2  -8  -8   11.53    2.21   0
  -1   8   8   24.02    2.23   0
  -1   8   8   24.16    2.45   0
   0   8   8   46.56    3.37   0
   0   8   8   44.26    2.51   0
   1   8   8   30.52    3.29   0
  -1  -8  -8   48.71    2.67   0
   2   8   8   46.47    3.23   0
  -2  -8  -8   46.22    3.15   0
   3   8   8   79.71    4.09   0
  -3  -8  -8   80.32    3.93   0
   4   8   8  286.15    6.55   0
  -4  -8  -8  285.81    6.73   0
  -9   9   8   61.81    2.63   0
   9  -9  -8   76.45    2.93   0
  -8   9   8  414.22    5.18   0
   8  -9  -8  413.60    5.12   0
  -7   9   8  110.29    5.24   0
   7  -9  -8  109.97    4.65   0
  -6   9   8   -4.76    2.14   0
   6  -9  -8   13.91    1.64   0
  -5   9   8    7.44    2.35   0
  -5   9   8    7.09    2.39   0
  -4   9   8    1.20    2.07   0
   4  -9  -8    1.19    1.95   0
  -3   9   8  -16.13    2.08   0
  -3   9   8   -3.13    2.07   0
   3  -9  -8    8.30    1.64   0
  -2   9   8   11.64    2.39   0
  -2   9   8   12.42    1.75   0
  -1   9   8  292.14    5.09   0
   1  -9  -8  292.19    4.51   0
   0   9   8  849.63    6.10   0
   0  -9  -8  850.21    6.32   0
   1   9   8  182.64    5.66   0
   1   9   8  182.81    5.93   0
  -1  -9  -8  183.02    5.81   0
   2   9   8   -0.94    2.48   0
  -2  -9  -8    6.04    2.31   0
   3   9   8   24.77    1.81   0
  -3  -9  -8   36.45    1.77   0
  -7  10   8    0.05    2.06   0
  -7  10   8    0.04    2.33   0
  -6  10   8  113.22    4.64   0
   6 -10  -8  112.95    4.85   0
  -5  10   8   25.11    2.57   0
  -5  10   8   22.77    2.53   0
  -4  10   8   33.89    2.50   0
   4 -10  -8   33.54    3.39   0
  -3  10   8   14.50    2.44   0
   3 -10  -8   14.96    2.32   0
  -2  10   8    8.64    1.73   0
  -2  10   8    8.79    1.75   0
   2 -10  -8    8.56    1.69   0
  -1  10   8  163.47    5.50   0
  -1  10   8  162.72    6.41   0
   0  10   8   65.31    4.43   0
   0  10   8   79.13    4.30   0
   0 -10  -8   50.15    4.49   0
   1  10   8    2.62    2.41   0
  -1 -10  -8   10.13    2.38   0
  -5  11   8    7.87    2.22   0
  -5  11   8   16.60    2.21   0
   5 -11  -8    8.22    1.75   0
  -4  11   8    1.21    1.65   0
  -4  11   8    1.18    2.12   0
   4 -11  -8    1.22    1.61   0
  -3  11   8   18.53    1.62   0
   3 -11  -8   19.09    1.69   0
  -2  11   8   12.20    8.59   0
   2 -11  -8    6.40    7.69   0
  -1  11   8   64.59   10.11   0
   1 -11  -8   80.28    7.36   0
  -4 -10   9   -3.59    2.11   0
  -4 -10   9    1.67    1.82   0
  -3 -10   9   15.28    2.14   0
  -3 -10   9   16.36    1.92   0
  -2 -10   9   31.08    6.86   0
   2  10  -9   18.53    6.17   0
  -1 -10   9    0.20    1.76   0
   1  10  -9    0.22    1.66   0
   0 -10   9    4.50    2.37   0
   0  10  -9    5.13    1.96   0
   1 -10   9   38.27    2.73   0
  -1  10  -9   37.98    3.01   0
   2 -10   9  108.51    5.50   0
  -2  10  -9  108.59    5.53   0
   3 -10   9   16.77    2.45   0
  -3  10  -9   17.30    1.89   0
  -5  -9   9   14.21    2.27   0
  -5  -9   9   14.16    1.77   0
  -4  -9   9   -8.63    1.91   0
  -4  -9   9   -1.35    2.25   0
  -3  -9   9   16.50    2.17   0
  -3  -9   9   16.68    1.95   0
  -2  -9   9   47.73    3.42   0
   2   9  -9   47.79    2.90   0
  -1  -9   9   21.97    1.86   0
   1   9  -9   21.94    1.50   0
   0  -9   9   13.15    1.89   0
   0   9  -9   -9.55    2.18   0
   1  -9   9   15.91    2.03   0
  -1   9  -9   15.89    1.88   0
   2  -9   9   24.85    2.09   0
  -2   9  -9   25.43    2.23   0
   3  -9   9    2.03    2.09   0
  -3   9  -9    2.38    2.20   0
   4  -9   9    4.61    2.38   0
  -4   9  -9  -19.29    1.62   0
  -7  -8   9   28.59    2.48   0
  -7  -8   9   22.81    1.81   0
  -7  -8   9   31.14    2.07   0
  -6  -8   9   42.39    3.09   0
  -6  -8   9   58.17    3.18   0
  -5  -8   9    2.78    1.98   0
  -5  -8   9    3.26    2.43   0
  -4  -8   9   -6.16    2.24   0
  -4  -8   9  -14.31    1.63   0
  -3  -8   9   29.71    2.53   0
  -3  -8   9   29.66    2.92   0
  -2  -8   9    3.97    2.35   0
   2   8  -9    4.04    2.35   0
  -1  -8   9   11.13    2.21   0
   1   8  -9   11.48    1.72   0
   0  -8   9   10.07    2.23   0
   0   8  -9    9.65    1.87   0
   1  -8   9    9.13    2.17   0
  -1   8  -9   -5.32    1.68   0
   2  -8   9  154.00    5.17   0
  -2   8  -9  153.77    5.47   0
   3  -8   9   34.29    3.17   0
  -3   8  -9   33.89    3.28   0
   4  -8   9    1.88    2.05   0
  -4   8  -9   -5.63    2.18   0
   5  -8   9   51.20    2.51   0
  -5   8  -9   51.45    2.93   0
  -8  -7   9   26.19    1.95   0
  -8  -7   9   -5.40    1.54   0
  -8  -7   9   11.26    2.35   0
  -7  -7   9   13.17    2.20   0
  -7  -7   9   12.38    2.41   0
  -6  -7   9    6.41    1.83   0
  -6  -7   9    5.56    1.57   0
  -5  -7   9   74.77    2.58   0
  -5  -7   9   75.70    3.07   0
  -4  -7   9   65.16    2.64   0
  -4  -7   9   86.05    3.41   0
  -3  -7   9   47.99    3.49   0
  -3  -7   9   48.15    3.35   0
  -2  -7   9  310.40    4.82   0
   2   7  -9  309.82    4.75   0
  -1  -7   9   77.65    3.31   0
   1   7  -9   78.15    3.36   0
   0  -7   9  154.24    5.87   0
   0   7  -9  154.05    6.14   0
   1  -7   9   19.73    1.69   0
  -1   7  -9   19.52    1.92   0
   2  -7   9   -3.08    1.67   0
  -2   7  -9  -42.09    2.43   0
   3  -7   9   27.10    2.50   0
  -3   7  -9   27.11    3.44   0
   4  -7   9   24.05    9.41   0
  -4   7  -9   18.99    1.75   0
   5  -7   9   28.24    2.40   0
  -6   7  -9  142.52    5.96   0
  -8  -6   9    0.16    1.79   0
  -8  -6   9    0.18    1.86   0
  -7  -6   9   -0.14    1.70   0
  -7  -6   9   -2.76    2.02   0
  -6  -6   9   63.30    3.07   0
  -6  -6   9   62.97    2.57   0
  -5  -6   9   20.52    2.19   0
  -5  -6   9   20.98    1.71   0
  -4  -6   9    6.38    2.25   0
  -4  -6   9    5.93    2.48   0
  -3  -6   9    1.83    1.89   0
  -3  -6   9    1.84    1.91   0
  -3  -6   9    1.81    2.24   0
  -2  -6   9   32.96    3.46   0
  -2  -6   9   32.86    2.77   0
  -2  -6   9   32.74    3.05   0
  -1  -6   9   81.05    3.51   0
   1   6  -9   81.14    3.69   0
   0  -6   9   12.00    2.87   0
   0   6  -9   12.17    3.06   0
   1  -6   9    0.64    2.01   0
  -1   6  -9    0.68    2.25   0
   2  -6   9  127.43    5.51   0
  -2   6  -9  126.85    5.98   0
   3  -6   9    0.54    1.02   0
  -3   6  -9    0.49    1.62   0
   4  -6   9  -10.85    2.46   0
  -4   6  -9   41.55    2.05   0
  -5   6  -9   21.59    1.73   0
  -5   6  -9   26.55    2.12   0
   6  -6   9   51.20    3.15   0
  -6   6  -9   50.54    2.87   0
  -6   6  -9   50.67    3.27   0
  -9  -5   9    0.07    1.90   0
  -9  -5   9    0.06    1.94   0
  -8  -5   9   22.75    1.51   0
  -8  -5   9   23.43    2.20   0
  -8  -5   9   22.92    1.79   0
  -7  -5   9   49.36    3.03   0
  -7  -5   9   48.62    2.54   0
  -6  -5   9  128.54    5.10   0
  -6  -5   9  129.46    4.65   0
  -5  -5   9  284.00    6.41   0
  -5  -5   9  284.16    6.13   0
  -4  -5   9   13.15    1.56   0
  -4  -5   9   12.71    2.43   0
  -4  -5   9   12.75    1.83   0
  -3  -5   9   30.25    2.27   0
  -3  -5   9   29.80    1.77   0
  -2  -5   9   30.80    2.10   0
  -2  -5   9   31.16    2.09   0
  -1  -5   9   11.76    2.19   0
  -1  -5   9  -20.68    2.37   0
  -1  -5   9   -1.88    1.84   0
   0  -5   9    6.97    1.51   0
   0   5  -9    7.06    1.97   0
   1  -5   9  -10.29    2.01   0
  -1   5  -9   19.37    1.83   0
  -2   5  -9   56.30    3.55   0
   3  -5   9   64.89    3.34   0
  -3   5  -9   64.95    3.10   0
  -3   5  -9   65.11    2.66   0
  -3   5  -9   65.33    2.64   0
   4  -5   9    2.30    1.57   0
  -4   5  -9    1.72    1.79   0
  -4   5  -9    2.48    2.18   0
  -4   5  -9    2.26    1.91   0
  -5   5  -9    3.45    1.66   0
  -5   5  -9   -5.30    1.83   0
  -6   5  -9    9.21    1.72   0
  -6   5  -9    8.62    2.13   0
  -7   5  -9   -6.31    2.03   0
  -7   5  -9    5.18    1.97   0
 -10  -4   9   19.53    2.88   0
 -10  -4   9   30.83    2.54   0
  -9  -4   9   49.65    3.18   0
  -9  -4   9   28.85    2.53   0
  -8  -4   9    5.88    1.97   0
  -8  -4   9    5.73    1.64   0
  -7  -4   9   65.20    3.11   0
  -7  -4   9   65.37    2.76   0
  -7  -4   9   65.18    3.36   0
  -6  -4   9  239.52    5.51   0
  -6  -4   9  239.91    5.88   0
  -5  -4   9   18.25    2.43   0
  -5  -4   9   17.22    2.34   0
  -4  -4   9   12.07    2.10   0
  -4  -4   9   11.85    1.64   0
  -3  -4   9    4.92    2.05   0
  -3  -4   9    9.44    2.49   0
  -2  -4   9   19.01    1.82   0
  -2  -4   9   31.97    2.24   0
  -1  -4   9  226.06    5.82   0
  -1  -4   9  226.13    5.50   0
   0  -4   9    8.21    1.65   0
   0  -4   9    8.42    1.76   0
   0   4  -9    7.88    2.10   0
   1  -4   9  236.01    4.58   0
  -1   4  -9  236.31    5.38   0
   2  -4   9  807.62    7.58   0
   2  -4   9  808.33    8.12   0
  -2   4  -9  808.04    7.51   0
  -2   4  -9  808.15    7.58   0
  -3   4  -9  317.56    4.81   0
  -3   4  -9  228.98    5.01   0
  -4   4  -9    1.23    2.41   0
  -4   4  -9    3.34    2.17   0
  -4   4  -9   -2.68    2.33   0
   5  -4   9    5.06    1.76   0
  -5   4  -9    4.65    1.51   0
  -6   4  -9   12.49    1.83   0
  -6   4  -9    0.95    2.36   0
   7  -4   9   17.23    2.40   0
  -7   4  -9   17.31    1.84   0
 -10  -3   9   10.03    1.68   0
 -10  -3   9    9.74    2.07   0
 -10  -3   9    9.99    2.24   0
  -9  -3   9   15.81    2.38   0
  -9  -3   9   16.41    2.21   0
  -9  -3   9   15.67    2.42   0
  -8  -3   9   27.75    3.33   0
  -8  -3   9   27.50    2.61   0
  -7  -3   9    6.62    2.33   0
  -6  -3   9  141.27    5.49   0
  -6  -3   9  141.02    5.15   0
  -5  -3   9   12.23    1.80   0
  -5  -3   9   11.53    2.40   0
  -4  -3   9   36.87    3.05   0
  -4  -3   9   36.57    3.38   0
  -3  -3   9   82.22    4.92   0
  -3  -3   9   81.61    4.73   0
  -2  -3   9   70.97    3.86   0
  -2  -3   9   71.49    4.45   0
  -1  -3   9   37.46    3.19   0
  -1  -3   9   37.45    3.28   0
   0  -3   9   -7.08    1.90   0
   0   3  -9    2.39    2.20   0
   1  -3   9  107.98    5.43   0
  -1   3  -9  108.26    5.35   0
   2  -3   9  599.29    6.20   0
  -2   3  -9  599.02    6.36   0
   3  -3   9   36.47    2.74   0
   3  -3   9   20.79    2.53   0
  -3   3  -9   32.05    3.40   0
  -3   3  -9   24.99    3.15   0
  -4   3  -9    5.75    1.58   0
  -4   3  -9    1.88    1.95   0
  -5   3  -9   11.28    2.28   0
  -5   3  -9    3.65    1.79   0
   6  -3   9   16.41    2.28   0
  -6   3  -9   16.28    1.51   0
  -6   3  -9   15.98    1.62   0
  -7   3  -9   11.40    2.35   0
  -7   3  -9   10.97    2.46   0
 -10  -2   9  145.65    4.61   0
 -10  -2   9  145.72    5.42   0
  -9  -2   9  149.66    5.29   0
  -9  -2   9  149.56    4.64   0
  -8  -2   9    0.44    1.97   0
  -8  -2   9    0.36    1.92   0
  -7  -2   9   -9.48    2.04   0
  -7  -2   9  -10.98    2.00   0
   7   2  -9    4.28    1.58   0
  -6  -2   9   24.25    1.86   0
   6   2  -9   24.38    1.68   0
  -5  -2   9    1.10    1.69   0
   5   2  -9    1.09    2.40   0
  -4  -2   9   25.98    1.56   0
   4   2  -9   10.73    1.73   0
  -3  -2   9  214.28    5.01   0
   3   2  -9  213.66    5.07   0
  -2  -2   9 1764.82   17.05   0
   2   2  -9 1558.19   15.43   0
  -1  -2   9  280.56    6.43   0
   1   2  -9  281.49    5.93   0
   0  -2   9   10.64    2.32   0
   0  -2   9   10.59    1.93   0
   0   2  -9   10.96    2.33   0
   1  -2   9    3.13    1.71   0
  -1   2  -9    3.20    1.75   0
   2  -2   9    3.82    2.31   0
   2  -2   9    3.97    1.71   0
  -2   2  -9    4.17    1.78   0
   3  -2   9   22.75    2.58   0
  -3   2  -9   23.06    2.82   0
   4  -2   9  -12.53    2.26   0
  -4   2  -9   12.08    2.01   0
   5  -2   9   19.30    2.21   0
  -5   2  -9   19.04    1.79   0
   6  -2   9   54.24    3.07   0
  -6   2  -9   53.75    3.21   0
  -7   2  -9   -5.25    1.97   0
  -7   2  -9   -4.86    2.45   0
 -11  -1   9    5.61    1.99   0
 -11  -1   9    5.65    1.91   0
 -10  -1   9    1.47    1.97   0
 -10  -1   9    1.46    1.78   0
  -9  -1   9   13.27    6.40   0
  -8  -1   9    7.17    2.00   0
   8   1  -9   33.83    1.80   0
  -7  -1   9   62.42    4.11   0
   7   1  -9   62.31    4.12   0
  -6  -1   9  921.42    6.76   0
   6   1  -9  920.66    7.13   0
  -5  -1   9  486.12    6.80   0
   5   1  -9  570.76    7.22   0
  -4  -1   9   87.22    3.99   0
   4   1  -9   86.98    4.45   0
  -3  -1   9  303.86    6.54   0
   3   1  -9  304.23    6.91   0
  -2  -1   9  471.90    7.48   0
   2   1  -9  528.03    6.65   0
  -1  -1   9   27.16    2.32   0
  -1  -1   9   27.36    2.02   0
   1   1  -9   26.70    1.91   0
   0  -1   9   43.93    3.00   0
   0   1  -9   42.42    3.05   0
   1  -1   9   24.13    2.14   0
  -1   1  -9   29.73    1.87   0
   2  -1   9  516.56    7.42   0
  -2   1  -9  516.50    6.54   0
   3  -1   9  176.49    5.69   0
  -3   1  -9  176.25    5.71   0
   4  -1   9   27.87    1.70   0
  -4   1  -9   -5.43    1.83   0
   5  -1   9   35.42    2.70   0
  -5   1  -9   35.05    3.21   0
   6  -1   9  119.08    4.76   0
  -6   1  -9  119.46    4.83   0
   7  -1   9   19.90    1.79   0
  -7   1  -9   -0.65    2.38   0
 -11   0   9    0.01    2.44   0
 -11   0   9    0.02    1.80   0
 -10   0   9   18.68    2.43   0
  10   0  -9  -14.23    2.12   0
   9   0  -9  -40.82    1.91   0
  -8   0   9    0.84    1.99   0
  -7   0   9    9.20    2.40   0
   7   0  -9    9.36    1.90   0
  -6   0   9   -0.81    2.00   0
   6   0  -9    8.99    1.71   0
  -5   0   9    4.81    1.61   0
   5   0  -9   -1.42    2.42   0
  -4   0   9    1.43    1.91   0
   4   0  -9    1.40    2.49   0
  -3   0   9  -22.96    1.55   0
   3   0  -9   -4.11    1.59   0
  -2   0   9    9.53    2.29   0
  -2   0   9  -24.24    2.15   0
   2   0  -9   -8.45    2.17   0
  -1   0   9   -2.60    1.52   0
   1   0  -9  -10.42    2.01   0
   0   0   9    0.53    1.64   0
   0   0  -9    0.48    1.95   0
   1   0   9   24.33    2.53   0
  -1   0  -9   32.77    2.88   0
   2   0   9   16.49    2.48   0
  -2   0  -9   15.51    1.81   0
   3   0   9   10.35    2.49   0
  -3   0  -9   -1.83    1.50   0
   4   0   9    0.57    1.73   0
  -4   0  -9   21.18    2.12   0
   5   0   9  -18.37    2.17   0
  -5   0  -9   -9.92    1.60   0
   6   0   9  -25.41    2.02   0
  -6   0  -9    2.79    2.09   0
   7   0   9   21.38    1.79   0
  -7   0  -9  -14.91    1.81   0
 -11   1   9    4.97    2.00   0
 -10   1   9  -24.76    1.55   0
  10  -1  -9   -6.10    2.26   0
  -9   1   9   34.22    1.78   0
   9  -1  -9   34.01    2.26   0
  -8   1   9   12.75    1.59   0
   8  -1  -9   12.61    1.86   0
  -7   1   9  332.98    7.40   0
   7  -1  -9  332.55    7.28   0
  -6   1   9 1270.88   11.45   0
   6  -1  -9  912.98    5.32   0
  -5   1   9  419.91    4.69   0
   5  -1  -9  288.31    4.97   0
  -4   1   9  248.56    4.62   0
   4  -1  -9  199.57    4.65   0
  -3   1   9  597.45    4.80   0
   3  -1  -9  342.65    4.87   0
  -2   1   9  257.36    5.06   0
   2  -1  -9  257.31    4.74   0
  -1   1   9    1.49    2.17   0
   1  -1  -9    1.56    1.82   0
   0   1   9   61.28    2.51   0
   0  -1  -9   61.01    3.33   0
   1   1   9  195.86    4.95   0
  -1  -1  -9  107.06    8.45   0
   2   1   9  505.22    6.07   0
  -2  -1  -9  505.36    6.36   0
   3   1   9   87.83    4.14   0
  -3  -1  -9   87.53    3.54   0
   4   1   9    0.37    1.54   0
  -4  -1  -9    0.39    2.18   0
   5   1   9  105.20   10.71   0
  -5  -1  -9   86.37    3.63   0
   6   1   9   86.54    3.03   0
  -6  -1  -9   49.30    2.67   0
   7   1   9   10.41    2.29   0
  -7  -1  -9   -6.22    2.29   0
 -11   2   9   87.77    3.64   0
  11  -2  -9   88.21    4.45   0
 -10   2   9  120.33   10.34   0
  10  -2  -9   95.28    9.43   0
  -9   2   9   45.75    1.56   0
   9  -2  -9   16.55    1.74   0
  -8   2   9   18.32    1.76   0
   8  -2  -9   49.56    3.16   0
  -7   2   9   61.53    2.78   0
   7  -2  -9  105.94    5.20   0
  -6   2   9    1.37    1.78   0
   6  -2  -9    1.41    1.64   0
  -5   2   9   28.39    1.78   0
   5  -2  -9   27.86    1.97   0
  -4   2   9   65.24    2.62   0
   4  -2  -9   51.09    2.63   0
  -3   2   9 1139.77    8.46   0
   3  -2  -9 1139.80    8.43   0
  -2   2   9  680.07    6.46   0
   2  -2  -9  679.94    6.41   0
  -1   2   9   77.15    3.94   0
   1  -2  -9   76.74    4.30   0
   0   2   9   -7.82    2.28   0
   0   2   9   13.58    1.57   0
   0   2   9  -10.51    1.66   0
   0  -2  -9   12.46    2.11   0
   1   2   9    7.88    1.99   0
  -1  -2  -9    7.67    1.73   0
   2   2   9   14.93    2.15   0
  -2  -2  -9   36.11    2.47   0
   3   2   9    8.63    2.45   0
  -3  -2  -9  -17.48    1.89   0
   4   2   9   14.55    1.70   0
  -4  -2  -9  -24.93    1.85   0
   5   2   9   52.90    2.55   0
  -5  -2  -9   52.75    3.45   0
   6   2   9    5.71    1.60   0
  -6  -2  -9    5.82    1.57   0
 -11   3   9   27.15    2.25   0
  11  -3  -9   26.63    2.12   0
 -10   3   9   22.65    2.30   0
  10  -3  -9   23.41    2.00   0
   9  -3  -9    8.27    1.67   0
  -8   3   9   31.11    2.88   0
   8  -3  -9   31.12    3.19   0
  -7   3   9  101.07    4.60   0
   7  -3  -9  100.98    4.01   0
  -6   3   9    7.23    1.57   0
   6  -3  -9    6.52    2.34   0
  -5   3   9   10.52    9.52   0
   5  -3  -9   36.10   12.51   0
  -4   3   9  155.04   12.31   0
   4  -3  -9  184.02   12.43   0
  -3   3   9  125.85    4.61   0
   3  -3  -9  125.93    5.37   0
  -2   3   9   22.20    1.55   0
   2  -3  -9   22.12    2.37   0
  -1   3   9    0.58    2.19   0
  -1   3   9    0.59    2.44   0
   0   3   9   32.95    3.37   0
   0  -3  -9   32.56    2.63   0
   1   3   9  707.62    5.23   0
  -1  -3  -9  707.71    4.71   0
   2   3   9   30.73    1.94   0
  -2  -3  -9   30.93    2.44   0
   3   3   9   -9.42    1.67   0
  -3  -3  -9    5.82    2.19   0
   4   3   9    0.30    2.42   0
   5   3   9    9.13    2.36   0
  -5  -3  -9    8.99    1.58   0
   6   3   9   19.95    2.35   0
  -6  -3  -9    4.96    2.32   0
 -11   4   9   23.74    2.31   0
  11  -4  -9  -19.13    1.53   0
 -10   4   9   28.30    2.01   0
  10  -4  -9   27.94    2.15   0
  -9   4   9  -12.98    1.80   0
   9  -4  -9   12.61    2.22   0
  -8   4   9  102.00    4.58   0
   8  -4  -9  101.80    4.59   0
  -7   4   9  285.71    7.40   0
   7  -4  -9  286.30    6.94   0
  -6   4   9  -21.02    2.15   0
   6  -4  -9   10.25    1.72   0
  -5   4   9   38.37    3.27   0
   5  -4  -9   37.81    3.46   0
  -4   4   9    3.22    2.10   0
   4  -4  -9   23.74    1.85   0
  -3   4   9   14.68    1.81   0
   3  -4  -9   17.36    2.34   0
  -2   4   9  444.75    5.46   0
  -2   4   9  307.03    5.08   0
   2  -4  -9  587.52    5.04   0
  -1   4   9   44.85    3.67   0
   1  -4  -9   45.44    3.98   0
   0   4   9  349.01    6.06   0
   0  -4  -9  348.50    5.97   0
   1   4   9  946.26    8.69   0
  -1  -4  -9  946.21    9.33   0
   2   4   9  187.15    3.92   0
  -2  -4  -9  186.79    4.41   0
   3   4   9    0.21    2.08   0
  -3  -4  -9    0.17    1.55   0
   4   4   9    0.85    2.33   0
  -4  -4  -9    8.13    2.24   0
   5   4   9    8.99    2.35   0
  -5  -4  -9   -6.32    1.53   0
   6   4   9   33.66    3.13   0
  -6  -4  -9   34.30    3.07   0
 -11   5   9   15.75    6.24   0
  11  -5  -9  -13.97    6.69   0
 -10   5   9   -7.41    8.50   0
  10  -5  -9   -8.74    9.09   0
  -9   5   9   92.86    3.54   0
   9  -5  -9   92.79    3.97   0
  -8   5   9  126.61    4.56   0
   8  -5  -9  126.71    5.34   0
  -7   5   9  268.12    6.14   0
   7  -5  -9  268.48    5.53   0
  -6   5   9  123.00    4.87   0
   6  -5  -9  123.33    5.25   0
  -5   5   9    0.09    1.60   0
   5  -5  -9    0.10    2.32   0
  -4   5   9   74.28    4.02   0
  -4   5   9   74.24    4.10   0
   4  -5  -9   73.94    4.11   0
  -3   5   9   12.64    2.39   0
  -3   5   9   13.03    1.80   0
   3  -5  -9   12.65    2.42   0
  -2   5   9    4.78    1.61   0
  -2   5   9    4.68    1.58   0
  -1   5   9    0.01    2.24   0
   1  -5  -9    0.02    1.56   0
   0   5   9   48.94    2.68   0
   0   5   9   48.66    3.49   0
   1   5   9   51.13    3.73   0
  -1  -5  -9   51.31    3.86   0
   2   5   9   -3.68    1.86   0
  -2  -5  -9   42.20    2.42   0
   3   5   9   13.70    1.85   0
  -3  -5  -9   -6.69    1.99   0
  -4  -5  -9   -0.45    1.76   0
   5   5   9    5.09    1.59   0
  -5  -5  -9   22.53    1.59   0
 -10   6   9    2.49    2.22   0
  10  -6  -9    2.29    2.36   0
  -9   6   9   14.45    2.15   0
   9  -6  -9   -6.52    2.39   0
  -8   6   9   58.85    4.20   0
   8  -6  -9   58.65    3.63   0
  -7   6   9   59.51    3.96   0
   7  -6  -9   58.77    4.38   0
  -6   6   9   11.73    1.73   0
  -6   6   9   11.61    1.54   0
  -5   6   9    3.84    2.12   0
   5  -6  -9    4.19    1.69   0
  -4   6   9    1.55    2.18   0
   4  -6  -9    1.73    2.17   0
  -3   6   9  101.96    5.05   0
   3  -6  -9  108.24    4.88   0
  -2   6   9    1.53    2.80   0
  -2   6   9    1.52    3.29   0
  -1   6   9   25.44    2.53   0
   1  -6  -9   24.71    2.97   0
   0   6   9  105.55    4.64   0
   0  -6  -9  105.84    4.80   0
   1   6   9   17.84    1.96   0
  -1  -6  -9   18.14    1.56   0
   2   6   9   -1.92    1.52   0
  -2  -6  -9    5.52    1.84   0
   3   6   9   12.38    2.14   0
  -3  -6  -9   11.64    2.05   0
   4   6   9   90.03    3.59   0
  -4  -6  -9   90.49    3.69   0
   5   6   9   38.49    3.88   0
  -5  -6  -9   21.45    3.78   0
 -10   7   9   -6.67    2.44   0
 -10   7   9   17.47    2.23   0
  10  -7  -9    4.83    2.12   0
  -9   7   9   14.53    2.43   0
  -9   7   9   15.03    2.33   0
  -8   7   9   26.55    1.71   0
   8  -7  -9   27.46    1.69   0
  -7   7   9  137.91    5.04   0
   7  -7  -9  138.17    4.56   0
  -6   7   9   69.35    3.87   0
   6  -7  -9   69.28    3.88   0
  -5   7   9   82.23    3.82   0
   5  -7  -9   82.17    4.07   0
  -4   7   9  327.24    5.24   0
   4  -7  -9  327.15    4.51   0
  -3   7   9  133.30    7.37   0
   3  -7  -9  130.13    6.23   0
  -2   7   9  161.29    4.70   0
  -2   7   9  161.43    4.81   0
  -1   7   9   32.01    3.02   0
  -1   7   9   26.57    2.78   0
   1  -7  -9   36.06    2.97   0
   0   7   9    0.44    1.91   0
   0   7   9    0.40    1.97   0
   0  -7  -9    0.42    2.20   0
   1   7   9   50.63    4.33   0
  -1  -7  -9   67.61    4.34   0
   2   7   9    4.29    1.99   0
  -2  -7  -9    4.40    2.04   0
   3   7   9   72.05    7.58   0
  -3  -7  -9   19.83    6.37   0
   4   7   9   88.50    3.72   0
  -4  -7  -9   88.67    4.35   0
  -9   8   9   12.96    2.39   0
  -9   8   9   13.31    1.73   0
  -8   8   9   33.00    2.91   0
  -8   8   9   36.28    2.96   0
  -7   8   9   -1.27    7.02   0
   7  -8  -9   10.56    8.21   0
  -6   8   9    1.64    2.17   0
   6  -8  -9    1.58    1.61   0
  -5   8   9   17.27    1.77   0
  -5   8   9   16.69    1.65   0
   5  -8  -9   16.63    2.18   0
  -4   8   9    8.57    1.66   0
   4  -8  -9    3.32    2.37   0
  -3   8   9    5.36    1.28   0
  -3   8   9    5.40    1.65   0
  -2   8   9   14.28    2.30   0
   2  -8  -9   14.16    1.61   0
  -1   8   9   21.61    1.53   0
   1  -8  -9   22.33    2.41   0
   0   8   9  155.89    4.53   0
   0  -8  -9  156.14    4.58   0
   1   8   9   -0.73   13.94   0
  -1  -8  -9   15.27    7.09   0
   2   8   9   10.30    7.00   0
   2   8   9   10.62   13.26   0
   3   8   9   69.39    7.23   0
  -3  -8  -9   37.65    7.75   0
  -8   9   9   51.43    2.79   0
   8  -9  -9   51.26    3.40   0
  -7   9   9   31.29    2.00   0
   7  -9  -9   31.23    2.12   0
  -6   9   9  -27.40    1.99   0
   6  -9  -9    4.06    1.58   0
  -5   9   9   54.97    3.38   0
  -5   9   9   55.34    2.94   0
  -4   9   9   36.89    3.20   0
   4  -9  -9   37.16    2.86   0
  -3   9   9    1.65    2.38   0
  -3   9   9    1.71    2.27   0
  -2   9   9    7.47    2.12   0
   2  -9  -9   22.96    1.53   0
  -1   9   9   22.74    2.15   0
  -1   9   9   22.79    2.12   0
   0   9   9   17.04    1.84   0
   0  -9  -9   -9.71    1.71   0
   1   9   9    2.32    1.93   0
  -1  -9  -9    1.68    1.57   0
   2   9   9   14.44    1.75   0
  -2  -9  -9    8.55    2.14   0
  -7  10   9   19.98    1.88   0
   7 -10  -9   13.40    2.01   0
  -6  10   9   10.51    2.40   0
   6 -10  -9   11.04    2.32   0
  -5  10   9   48.90    2.56   0
  -5  10   9   49.43    2.59   0
   5 -10  -9   48.89    2.60   0
  -4  10   9    6.74    2.30   0
   4 -10  -9    1.20    1.57   0
  -3  10   9   14.85    1.81   0
  -3  10   9   15.06    1.95   0
  -2  10   9   25.90    2.47   0
  -2  10   9   19.97    2.19   0
   2 -10  -9   18.31    1.96   0
  -1  10   9  102.00    5.36   0
   1 -10  -9  102.46    4.81   0
   0  10   9   56.01    2.59   0
   0  10   9   73.15    3.26   0
   0 -10  -9   64.87    2.90   0
  -2 -10  10   -1.28    9.38   0
   2  10 -10   34.73    8.70   0
  -1 -10  10   57.89    9.93   0
   1  10 -10   26.06    9.64   0
   0 -10  10   33.28    9.32   0
   0  10 -10   51.69    8.14   0
   1 -10  10   91.88   10.41   0
  -1  10 -10   44.79    8.72   0
  -5  -9  10    2.61   10.46   0
  -5  -9  10  -17.88    7.42   0
  -4  -9  10   14.92   10.69   0
  -4  -9  10    9.61   10.25   0
  -3  -9  10    1.25   14.02   0
  -3  -9  10   -0.96   13.77   0
  -2  -9  10    0.88    7.33   0
  -1  -9  10   28.04    2.76   0
   1   9 -10   27.73    2.92   0
   0  -9  10   11.07    1.59   0
   0   9 -10   10.79    1.75   0
   1  -9  10   20.37    1.58   0
  -1   9 -10   10.23    2.01   0
   2  -9  10   54.35    2.92   0
  -2   9 -10   54.22    3.12   0
   3  -9  10   35.51    2.95   0
  -3   9 -10   36.06    3.18   0
  -6  -8  10    7.62    1.93   0
  -6  -8  10    8.27    1.60   0
  -5  -8  10   23.91    2.29   0
  -5  -8  10   -0.08    2.08   0
  -4  -8  10   26.52    2.70   0
  -4  -8  10   26.87    2.68   0
  -3  -8  10   14.62    2.48   0
  -3  -8  10   -2.85    1.70   0
  -3  -8  10    7.57    1.81   0
  -2  -8  10    3.45    2.49   0
  -1  -8  10    0.07    1.68   0
   1   8 -10    0.08    1.90   0
   0  -8  10    2.47    1.65   0
   0   8 -10    2.48    2.29   0
   1  -8  10    4.06    1.73   0
  -1   8 -10    0.04    2.06   0
   2  -8  10   10.07    1.73   0
  -2   8 -10   -0.31    2.29   0
   3  -8  10    9.05    1.57   0
  -3   8 -10   -7.86    1.67   0
   4  -8  10    9.84    2.14   0
  -4   8 -10   10.06    1.59   0
  -7  -7  10   23.26    2.30   0
  -7  -7  10    0.18    2.22   0
  -7  -7  10  -25.44    2.28   0
  -6  -7  10    7.75    2.45   0
  -6  -7  10    6.15    1.78   0
  -6  -7  10    6.45    2.45   0
  -5  -7  10   21.30    1.80   0
  -5  -7  10   21.12    2.02   0
  -5  -7  10   20.77    1.61   0
  -4  -7  10   32.38    3.28   0
  -4  -7  10   32.11    2.70   0
  -4  -7  10   32.17    2.76   0
  -3  -7  10    2.47    1.61   0
  -3  -7  10    5.87    2.05   0
  -2  -7  10    3.31    1.78   0
  -1  -7  10   47.60    3.74   0
   1   7 -10   47.64    4.21   0
   0  -7  10   53.20    2.51   0
   0   7 -10   31.70    2.96   0
   1  -7  10   65.04    4.81   0
  -1   7 -10   64.66    4.61   0
   2  -7  10   12.60    2.19   0
  -2   7 -10   13.14    2.15   0
   3  -7  10    6.46    1.89   0
  -3   7 -10    6.33    1.68   0
   4  -7  10   -8.48    1.92   0
  -4   7 -10   15.68    1.67   0
  -5   7 -10    3.36    2.21   0
  -8  -6  10   14.85    2.26   0
  -8  -6  10   13.27    2.00   0
  -8  -6  10   25.39    2.09   0
  -7  -6  10   16.17    2.41   0
  -7  -6  10   15.56    2.08   0
  -7  -6  10   16.35    2.04   0
  -6  -6  10   45.62    4.16   0
  -6  -6  10   45.54    4.28   0
  -5  -6  10   20.90   16.03   0
  -5  -6  10   14.10    9.71   0
  -5  -6  10    8.97   10.56   0
  -4  -6  10  -15.15   12.28   0
  -4  -6  10   16.97   11.59   0
  -3  -6  10   27.37   12.72   0
  -3  -6  10   30.62   14.39   0
  -2  -6  10    1.62   14.12   0
  -2  -6  10    2.87   14.47   0
  -1  -6  10   -1.60   11.95   0
   0   6 -10   -1.48   12.17   0
   1  -6  10   26.07   11.76   0
  -1   6 -10   44.08   13.12   0
   2  -6  10   40.87   10.23   0
  -2   6 -10   15.68   11.90   0
   3  -6  10    6.69   11.31   0
  -3   6 -10    2.83   12.78   0
   4  -6  10   17.68   10.94   0
  -4   6 -10    7.50   13.62   0
  -5   6 -10    8.43   13.73   0
  -9  -5  10   16.95    2.47   0
  -9  -5  10   17.15    2.30   0
  -8  -5  10  -28.92    2.29   0
  -8  -5  10   23.53    1.93   0
  -8  -5  10   -3.06    1.88   0
  -7  -5  10  -19.33    1.62   0
  -7  -5  10  -10.80    2.40   0
  -6  -5  10   12.32    2.15   0
  -6  -5  10   -4.08    1.73   0
  -6  -5  10    4.23    2.47   0
  -5  -5  10   -8.93    2.03   0
  -5  -5  10  -10.31    2.02   0
  -5  -5  10    0.37    2.42   0
  -4  -5  10    2.45    1.97   0
  -4  -5  10    2.47    2.12   0
  -3  -5  10   -5.42    1.53   0
  -3  -5  10    9.15    2.04   0
  -2  -5  10   19.11    1.63   0
  -2  -5  10   19.47    1.54   0
  -1  -5  10   12.93    2.16   0
  -1  -5  10   12.50    1.94   0
   0  -5  10   51.14    3.93   0
   1  -5  10   18.99    2.18   0
  -1   5 -10   -6.14    2.39   0
   2  -5  10   19.07    2.16   0
  -2   5 -10    2.49    1.90   0
  -3   5 -10    6.50    1.95   0
  -3   5 -10    4.85    1.71   0
  -3   5 -10   17.10    2.18   0
  -4   5 -10    4.15    1.71   0
  -4   5 -10   -7.06    1.68   0
  -4   5 -10   -5.53    2.07   0
   5  -5  10    8.21    2.15   0
  -5   5 -10    8.16    2.14   0
  -5   5 -10    8.20    1.68   0
   6  -5  10   16.31    2.11   0
  -6   5 -10   16.09    2.48   0
  -9  -4  10   25.82    2.00   0
  -9  -4  10   -0.15    2.30   0
  -8  -4  10    2.68    2.08   0
  -8  -4  10    6.98    1.78   0
  -7  -4  10   -0.94    1.62   0
  -7  -4  10    5.12    2.00   0
  -6  -4  10  111.78    5.53   0
  -6  -4  10  112.29    5.91   0
  -6  -4  10  112.05    5.83   0
  -5  -4  10  358.89    6.30   0
  -5  -4  10  359.29    6.20   0
  -4  -4  10   34.15    2.84   0
   4   4 -10   32.25    3.45   0
  -3  -4  10   61.29    3.39   0
   3   4 -10   60.50    2.91   0
  -2  -4  10   67.68    2.90   0
  -2  -4  10   68.07    3.49   0
   2   4 -10   68.16    3.10   0
  -1  -4  10  137.59    5.36   0
   1   4 -10  138.46    4.58   0
   0  -4  10   37.40    2.84   0
   0   4 -10   36.80    2.52   0
   1  -4  10   17.12    2.26   0
   1  -4  10   17.45    2.32   0
  -1   4 -10   17.40    2.31   0
   2  -4  10  123.77    5.11   0
  -2   4 -10  123.91    4.76   0
   3  -4  10   87.94    3.71   0
  -3   4 -10   87.75    3.81   0
  -4   4 -10    6.89    2.20   0
  -4   4 -10   -2.09    2.34   0
  -4   4 -10    8.25    2.28   0
  -5   4 -10   15.31    2.32   0
  -5   4 -10   14.99    2.14   0
   6  -4  10   15.91    2.36   0
  -6   4 -10   15.60    2.37   0
 -10  -3  10  101.80    5.26   0
 -10  -3  10  101.89    4.69   0
  -9  -3  10   69.52    2.55   0
  -9  -3  10   69.97    3.14   0
  -8  -3  10  -15.63    2.34   0
  -8  -3  10    8.90    1.77   0
  -7  -3  10   -5.68    2.40   0
  -7  -3  10   16.41    2.13   0
  -6  -3  10    5.91    2.14   0
  -6  -3  10   -7.05    1.70   0
   6   3 -10   -2.68    2.17   0
  -5  -3  10    5.12    1.77   0
  -5  -3  10    5.33    2.39   0
   5   3 -10    4.81    2.16   0
  -4  -3  10   10.24    3.38   0
   4   3 -10   23.08    3.05   0
  -3  -3  10  302.30    7.33   0
  -3  -3  10  247.37    7.19   0
  -2  -3  10 1276.15   11.68   0
  -2  -3  10 1275.55   12.17   0
  -1  -3  10  660.88    6.89   0
   1   3 -10  661.02    6.51   0
   0  -3  10   -0.55    1.98   0
   0   3 -10   -7.17    1.95   0
   1  -3  10    7.01    2.37   0
  -1   3 -10    6.90    1.50   0
   2  -3  10  137.47    5.16   0
  -2   3 -10  136.74    5.25   0
   3  -3  10    7.50    1.88   0
   3  -3  10   -3.07    2.08   0
  -3   3 -10   10.69    9.55   0
   4  -3  10    1.88    1.76   0
  -4   3 -10    1.87    1.89   0
   5  -3  10   17.54    1.72   0
  -6   3 -10   52.39    3.51   0
  -6   3 -10   51.75    4.00   0
 -10  -2  10   38.02    3.20   0
 -10  -2  10   37.96    2.67   0
  -9  -2  10   43.47    3.26   0
  -9  -2  10   42.78    3.04   0
  -8  -2  10    7.61    1.52   0
   8   2 -10    1.57    1.95   0
  -7  -2  10   22.08    1.60   0
   7   2 -10   22.23    1.65   0
  -6  -2  10  103.50    4.86   0
   6   2 -10  103.65    5.16   0
  -5  -2  10   24.90    1.60   0
  -5  -2  10   24.89    1.78   0
   5   2 -10   24.70    1.74   0
  -4  -2  10   98.73    4.25   0
  -4  -2  10   98.63    4.57   0
  -3  -2  10   78.71    3.95   0
  -3  -2  10   79.29    3.61   0
   3   2 -10   78.80    3.94   0
  -2  -2  10    9.48    2.42   0
   2   2 -10    9.29    1.59   0
  -1  -2  10   38.55    1.58   0
   1   2 -10   24.18    2.46   0
   0  -2  10   10.65    2.59   0
   0   2 -10   22.54    3.04   0
   1  -2  10   31.80    3.04   0
  -1   2 -10   38.87    2.61   0
   2  -2  10  124.97    5.29   0
   2  -2  10  124.87    4.94   0
   3  -2  10   26.03    1.51   0
  -3   2 -10   25.66    2.06   0
   4  -2  10   11.27    1.81   0
  -4   2 -10    7.23    1.94   0
   5  -2  10    5.93    2.29   0
  -5   2 -10   38.89    2.43   0
   6  -2  10   17.56    1.94   0
  -6   2 -10   41.07    2.37   0
 -10  -1  10   74.87    4.22   0
  -9  -1  10   41.57    2.56   0
   9   1 -10   42.39    2.99   0
  -8  -1  10   24.81    2.26   0
   8   1 -10   43.81    2.22   0
  -7  -1  10    1.79    1.60   0
   7   1 -10    2.28    1.58   0
  -6  -1  10   31.83    2.82   0
   6   1 -10   32.01    2.62   0
  -5  -1  10   17.93    1.94   0
   5   1 -10   18.02    1.59   0
  -4  -1  10   57.95    3.80   0
  -4  -1  10   58.19    4.18   0
  -3  -1  10  578.65    6.11   0
  -3  -1  10  578.79    5.71   0
   3   1 -10  578.56    6.04   0
  -2  -1  10  547.78    5.87   0
   2   1 -10  548.18    6.48   0
  -1  -1  10   84.44    3.83   0
  -1  -1  10   83.56    3.44   0
   1   1 -10   84.40    4.46   0
   0  -1  10  211.41    5.10   0
   0   1 -10  238.65    4.82   0
   1  -1  10  192.17    4.77   0
  -1   1 -10  191.81    4.68   0
   2  -1  10   33.86    3.31   0
  -2   1 -10   36.12    3.04   0
   3  -1  10   12.89    1.96   0
  -3   1 -10   13.19    2.45   0
   4  -1  10    4.22    1.79   0
  -4   1 -10  -15.67    1.58   0
   5  -1  10  154.38    6.43   0
  -5   1 -10  153.77    5.68   0
   6  -1  10   81.06    4.18   0
  -6   1 -10   81.38    4.47   0
 -11   0  10  -20.49    2.20   0
 -10   0  10   -7.44    1.63   0
  10   0 -10   14.73    1.72   0
  -9   0  10   13.98    2.19   0
   9   0 -10   17.74    1.50   0
  -8   0  10   -4.94    2.04   0
   8   0 -10   42.70    1.67   0
  -7   0  10  677.87    6.06   0
   7   0 -10  677.55    5.89   0
  -6   0  10 1439.10   11.54   0
   6   0 -10 1439.22   11.93   0
  -5   0  10  819.05    8.39   0
   5   0 -10  819.21    7.98   0
  -4   0  10    0.97    2.47   0
   4   0 -10   -2.74    1.71   0
  -3   0  10   28.28    2.83   0
   3   0 -10   28.48    3.01   0
  -2   0  10   58.84    3.74   0
   2   0 -10   59.44    3.51   0
  -1   0  10   31.80    2.48   0
   1   0 -10    6.98    2.33   0
   0   0  10   66.93    2.90   0
   0   0  10   67.31    3.20   0
   1   0  10  931.19    7.48   0
  -1   0 -10  931.30    7.31   0
   2   0  10  837.90    6.80   0
  -2   0 -10  838.34    6.82   0
   3   0  10  294.28    4.92   0
  -3   0 -10  294.07    4.53   0
   4   0  10   -6.15    2.16   0
  -4   0 -10   -0.97    2.25   0
   5   0  10   81.64    3.09   0
  -5   0 -10   82.37    2.66   0
   6   0  10   69.25    5.82   0
  -6   0 -10   68.63    5.87   0
 -11   1  10  -20.99    1.58   0
  11  -1 -10   -0.72    1.94   0
 -10   1  10   53.61    4.18   0
  10  -1 -10   67.96    3.94   0
  -9   1  10   18.27    2.06   0
   9  -1 -10  -11.93    2.04   0
  -8   1  10   -0.93    1.89   0
   8  -1 -10   25.84    1.70   0
  -7   1  10   -2.51    1.89   0
   7  -1 -10  -29.39    1.51   0
  -6   1  10   13.05    1.96   0
   6  -1 -10   31.40    2.33   0
  -5   1  10   18.90    2.39   0
   5  -1 -10  -18.46    1.78   0
  -4   1  10    4.04    1.60   0
   4  -1 -10    4.20    1.91   0
  -3   1  10  426.83   10.75   0
   3  -1 -10  758.10   16.39   0
  -2   1  10  395.14    4.67   0
   2  -1 -10  394.63    5.05   0
  -1   1  10    0.81    3.49   0
   1  -1 -10    0.77    3.48   0
   0   1  10  190.16    4.67   0
   0  -1 -10  202.80    5.27   0
   1   1  10  124.83    4.91   0
  -1  -1 -10  148.63    5.45   0
   2   1  10   46.70    2.79   0
  -2  -1 -10   46.79    3.34   0
   3   1  10   13.42    1.78   0
  -3  -1 -10   21.22    1.50   0
   4   1  10   11.51    2.48   0
  -4  -1 -10  -24.52    1.63   0
   5   1  10  181.63    4.75   0
  -5  -1 -10  180.87    5.14   0
   6   1  10   34.17    2.67   0
  -6  -1 -10   33.73    3.35   0
 -11   2  10   11.67    2.40   0
  11  -2 -10   46.83    3.14   0
 -10   2  10   98.85    3.63   0
  10  -2 -10   99.17    4.07   0
  -9   2  10   26.88    3.07   0
   9  -2 -10   27.16    2.51   0
  -8   2  10   13.91    2.35   0
   8  -2 -10   14.49    2.24   0
  -7   2  10  137.48    4.91   0
   7  -2 -10  136.58    5.24   0
  -6   2  10   16.42    1.56   0
   6  -2 -10   15.74    2.47   0
  -5   2  10   77.85    3.44   0
   5  -2 -10   77.61    2.83   0
  -4   2  10  188.67    4.67   0
   4  -2 -10  188.90    5.48   0
  -3   2  10   85.87    4.07   0
   3  -2 -10   86.04    4.40   0
  -2   2  10   49.00    3.81   0
   2  -2 -10   48.66    3.50   0
  -1   2  10   32.13    2.50   0
   1  -2 -10   31.86    2.40   0
   0   2  10   42.86    3.30   0
   0   2  10   43.19    3.30   0
   0   2  10   43.39    2.98   0
   0  -2 -10   43.20    2.84   0
   1   2  10  123.60    4.73   0
  -1  -2 -10  123.67    5.28   0
   2   2  10  146.93    4.91   0
  -2  -2 -10  146.74    5.11   0
   3   2  10   -6.09    2.42   0
  -3  -2 -10   27.15    2.41   0
   4   2  10   67.84    2.90   0
  -4  -2 -10   54.34    2.59   0
   5   2  10   55.52    3.09   0
  -5  -2 -10   52.39    2.77   0
   6   2  10  -17.95    1.73   0
  -6  -2 -10   11.75    2.36   0
 -11   3  10  125.26    4.91   0
  11  -3 -10  136.04    5.38   0
 -10   3  10  101.92    4.80   0
  10  -3 -10  101.54    4.58   0
  -9   3  10    0.62    2.10   0
   9  -3 -10    0.61    1.52   0
  -7   3  10    5.35    2.19   0
   7  -3 -10   -0.92    2.15   0
  -6   3  10   12.53    2.15   0
   6  -3 -10   12.85    2.43   0
  -5   3  10    8.52    2.28   0
   5  -3 -10    9.34    2.28   0
  -4   3  10  142.57    4.63   0
   4  -3 -10  143.23    4.55   0
  -3   3  10 1338.21   12.13   0
   3  -3 -10 1271.08   12.15   0
  -2   3  10  831.86   11.07   0
   2  -3 -10 1718.86   11.57   0
  -1   3  10   55.84    5.12   0
   1  -3 -10   55.72    5.31   0
   0   3  10   30.67    3.32   0
   0   3  10   31.31    3.43   0
   0  -3 -10   31.00    2.99   0
   1   3  10  128.28    5.50   0
  -1  -3 -10  129.00    5.90   0
   2   3  10   21.79    1.66   0
  -2  -3 -10   21.68    2.27   0
   3   3  10   10.89    1.61   0
  -3  -3 -10    0.07    2.09   0
   4   3  10    4.11    2.67   0
  -4  -3 -10    3.52    2.63   0
   5   3  10   71.81    4.58   0
  -5  -3 -10   72.25    4.64   0
 -10   4  10   29.58    2.66   0
  10  -4 -10   30.39    3.22   0
  -9   4  10   23.41    2.24   0
   9  -4 -10    1.14    1.94   0
  -8   4  10    9.84    1.74   0
   8  -4 -10   13.70    1.92   0
  -7   4  10  111.38    4.93   0
   7  -4 -10  110.94    4.55   0
  -6   4  10  265.90    3.80   0
   6  -4 -10  265.58    4.42   0
  -5   4  10   92.88    3.12   0
   5  -4 -10   26.96    2.57   0
  -4   4  10   24.41    1.69   0
   4  -4 -10   24.24    2.03   0
  -3   4  10  122.04    4.88   0
   3  -4 -10  122.14    5.44   0
  -2   4  10  218.49    5.07   0
  -2   4  10  217.99    4.78   0
  -1   4  10   23.38    1.51   0
  -1   4  10   16.86    2.33   0
   0   4  10   12.34    2.47   0
   0  -4 -10   12.19    2.48   0
   1   4  10  181.68    4.73   0
  -1  -4 -10  182.02    4.84   0
   2   4  10   72.55    4.11   0
  -2  -4 -10   73.06    4.26   0
   3   4  10   21.11    1.63   0
  -3  -4 -10   -9.58    2.41   0
   4   4  10    9.59    1.55   0
  -4  -4 -10   10.46    1.62   0
   5   4  10   16.06    1.58   0
  -5  -4 -10   15.59    1.92   0
 -10   5  10    6.14    2.36   0
  10  -5 -10    5.57    1.54   0
  -9   5  10    4.57    2.14   0
   9  -5 -10   -7.29    2.17   0
  -8   5  10    0.04    1.66   0
   8  -5 -10    0.03    2.32   0
  -7   5  10  -10.95    2.15   0
   7  -5 -10    5.07    2.49   0
  -6   5  10   -4.94    2.03   0
   6  -5 -10   17.32    2.17   0
  -5   5  10   10.29    2.22   0
   5  -5 -10   10.39    2.34   0
  -4   5  10   -5.39    1.68   0
   4  -5 -10    0.02    2.37   0
  -3   5  10   18.28    1.58   0
   3  -5 -10   18.24    2.20   0
  -2   5  10    0.15    1.53   0
   2  -5 -10    5.44    1.99   0
  -1   5  10   45.32    3.12   0
   1  -5 -10   39.17    3.23   0
   0   5  10   37.16    3.11   0
   0  -5 -10   31.90    3.01   0
   1   5  10   14.15    2.47   0
   1   5  10   13.64    2.42   0
   2   5  10    3.69    1.63   0
  -2  -5 -10   -7.36    2.17   0
   3   5  10    1.29    2.24   0
  -3  -5 -10    1.31    2.26   0
   4   5  10   37.52    2.83   0
  -4  -5 -10   38.16    3.39   0
 -10   6  10   17.15    2.18   0
  10  -6 -10   38.66    1.93   0
  -9   6  10   17.02    1.88   0
   9  -6 -10   16.86    2.38   0
  -8   6  10   45.28    4.38   0
   8  -6 -10   44.79    3.73   0
  -7   6  10   40.94    2.51   0
   7  -6 -10   40.84    2.71   0
  -6   6  10   -1.84    1.79   0
   6  -6 -10   10.67    1.51   0
  -5   6  10   14.26    2.37   0
   5  -6 -10    8.80    1.91   0
  -4   6  10   23.98    1.78   0
   4  -6 -10   23.90    2.09   0
  -3   6  10   -5.02    1.61   0
   3  -6 -10    3.42    2.03   0
  -2   6  10    0.67    2.18   0
  -2   6  10   20.45    1.66   0
   2  -6 -10  -19.80    1.56   0
  -1   6  10   53.92    3.68   0
   1  -6 -10   54.37    3.94   0
   0   6  10   23.47    2.34   0
   0  -6 -10   15.47    1.52   0
   1   6  10   31.14    2.73   0
   1   6  10   30.54    3.28   0
  -1  -6 -10   31.42    2.50   0
   2   6  10    3.76    8.61   0
  -2  -6 -10  -10.85    5.70   0
   3   6  10   -8.12    7.51   0
  -3  -6 -10   -2.23    8.60   0
   4   6  10  -10.67    7.48   0
  -4  -6 -10    5.64    2.20   0
  -9   7  10  -17.83    1.98   0
   9  -7 -10    0.63    2.49   0
  -8   7  10    7.08    1.88   0
  -8   7  10  -13.34    2.22   0
   8  -7 -10   -2.44    1.76   0
  -7   7  10   36.05    2.84   0
   7  -7 -10   35.91    3.45   0
  -6   7  10   46.70    3.49   0
   6  -7 -10   43.01    2.55   0
  -5   7  10   18.33    1.97   0
   5  -7 -10   17.72    2.14   0
  -4   7  10    4.21    2.40   0
  -4   7  10    4.49    2.21   0
   4  -7 -10    3.88    1.66   0
  -3   7  10   47.58    3.10   0
   3  -7 -10   48.36    3.33   0
  -2   7  10   38.52    3.43   0
   2  -7 -10   39.04    2.60   0
  -1   7  10  107.36    4.65   0
   1  -7 -10  107.20    4.54   0
   0   7  10   29.54    2.64   0
   0  -7 -10   30.40    2.82   0
   1   7  10   16.87    1.59   0
   1   7  10   22.59    2.36   0
  -1  -7 -10   19.48    2.00   0
   2   7  10    4.08    1.85   0
  -2  -7 -10    3.89    2.31   0
   3   7  10    0.05    1.80   0
  -3  -7 -10    0.07    1.66   0
  -8   8  10   15.93    2.08   0
   8  -8 -10   15.78    1.64   0
  -7   8  10    4.88    2.43   0
   7  -8 -10    5.22    2.17   0
  -6   8  10   93.84    4.16   0
   6  -8 -10   94.26    4.29   0
  -5   8  10   18.12    2.04   0
   5  -8 -10   18.14    2.36   0
  -4   8  10   -5.55    1.96   0
   4  -8 -10  -11.31    1.65   0
  -3   8  10    3.04    2.38   0
   3  -8 -10    2.64    1.54   0
  -2   8  10   -4.61    2.30   0
   2  -8 -10   -7.07    1.99   0
  -1   8  10    1.47    2.29   0
  -1   8  10    1.51    2.46   0
   1  -8 -10    1.48    1.88   0
   0   8  10    6.12    2.14   0
   0   8  10    6.01    2.45   0
   0  -8 -10    6.31    2.39   0
   1   8  10    6.86    2.29   0
   1   8  10  -10.58    5.49   0
  -1  -8 -10   21.78    2.19   0
   2   8  10   27.98    2.52   0
  -2  -8 -10   27.62    3.22   0
  -7   9  10   -7.19    2.52   0
  -7   9  10   26.96    2.54   0
  -6   9  10   43.07    2.67   0
   6  -9 -10   43.40    3.43   0
  -5   9  10   -2.94    1.52   0
   5  -9 -10    6.74    1.78   0
  -4   9  10   29.13    3.00   0
   4  -9 -10   34.59    2.78   0
  -3   9  10   62.72    3.35   0
  -3   9  10   63.48    3.37   0
  -2   9  10    2.54    3.24   0
   2  -9 -10    2.51    3.29   0
  -1   9  10   50.59    2.51   0
  -1   9  10   50.71    3.44   0
   1  -9 -10   51.11    3.49   0
   0   9  10   29.01    2.92   0
   0   9  10   29.03    2.92   0
   0  -9 -10   28.62    3.00   0
  -5  10  10   -2.79    9.67   0
   5 -10 -10    6.13    5.24   0
  -4  10  10   39.65    3.34   0
   4 -10 -10   39.57    3.49   0
  -3  10  10   56.77    4.02   0
   3 -10 -10   57.37    4.13   0
  -2  10  10   73.27    3.71   0
  -2  10  10   72.87    3.85   0
  -3  -9  11   24.11    2.18   0
  -2  -9  11   -9.79    1.81   0
  -1  -9  11    5.96    1.82   0
   0   9 -11    3.66    1.68   0
   1  -9  11    9.84    1.60   0
  -1   9 -11   -6.34    1.56   0
  -5  -8  11   54.17    2.74   0
  -5  -8  11   55.58    2.65   0
  -4  -8  11   36.57    3.39   0
  -4  -8  11   37.18    3.24   0
  -4  -8  11   37.12    2.91   0
  -3  -8  11   11.24    2.13   0
  -3  -8  11    4.47    2.46   0
  -2  -8  11   72.30    3.60   0
  -1  -8  11    6.38    1.83   0
   0  -8  11   47.83    2.97   0
   0   8 -11   -8.91    1.61   0
   1  -8  11    1.94    2.13   0
  -1   8 -11    3.31    1.72   0
   2  -8  11   13.99    1.88   0
  -2   8 -11   48.69    2.65   0
   3  -8  11   32.74    2.24   0
  -3   8 -11  -14.00    1.95   0
  -6  -7  11    6.29    1.80   0
  -6  -7  11    6.19    2.42   0
  -5  -7  11    6.83    1.98   0
  -5  -7  11    7.23    2.24   0
  -4  -7  11   19.50    2.06   0
  -4  -7  11   20.04    1.63   0
  -4  -7  11   19.59    1.66   0
  -3  -7  11   21.92    2.25   0
  -3  -7  11   11.52    1.88   0
  -2  -7  11    0.60    2.16   0
  -1  -7  11   87.32    4.08   0
   0  -7  11  148.73    5.35   0
   0   7 -11  148.56    5.46   0
   1  -7  11   31.35    2.33   0
  -1   7 -11   31.18    1.84   0
   2  -7  11   -3.94    1.56   0
  -2   7 -11    8.52    2.03   0
   3  -7  11   23.17    1.59   0
  -3   7 -11   22.74    2.33   0
   4  -7  11   60.17    4.02   0
  -4   7 -11   60.39    3.84   0
  -7  -6  11  -37.37    2.25   0
  -7  -6  11    1.02    2.04   0
  -6  -6  11   12.55    1.64   0
  -6  -6  11   -8.57    1.53   0
  -6  -6  11  -31.82    1.92   0
  -5  -6  11   50.76    3.50   0
  -5  -6  11   51.27    3.59   0
  -4  -6  11   40.93    3.42   0
  -4  -6  11   -3.03    3.42   0
  -3  -6  11   31.57    3.40   0
  -3  -6  11   26.87    2.80   0
  -2  -6  11    4.19    2.13   0
  -2  -6  11   16.64    2.21   0
  -1  -6  11    6.55    2.07   0
   0  -6  11   21.85    2.32   0
   1  -6  11   12.01    1.86   0
  -1   6 -11   11.87    1.71   0
   2  -6  11  106.49    5.43   0
  -2   6 -11  105.65    4.66   0
   3  -6  11   94.04    4.07   0
  -3   6 -11   93.81    3.92   0
   4  -6  11   13.61    2.41   0
  -4   6 -11   -1.24    2.42   0
  -8  -5  11   16.76    1.96   0
  -8  -5  11   -2.94    2.04   0
  -7  -5  11   21.73    2.09   0
  -7  -5  11    4.30    2.13   0
  -6  -5  11  314.62    5.68   0
  -6  -5  11  314.64    6.48   0
  -6  -5  11  314.86    6.49   0
  -5  -5  11  250.54    5.38   0
  -5  -5  11  251.11    4.63   0
  -4  -5  11    5.68    2.19   0
  -4  -5  11   21.70    2.11   0
  -3  -5  11   -9.87    2.36   0
  -3  -5  11  -19.68    1.52   0
  -2  -5  11   18.12    2.07   0
  -2  -5  11   17.64    2.09   0
  -1  -5  11    0.33    1.85   0
  -1  -5  11    0.29    1.72   0
   0  -5  11    5.99    1.85   0
   1  -5  11    2.09    2.18   0
   2  -5  11  234.69    4.63   0
   3  -5  11  176.23    5.10   0
  -3   5 -11  175.54    5.21   0
  -4   5 -11   36.03    2.90   0
  -4   5 -11   20.51    2.72   0
  -4   5 -11   22.02    2.55   0
  -5   5 -11    0.07    1.50   0
  -5   5 -11    5.74    1.58   0
  -9  -4  11    5.87    2.36   0
  -9  -4  11    6.42    1.62   0
  -8  -4  11  -20.92    1.64   0
  -8  -4  11   -6.94    2.35   0
  -8  -4  11  -13.04    2.34   0
  -7  -4  11   63.73    2.96   0
  -7  -4  11   63.53    3.00   0
  -6  -4  11  219.26    5.50   0
  -6  -4  11  219.09    5.90   0
  -5  -4  11  280.24    5.04   0
  -5  -4  11  279.91    4.94   0
  -4  -4  11    2.64    2.09   0
  -4  -4  11    3.42    1.51   0
  -3  -4  11   38.12    2.68   0
   3   4 -11   38.47    2.57   0
  -2  -4  11   81.40    4.20   0
   2   4 -11   81.13    3.67   0
  -1  -4  11   12.11    2.41   0
   1   4 -11   11.96    1.54   0
   0  -4  11   25.78    3.22   0
   0  -4  11   26.39    2.54   0
   0   4 -11   26.10    2.57   0
   1  -4  11    0.49    2.20   0
   1  -4  11    0.47    1.93   0
   2  -4  11    2.06    2.04   0
  -2   4 -11    1.88    2.34   0
   3  -4  11   10.48    1.58   0
  -3   4 -11   10.28    1.68   0
  -4   4 -11   25.79    1.53   0
  -4   4 -11   33.16    2.39   0
  -5   4 -11   43.32    1.62   0
  -5   4 -11   22.76    2.33   0
  -9  -3  11   14.30    1.76   0
  -9  -3  11   14.01    1.89   0
  -8  -3  11  -14.42    2.40   0
  -8  -3  11  -13.48    1.58   0
  -8  -3  11  -18.52    2.02   0
  -7  -3  11   -1.77    1.81   0
  -7  -3  11  -12.98    1.74   0
   7   3 -11    1.75    1.95   0
  -6  -3  11    6.92    1.53   0
  -6  -3  11    6.75    1.63   0
  -5  -3  11    3.29    2.48   0
   5   3 -11    2.65    1.50   0
  -4  -3  11   10.47    1.53   0
  -4  -3  11  -11.93    2.02   0
   4   3 -11   -1.93    2.24   0
  -3  -3  11   27.86    2.02   0
  -3  -3  11   27.73    1.59   0
   3   3 -11   27.76    2.18   0
  -2  -3  11  101.49    4.82   0
  -2  -3  11  100.97    5.25   0
   2   3 -11  100.94    5.37   0
  -1  -3  11  202.44    4.86   0
  -1  -3  11  202.49    5.23   0
   0  -3  11    2.87    1.81   0
   0  -3  11    2.67    1.92   0
   0   3 -11    2.93    2.44   0
   1  -3  11   -1.78    2.47   0
  -1   3 -11   -3.84    1.60   0
   2  -3  11    9.34    2.35   0
  -2   3 -11    2.65    1.94   0
   3  -3  11    0.62    2.40   0
   3  -3  11    0.60    1.87   0
   4  -3  11    3.97    1.95   0
  -4   3 -11   -9.67    1.86   0
  -5   3 -11   10.82    2.62   0
 -10  -2  11   28.19    3.23   0
 -10  -2  11   36.62    3.31   0
  -9  -2  11   59.86    3.19   0
  -9  -2  11   59.99    2.91   0
  -8  -2  11    0.90    2.59   0
  -8  -2  11    0.97    2.50   0
   8   2 -11    0.87    2.65   0
  -7  -2  11    1.09    1.81   0
  -7  -2  11    1.05    2.11   0
  -6  -2  11   31.40    3.35   0
   6   2 -11   31.44    3.07   0
  -5  -2  11   34.02    2.84   0
  -5  -2  11   33.75    3.16   0
  -4  -2  11   -2.16    2.03   0
   4   2 -11    3.38    1.64   0
  -3  -2  11  265.32    5.60   0
  -3  -2  11  264.97    5.90   0
   3   2 -11  264.99    6.26   0
  -2  -2  11 1383.63   12.25   0
  -2  -2  11 1383.73   12.08   0
  -1  -2  11  509.26    6.16   0
  -1  -2  11  517.26    6.05   0
   0  -2  11   29.39    2.21   0
   0   2 -11   28.85    2.33   0
   1  -2  11   47.95    3.23   0
   1  -2  11   48.35    3.25   0
  -1   2 -11   48.36    2.69   0
   2  -2  11  126.48    4.53   0
  -2   2 -11  125.76    4.57   0
   3  -2  11    8.46    2.00   0
  -3   2 -11    7.82    2.12   0
   4  -2  11   11.07    2.07   0
  -4   2 -11    7.59    1.52   0
   5  -2  11   48.85    3.19   0
  -5   2 -11   49.07    3.47   0
 -10  -1  11   23.93    1.96   0
  -9  -1  11    6.92    1.67   0
   9   1 -11    7.02    2.15   0
  -8  -1  11   38.15    3.09   0
   8   1 -11   43.42    2.97   0
  -7  -1  11   73.94    4.49   0
   7   1 -11   87.75    4.16   0
  -6  -1  11  212.24    5.06   0
   6   1 -11  161.64    4.62   0
  -5  -1  11  -25.78    1.97   0
  -5  -1  11  -47.25    2.14   0
  -4  -1  11   -2.63    2.05   0
   4   1 -11    0.03    2.13   0
  -3  -1  11   64.59    4.16   0
   3   1 -11   64.69    3.55   0
  -2  -1  11    2.37    2.19   0
  -2  -1  11    2.33    2.10   0
   2   1 -11    2.34    2.11   0
  -1  -1  11    5.76    2.15   0
  -1  -1  11    6.46    1.91   0
   0  -1  11   83.41    3.76   0
   0   1 -11   82.62    4.37   0
   1  -1  11  400.72    6.60   0
  -1   1 -11  400.83    7.46   0
   2  -1  11  301.28    5.62   0
  -2   1 -11  300.61    6.23   0
   3  -1  11    4.02    2.07   0
  -3   1 -11   -7.99    1.73   0
   4  -1  11   -6.89    1.73   0
  -4   1 -11   15.32    1.94   0
   5  -1  11   10.68    1.91   0
  -5   1 -11   11.10    1.66   0
 -10   0  11    0.28    2.31   0
  10   0 -11    0.26    1.78   0
   9   0 -11   -3.18    1.80   0
  -8   0  11   14.13    2.09   0
   8   0 -11  -26.63    1.88   0
  -7   0  11    0.24    1.70   0
  -6   0  11   -8.17    1.72   0
   6   0 -11  -13.14    2.21   0
  -5   0  11   10.02    2.01   0
   5   0 -11   32.21    2.31   0
  -4   0  11  -15.36    2.07   0
   4   0 -11    1.91    2.23   0
  -3   0  11   -4.66    1.95   0
   3   0 -11   -3.79    1.99   0
  -2   0  11    1.98    2.25   0
   2   0 -11    2.36    1.90   0
  -1   0  11  -10.47    1.92   0
   1   0 -11   18.48    1.90   0
   0   0  11   -0.55    2.02   0
   0   0 -11  -15.67    1.84   0
   1   0  11    5.70    2.42   0
   1   0  11   -7.48    2.04   0
  -1   0 -11   17.37    1.56   0
   2   0  11    3.91    1.72   0
  -2   0 -11   -0.80    2.44   0
   3   0  11   -9.05    2.04   0
  -3   0 -11   -1.51    2.26   0
   4   0  11   -6.01    2.21   0
  -4   0 -11    9.30    1.57   0
   5   0  11    0.63    1.63   0
  -5   0 -11    0.61    2.04   0
 -10   1  11    4.27    2.05   0
  10  -1 -11  -11.31    2.46   0
  -9   1  11    1.59    2.21   0
   9  -1 -11    1.64    1.90   0
  -8   1  11   67.52    2.77   0
   8  -1 -11   67.67    3.24   0
  -7   1  11  125.21    4.73   0
   7  -1 -11  124.51    4.92   0
  -6   1  11  126.08    4.56   0
   6  -1 -11  126.09    4.53   0
  -5   1  11   -6.98    2.19   0
   5  -1 -11    4.39    1.57   0
  -4   1  11    1.49    2.26   0
   4  -1 -11    1.45    2.43   0
  -3   1  11   68.67    4.33   0
   3  -1 -11   69.10    4.04   0
  -2   1  11    0.17    2.41   0
   2  -1 -11    0.19    2.22   0
  -1   1  11   -7.09   11.35   0
   1  -1 -11   -1.58   11.58   0
   0   1  11  171.33   11.58   0
   0  -1 -11  164.98    9.10   0
   1   1  11  487.31   12.02   0
  -1  -1 -11  420.93   10.58   0
   2   1  11  181.93   11.51   0
  -2  -1 -11  216.18   10.09   0
   3   1  11    9.53    9.28   0
  -3  -1 -11   -7.38    9.47   0
   4   1  11   17.61    9.23   0
  -4  -1 -11   22.82    9.54   0
   5   1  11   22.23    1.78   0
  -5  -1 -11   22.06    2.46   0
 -10   2  11  128.61    5.25   0
  10  -2 -11  129.04    4.52   0
  -9   2  11   23.91    1.78   0
   9  -2 -11   14.97    1.58   0
  -8   2  11    8.16    2.30   0
   8  -2 -11    8.21    1.99   0
  -7   2  11   28.31    2.19   0
   7  -2 -11   -5.09    2.37   0
  -6   2  11  157.56    5.40   0
   6  -2 -11  135.19    4.55   0
  -5   2  11    7.18    2.01   0
   5  -2 -11   11.84    2.17   0
  -4   2  11   76.54    4.20   0
   4  -2 -11   76.90    3.92   0
  -3   2  11  802.32    6.40   0
   3  -2 -11  938.32    5.84   0
  -2   2  11 1166.35   11.06   0
   2  -2 -11 1166.02   11.15   0
  -1   2  11  168.21    5.88   0
   1  -2 -11  168.28    5.71   0
   0   2  11   15.77    2.22   0
   0   2  11   16.46    1.73   0
   0  -2 -11   15.91    2.22   0
   1   2  11   96.13    4.35   0
  -1  -2 -11   96.17    3.94   0
   2   2  11   94.02    4.01   0
  -2  -2 -11   93.64    3.88   0
   3   2  11   34.47    3.20   0
  -3  -2 -11   33.92    3.00   0
   4   2  11    2.18    1.73   0
  -4  -2 -11    1.74    2.17   0
   5   2  11  107.29    5.02   0
  -5  -2 -11  106.99    4.65   0
 -10   3  11   46.12    3.48   0
  10  -3 -11   51.64    2.91   0
  -9   3  11   57.39    3.44   0
   9  -3 -11    8.51    1.86   0
  -8   3  11  -17.13    2.48   0
   8  -3 -11    9.63    2.41   0
  -7   3  11    3.14    1.70   0
  -6   3  11   38.21    2.05   0
   6  -3 -11   20.19    1.63   0
  -5   3  11   -4.74    2.41   0
   5  -3 -11   16.29    1.62   0
  -4   3  11   22.33    2.76   0
   4  -3 -11   21.93    3.25   0
  -3   3  11   77.39    4.23   0
   3  -3 -11   76.77    3.68   0
  -2   3  11  505.29    5.66   0
   2  -3 -11  505.19    6.31   0
  -1   3  11    4.59    2.31   0
  -1   3  11    0.18    2.28   0
   0   3  11    5.90    1.78   0
   0   3  11  -13.16    1.50   0
   0   3  11   -4.12    1.56   0
   0  -3 -11    4.24    2.26   0
   1   3  11    0.06    2.10   0
  -1  -3 -11    0.05    2.43   0
   2   3  11    5.78    9.23   0
  -2  -3 -11   -8.18    8.35   0
   3   3  11   13.47    9.65   0
  -3  -3 -11    8.23    9.66   0
   4   3  11   21.17    6.38   0
  -4  -3 -11   -9.82    9.74   0
 -10   4  11   -7.87    1.98   0
  10  -4 -11    7.93    1.64   0
  -9   4  11    5.31    1.97   0
   9  -4 -11  -12.95    2.37   0
  -8   4  11   53.84    3.49   0
   8  -4 -11   54.02    2.70   0
  -7   4  11  273.44    5.55   0
   7  -4 -11  335.96    5.76   0
  -6   4  11  371.60    6.12   0
   6  -4 -11  372.01    6.44   0
   5  -4 -11    0.92    1.82   0
  -4   4  11   76.39    4.28   0
   4  -4 -11   75.65    3.83   0
  -3   4  11   64.46    4.19   0
   3  -4 -11   64.72    4.37   0
  -2   4  11   14.97   13.54   0
  -2   4  11   16.99    9.74   0
  -1   4  11   52.67    9.46   0
   1  -4 -11   47.61    8.95   0
   0   4  11  -18.56    9.67   0
   0  -4 -11  -10.41    5.75   0
   1   4  11   11.39    9.38   0
  -1  -4 -11   12.61    5.83   0
   2   4  11   38.66    8.88   0
  -2  -4 -11   11.01    8.81   0
   3   4  11   27.66    8.13   0
  -3  -4 -11   42.94    6.76   0
   4   4  11   38.55    8.36   0
  -4  -4 -11   14.86    7.14   0
 -10   5  11    9.45    2.34   0
  10  -5 -11  -16.11    2.29   0
  -9   5  11    1.28    2.22   0
   9  -5 -11    1.31    1.94   0
  -8   5  11   85.69    3.61   0
   8  -5 -11   86.38    4.10   0
  -7   5  11  381.15    5.19   0
   7  -5 -11  168.03    4.72   0
  -6   5  11  148.38    4.66   0
   6  -5 -11  148.45    4.54   0
  -5   5  11   17.78    1.51   0
   5  -5 -11   17.79    2.25   0
  -4   5  11   39.26    2.74   0
   4  -5 -11   38.89    2.63   0
  -3   5  11   31.10    3.29   0
   3  -5 -11   30.71    3.05   0
  -2   5  11    1.07    2.12   0
   2  -5 -11    1.06    1.62   0
  -1   5  11    9.20    2.27   0
  -1   5  11    9.44    1.89   0
   0   5  11   20.09    1.97   0
   0  -5 -11   26.10    1.61   0
   1   5  11  304.11    5.88   0
  -1  -5 -11  304.30    6.16   0
   2   5  11  149.35    4.51   0
  -2  -5 -11  148.56    5.27   0
   3   5  11   21.75    5.92   0
  -3  -5 -11    9.17    8.94   0
  -9   6  11  -13.29    1.62   0
   9  -6 -11   24.39    1.66   0
  -8   6  11   24.53    2.11   0
   8  -6 -11  -16.94    1.93   0
  -7   6  11   61.15    4.03   0
   7  -6 -11   60.99    3.67   0
  -6   6  11  107.60    4.81   0
   6  -6 -11  108.13    4.64   0
  -5   6  11   24.31    2.42   0
  -5   6  11   23.64    1.67   0
  -4   6  11   17.31    9.41   0
   4  -6 -11   29.80    6.41   0
  -3   6  11   15.00    2.31   0
   3  -6 -11   14.77    2.40   0
  -2   6  11   17.10    1.75   0
  -2   6  11   30.12    1.61   0
  -1   6  11    0.36    2.24   0
   1  -6 -11    0.41    1.69   0
   0   6  11   78.36    3.96   0
   0  -6 -11   77.62    4.42   0
   1   6  11  197.55    4.86   0
  -1  -6 -11  198.23    5.20   0
   2   6  11   60.66    5.17   0
  -2  -6 -11   60.59    4.62   0
   3   6  11   16.58    2.28   0
  -3  -6 -11   16.92    1.54   0
  -8   7  11   17.32    1.70   0
   8  -7 -11   17.04    1.73   0
  -7   7  11    2.57    2.17   0
   7  -7 -11   15.14    1.70   0
  -6   7  11   48.28    3.22   0
   6  -7 -11   37.61    2.58   0
  -5   7  11   35.95    3.12   0
   5  -7 -11   36.35    2.65   0
  -4   7  11    0.48    1.96   0
  -4   7  11    0.45    1.54   0
  -3   7  11  128.12    4.81   0
   3  -7 -11  128.34    5.05   0
  -2   7  11  249.80    5.93   0
   2  -7 -11  255.27    6.35   0
  -1   7  11   25.44    1.76   0
   1  -7 -11   28.91    2.16   0
   0   7  11    2.81    1.79   0
   0   7  11    2.96    2.25   0
   0  -7 -11    3.46    1.70   0
   1   7  11   19.25    1.97   0
   1   7  11   18.58    1.95   0
   2   7  11  124.74    8.36   0
  -2  -7 -11   97.79    7.80   0
  -7   8  11   99.00    4.64   0
  -7   8  11   99.12    4.84   0
  -6   8  11   24.69    1.83   0
   6  -8 -11   24.83    2.12   0
  -5   8  11   44.37    3.40   0
   5  -8 -11   44.13    2.85   0
  -4   8  11   58.93    4.35   0
   4  -8 -11   59.01    3.50   0
  -3   8  11    1.61    1.66   0
  -3   8  11    1.85    2.11   0
  -2   8  11    1.73    1.53   0
  -2   8  11    6.69    1.90   0
   2  -8 -11   -5.33    2.07   0
  -1   8  11    0.37    1.59   0
  -1   8  11    0.35    2.30   0
   0   8  11   21.98    2.22   0
   0  -8 -11   21.78    2.00   0
  -6   9  11   41.61    3.39   0
  -6   9  11   42.47    3.17   0
  -5   9  11   12.99    1.87   0
   5  -9 -11   13.28    1.67   0
  -4   9  11    5.27    2.03   0
  -4   9  11    5.18    1.72   0
  -3   9  11   11.78    2.36   0
   3  -9 -11   12.13    1.87   0
  -2   9  11    5.17    2.00   0
   2  -9 -11    5.09    1.84   0
  -4  -8  12   19.04   10.97   0
  -4  -8  12   10.80   11.45   0
  -3  -8  12    7.85    9.34   0
  -2  -8  12   52.18   10.50   0
  -1  -8  12  218.56    6.70   0
   0  -8  12  172.15   10.97   0
   1  -8  12   27.58   10.85   0
  -1   8 -12   27.06   10.97   0
  -5  -7  12    6.68    2.12   0
  -5  -7  12    7.17    2.24   0
  -4  -7  12   -0.69    1.87   0
  -4  -7  12   -2.20    1.57   0
  -3  -7  12   49.37    3.66   0
  -3  -7  12   55.75    3.92   0
  -2  -7  12  221.79   10.65   0
  -1  -7  12   70.49    4.95   0
   0  -7  12   29.63    2.82   0
   1  -7  12   28.92    2.55   0
   2  -7  12    5.72    1.72   0
  -2   7 -12    5.59    2.38   0
  -7  -6  12    2.89    1.76   0
  -7  -6  12   -8.21    2.06   0
  -7  -6  12   -9.69    2.45   0
  -6  -6  12    8.15    1.94   0
  -6  -6  12    8.45    1.63   0
  -5  -6  12    5.86    2.34   0
  -5  -6  12    6.23    1.96   0
  -4  -6  12    7.69    1.72   0
  -4  -6  12   16.19    1.77   0
  -3  -6  12    1.76    1.51   0
  -3  -6  12    2.49    2.34   0
  -2  -6  12   89.43    3.86   0
  -2  -6  12   88.67    3.98   0
  -2  -6  12   88.55    4.34   0
  -1  -6  12  222.31    6.44   0
   0  -6  12  156.81    5.71   0
   1  -6  12  -20.19    2.49   0
   2  -6  12   54.41    3.66   0
   3  -6  12   59.99    3.44   0
  -7  -5  12  -21.27    2.11   0
  -7  -5  12   -7.39    1.67   0
  -6  -5  12   78.11    3.82   0
  -6  -5  12   78.30    3.78   0
  -5  -5  12  354.03    7.36   0
  -5  -5  12  353.55    7.45   0
  -4  -5  12  174.17    4.79   0
  -4  -5  12  173.73    4.95   0
  -3  -5  12   12.67    2.42   0
  -3  -5  12   12.97    1.67   0
  -2  -5  12   24.98    1.50   0
  -2  -5  12   24.74    2.47   0
  -1  -5  12   82.33    4.39   0
  -1  -5  12   82.23    4.27   0
   0  -5  12   11.13    1.85   0
   1  -5  12    8.02    2.10   0
   2  -5  12  120.80    5.58   0
  -4   5 -12    1.76    1.53   0
  -4   5 -12   24.19    1.81   0
  -8  -4  12   12.60    2.22   0
  -8  -4  12   13.16    1.94   0
  -8  -4  12   12.60    2.45   0
  -7  -4  12  152.89    5.29   0
  -7  -4  12   39.34    1.95   0
  -6  -4  12  133.37    4.72   0
  -6  -4  12  132.89    4.93   0
  -5  -4  12    0.13    2.19   0
  -5  -4  12    0.14    1.66   0
   5   4 -12    0.15    2.07   0
  -4  -4  12   88.45    2.24   0
  -4  -4  12   87.98    2.39   0
  -3  -4  12   60.26    1.65   0
  -3  -4  12   43.31    2.24   0
   3   4 -12   26.47    2.14   0
  -2  -4  12   24.58    1.61   0
  -2  -4  12   25.04    1.72   0
   2   4 -12   25.19    1.56   0
  -1  -4  12    1.16    2.42   0
  -1  -4  12    1.22    1.83   0
   1   4 -12    1.26    2.22   0
   0  -4  12    4.54    1.69   0
   0  -4  12    4.54    2.10   0
   0   4 -12    4.69    2.30   0
   1  -4  12   18.71    2.25   0
   1  -4  12   22.63    2.06   0
  -1   4 -12   21.88    2.14   0
   2  -4  12  173.19    5.39   0
  -2   4 -12  250.98    4.55   0
   3  -4  12   -0.19    1.99   0
   3  -4  12    2.60    1.56   0
  -3   4 -12   11.77    1.59   0
  -4   4 -12   14.31    2.36   0
  -4   4 -12   10.41    2.46   0
  -9  -3  12  -17.48    2.37   0
  -9  -3  12   -6.89    2.35   0
  -8  -3  12  -17.22    2.27   0
  -8  -3  12   31.84    1.81   0
  -7  -3  12    9.29    1.90   0
   7   3 -12    9.45    2.05   0
  -6  -3  12   43.18    3.24   0
   6   3 -12   42.66    2.86   0
  -5  -3  12    1.99    1.88   0
   5   3 -12    2.03    2.38   0
  -4  -3  12    0.01    1.54   0
   4   3 -12    0.02    2.36   0
  -3  -3  12   96.53    4.51   0
  -3  -3  12   97.46    4.79   0
  -2  -3  12  278.85    4.79   0
  -2  -3  12  279.27    5.11   0
  -1  -3  12   22.87    2.40   0
  -1  -3  12   22.52    1.67   0
   1   3 -12   22.76    2.11   0
   0  -3  12   20.48    2.30   0
   0   3 -12   20.14    1.83   0
   1  -3  12    6.40    1.61   0
  -1   3 -12    6.02    1.51   0
   2  -3  12  -11.64    1.93   0
   2  -3  12   -1.08    2.03   0
  -2   3 -12    6.18    1.75   0
   3  -3  12    4.97    1.73   0
  -3   3 -12   26.70    2.07   0
   4  -3  12   10.41    1.72   0
  -4   3 -12   -4.98    1.74   0
  -9  -2  12  -54.19   20.56   0
  -8  -2  12   15.39    1.62   0
   8   2 -12   15.08    1.57   0
  -7  -2  12   -5.56    2.13   0
   7   2 -12    3.27    1.72   0
  -6  -2  12    1.79    1.77   0
   6   2 -12    1.82    2.10   0
  -5  -2  12   -4.62    2.15   0
  -5  -2  12  -16.79    2.38   0
   5   2 -12    6.20    1.83   0
  -4  -2  12   90.31    3.91   0
   4   2 -12   93.37    4.24   0
  -3  -2  12   30.58    2.24   0
  -3  -2  12   25.22    1.96   0
   3   2 -12   15.46    1.82   0
  -2  -2  12   93.59    3.80   0
  -2  -2  12   93.51    3.93   0
  -1  -2  12    2.82    2.37   0
   1   2 -12    2.67    1.78   0
   0  -2  12   21.75    1.76   0
   0   2 -12    6.41    2.41   0
   1  -2  12   11.97    2.13   0
   1  -2  12   -2.69    1.63   0
  -1   2 -12    3.06    1.89   0
   2  -2  12   -4.14    2.46   0
   2  -2  12   -4.49    1.87   0
   3  -2  12    0.82    1.78   0
  -3   2 -12    0.81    2.41   0
   4  -2  12    4.86    2.02   0
  -4   2 -12   12.18    2.08   0
  -9  -1  12   -2.08    2.05   0
   9   1 -12   12.70    2.01   0
  -8  -1  12   17.07    2.18   0
   8   1 -12   17.47    2.30   0
  -7  -1  12   74.58    4.08   0
   7   1 -12   75.11    3.86   0
  -6  -1  12   27.09    3.33   0
  -6  -1  12   35.53    3.35   0
   6   1 -12   34.08    3.26   0
  -5  -1  12    4.53    1.68   0
  -5  -1  12    5.31    2.11   0
  -4  -1  12    4.37    1.59   0
  -4  -1  12    4.06    1.96   0
   4   1 -12    3.98    2.37   0
  -3  -1  12   22.47    1.97   0
   3   1 -12   22.04    2.18   0
  -2  -1  12    8.82    1.54   0
   2   1 -12    8.98    2.13   0
  -1  -1  12   -3.98    1.81   0
   1   1 -12   21.83    1.56   0
   0  -1  12    6.37    1.93   0
   0   1 -12    5.60    1.80   0
   1  -1  12   -7.10   13.24   0
   1  -1  12   10.20    2.45   0
  -1   1 -12    0.65    9.46   0
   2  -1  12  156.18   10.98   0
  -2   1 -12  167.64    8.62   0
   3  -1  12   32.21   10.41   0
  -3   1 -12   -4.19    8.07   0
   4  -1  12   18.69    9.29   0
  -4   1 -12   -5.36    8.66   0
 -10   0  12  -11.44    2.18   0
  10   0 -12    0.67    2.06   0
  -9   0  12   10.53    2.27   0
   9   0 -12   13.57    2.42   0
  -8   0  12   32.09    2.47   0
   8   0 -12   20.42    2.10   0
  -7   0  12   97.51    4.36   0
   7   0 -12   97.52    4.44   0
  -6   0  12  115.18    4.83   0
   6   0 -12  115.07    5.09   0
  -5   0  12    0.94    1.59   0
   5   0 -12    0.89    1.65   0
  -4   0  12    0.53    2.09   0
  -4   0  12    0.47    1.54   0
  -3   0  12   20.53    1.55   0
   3   0 -12   21.31    1.80   0
  -2   0  12   78.40    3.81   0
   2   0 -12   77.52    3.77   0
  -1   0  12    0.17    2.39   0
   1   0 -12    0.19    2.32   0
   0   0  12   30.92    3.15   0
   0   0  12   31.07    3.05   0
   0   0 -12   31.44    2.94   0
   1   0  12  249.87    4.21   0
  -1   0 -12  250.34    4.16   0
   2   0  12  166.62    5.25   0
  -2   0 -12  167.44    4.71   0
   3   0  12   47.43    3.06   0
  -3   0 -12   46.57    3.00   0
   4   0  12    1.84    2.45   0
  -4   0 -12    1.83    1.65   0
 -10   1  12    6.66    3.09   0
  10  -1 -12  -22.71    3.42   0
  -9   1  12   -3.67    3.05   0
   9  -1 -12  -23.04    2.60   0
  -8   1  12   58.02    3.46   0
   8  -1 -12   57.70    3.46   0
  -7   1  12   26.24    2.12   0
   7  -1 -12   20.71    1.98   0
  -6   1  12   55.18    2.65   0
   6  -1 -12   54.67    3.18   0
  -5   1  12   14.68    1.59   0
   5  -1 -12   15.24    2.32   0
  -4   1  12   16.70    2.00   0
   4  -1 -12   17.02    1.70   0
  -3   1  12   17.32    2.00   0
   3  -1 -12    8.11    2.34   0
  -2   1  12    4.69    2.46   0
  -2   1  12    5.90    2.18   0
  -1   1  12    9.92    1.94   0
  -1   1  12   -2.61    1.99   0
   1  -1 -12   -0.28    1.51   0
   0   1  12    1.95    2.08   0
   0  -1 -12    2.20    2.42   0
   1   1  12   21.98    2.47   0
  -1  -1 -12   21.94    2.43   0
   2   1  12  152.97    4.67   0
  -2  -1 -12  120.54    4.66   0
   3   1  12  -23.46    2.31   0
  -3  -1 -12    0.29    1.59   0
   4   1  12   -9.32    1.78   0
  -4  -1 -12    3.78    2.37   0
 -10   2  12   56.53    3.25   0
  10  -2 -12   47.22    2.59   0
  -9   2  12   43.87    3.09   0
   9  -2 -12   43.97    2.74   0
  -8   2  12   37.30    2.72   0
   8  -2 -12   36.81    3.34   0
  -7   2  12    6.17    1.89   0
  -6   2  12    7.50    2.39   0
   6  -2 -12    8.27    1.69   0
  -5   2  12   49.67    3.58   0
   5  -2 -12   49.75    4.45   0
  -4   2  12   38.76    2.76   0
   4  -2 -12   38.99    2.68   0
  -3   2  12   87.21    4.01   0
   3  -2 -12   87.48    3.53   0
  -2   2  12   55.25    4.44   0
   2  -2 -12   86.27    4.34   0
  -1   2  12    1.74    1.57   0
  -1   2  12    1.73    1.67   0
   1  -2 -12    1.73    1.70   0
   0   2  12    4.11    1.81   0
   0   2  12    3.50    2.11   0
   0  -2 -12    3.52    1.98   0
   1   2  12    0.59    7.24   0
  -1  -2 -12   15.55    8.43   0
   2   2  12   15.78    9.47   0
  -2  -2 -12    0.47    8.73   0
   3   2  12   11.83    9.62   0
  -3  -2 -12  -23.28    9.32   0
   4   2  12   -0.04    8.64   0
  -4  -2 -12   35.48    8.64   0
 -10   3  12  -11.88    8.61   0
  10  -3 -12  -13.39    8.92   0
  -9   3  12    9.17    2.38   0
   9  -3 -12    8.51    2.33   0
  -8   3  12    1.52    1.87   0
   8  -3 -12    1.51    1.50   0
  -7   3  12   22.92    2.70   0
   7  -3 -12   74.50    3.19   0
  -6   3  12   -5.28    2.39   0
   6  -3 -12   23.88    1.74   0
  -5   3  12   -4.53    1.82   0
   5  -3 -12   17.38    1.64   0
  -4   3  12   67.98    4.27   0
   4  -3 -12   68.16    4.27   0
  -3   3  12  316.26    5.18   0
   3  -3 -12  315.93    5.07   0
  -2   3  12  131.57   10.27   0
   2  -3 -12   59.77    8.84   0
  -1   3  12   22.44    2.01   0
  -1   3  12   22.92    7.01   0
  -1   3  12   21.59   13.20   0
   0   3  12    5.30    2.31   0
   0   3  12    5.21    2.44   0
   0  -3 -12    5.02    2.17   0
   1   3  12    1.71    2.31   0
  -1  -3 -12    1.66    1.68   0
   2   3  12    4.70    1.70   0
  -2  -3 -12    5.11    2.46   0
   3   3  12    1.42    1.98   0
  -3  -3 -12    1.44    2.29   0
  -9   4  12   23.90    1.52   0
   9  -4 -12   23.94    1.91   0
  -8   4  12   54.98    2.51   0
   8  -4 -12   53.33    3.43   0
  -7   4  12  116.94    4.65   0
   7  -4 -12  116.50    5.49   0
  -6   4  12    7.96    1.61   0
   6  -4 -12    7.57    1.64   0
  -5   4  12  133.14    5.45   0
   5  -4 -12  134.52    5.51   0
  -4   4  12   38.10    3.37   0
   4  -4 -12   37.71    3.28   0
  -3   4  12   67.71    2.85   0
   3  -4 -12   67.76    3.24   0
  -2   4  12   10.24    1.55   0
   2  -4 -12    9.89    1.89   0
  -1   4  12    3.58    2.40   0
   1  -4 -12    3.51    2.30   0
   0   4  12   22.43    2.06   0
   0   4  12   22.02    1.89   0
   0  -4 -12   21.54    1.97   0
   1   4  12  117.26    5.48   0
  -1  -4 -12  116.50    5.36   0
   2   4  12  -22.93    9.10   0
  -2  -4 -12   39.53    8.48   0
   3   4  12    7.21    6.42   0
  -3  -4 -12    0.15    8.64   0
  -9   5  12    1.36    2.14   0
   9  -5 -12    1.41    1.65   0
  -8   5  12    0.46    1.69   0
   8  -5 -12    0.47    2.14   0
  -7   5  12  390.99    5.35   0
   7  -5 -12  390.95    5.21   0
  -6   5  12  691.73    6.73   0
   6  -5 -12  692.12    6.57   0
  -5   5  12   68.53    3.48   0
   5  -5 -12   69.48    3.19   0
  -4   5  12   34.27    3.16   0
   4  -5 -12   46.24    3.37   0
  -3   5  12   51.48    3.69   0
   3  -5 -12   87.41    3.93   0
  -2   5  12   20.47    1.69   0
  -2   5  12   27.68    1.90   0
   2  -5 -12   15.98    6.18   0
  -1   5  12    0.28    2.39   0
   1  -5 -12    0.31    1.97   0
   0   5  12   15.43    1.74   0
   0  -5 -12   14.72    1.94   0
   1   5  12  351.78    6.12   0
  -1  -5 -12  351.57    5.53   0
   2   5  12  142.16    4.56   0
  -2  -5 -12  142.43    5.45   0
  -8   6  12   29.82    1.92   0
   8  -6 -12   29.79    2.17   0
  -7   6  12   16.13    1.87   0
   7  -6 -12   22.23    2.18   0
  -6   6  12    3.90    2.41   0
  -6   6  12    4.18    2.45   0
  -5   6  12   12.13    9.48   0
   5  -6 -12    4.43    8.65   0
  -4   6  12   23.29    2.06   0
   4  -6 -12   22.54    2.35   0
  -3   6  12  393.73    6.44   0
   3  -6 -12  394.13    6.14   0
  -2   6  12  258.31    6.47   0
   2  -6 -12  257.83    5.89   0
  -1   6  12   16.23    1.92   0
  -1   6  12   11.29    1.62   0
   0   6  12   42.11    4.36   0
   0  -6 -12   40.29    3.94   0
   1   6  12   60.65    4.16   0
  -1  -6 -12   60.72    4.18   0
  -7   7  12    2.58    1.84   0
  -7   7  12    3.20    2.32   0
   7  -7 -12    2.94    2.44   0
  -6   7  12    0.20    1.96   0
   6  -7 -12    0.22    1.85   0
  -5   7  12   51.75    4.03   0
   5  -7 -12   52.01    3.56   0
  -4   7  12  245.56    6.86   0
   4  -7 -12  245.50    6.68   0
  -3   7  12  103.18    5.48   0
   3  -7 -12  103.09    5.41   0
  -2   7  12   12.82    1.53   0
  -2   7  12   12.61    1.52   0
   2  -7 -12   13.24    1.76   0
  -1   7  12   39.41   11.90   0
   1  -7 -12   29.38    4.51   0
   0   7  12   20.57    2.49   0
   0   7  12   20.29    2.11   0
  -6   8  12   14.81    2.45   0
   6  -8 -12   21.09    1.85   0
  -5   8  12    0.34    2.36   0
  -5   8  12    0.27    1.84   0
   5  -8 -12    0.33    2.24   0
  -4   8  12   71.53    4.16   0
   4  -8 -12   72.30    3.90   0
  -3   8  12  420.90    9.46   0
   3  -8 -12  395.84    6.78   0
  -2   8  12  212.82    8.24   0
   2  -8 -12  208.38    6.57   0
  -1   8  12   -1.34   11.37   0
  -1   8  12    4.01    7.13   0
   1  -8 -12    4.50    5.33   0
  -4  -7  13   17.47    2.17   0
  -4  -7  13    3.06    2.02   0
  -3  -7  13   19.04    2.44   0
  -2  -7  13  208.36    5.74   0
  -1  -7  13  481.43    6.55   0
   0  -7  13  230.96    6.73   0
  -5  -6  13   43.54    2.97   0
  -5  -6  13   43.93    3.10   0
  -4  -6  13   29.73    2.57   0
  -4  -6  13   29.53    2.91   0
  -4  -6  13   30.08    3.10   0
  -3  -6  13    5.43    1.94   0
  -3  -6  13    4.99    2.40   0
  -3  -6  13   20.90    9.67   0
  -2  -6  13    1.53    2.10   0
  -1  -6  13  116.06    4.68   0
   0  -6  13   99.66    4.89   0
   1  -6  13   35.34    2.50   0
  -7  -5  13   41.96    3.15   0
  -7  -5  13   31.07    2.66   0
  -6  -5  13    9.60    2.09   0
  -6  -5  13    9.91    1.69   0
  -5  -5  13   87.57    3.90   0
  -5  -5  13   88.26    3.84   0
  -4  -5  13   88.76    4.94   0
  -4  -5  13   89.18    4.66   0
  -3  -5  13    3.38    2.19   0
  -3  -5  13    3.09    1.62   0
  -2  -5  13   53.24    3.68   0
  -2  -5  13   53.22    3.86   0
  -1  -5  13   12.14    1.89   0
  -1  -5  13   25.78    1.77   0
   0  -5  13    0.18    1.89   0
   1  -5  13   71.51    3.44   0
  -7  -4  13    3.46    2.30   0
  -7  -4  13    3.22    1.70   0
  -6  -4  13   80.80    3.66   0
  -6  -4  13   81.18    4.37   0
  -5  -4  13  272.02    5.19   0
  -5  -4  13  272.01    4.79   0
  -4  -4  13  291.59    5.43   0
  -4  -4  13  292.09    4.63   0
   4   4 -13  291.60    5.06   0
  -3  -4  13   51.29    3.49   0
  -3  -4  13   50.86    3.35   0
   3   4 -13   51.43    3.01   0
  -2  -4  13   33.70    3.03   0
   2   4 -13   33.51    2.93   0
  -1  -4  13   14.24    2.22   0
   1   4 -13   13.42    1.95   0
   0  -4  13    0.53    1.60   0
   0  -4  13    2.67    1.65   0
   0   4 -13    6.44    1.58   0
   1  -4  13    4.71    2.25   0
  -1   4 -13    5.09    1.60   0
   2  -4  13   32.41    2.85   0
  -2   4 -13   31.93    2.78   0
   3  -4  13  109.60    4.65   0
  -3   4 -13  110.45    5.26   0
  -8  -3  13    4.99    1.96   0
  -8  -3  13    5.12    2.01   0
  -7  -3  13  -11.48    2.31   0
  -7  -3  13  -11.63    1.53   0
   7   3 -13   -0.64    2.02   0
  -6  -3  13    9.94    2.10   0
   6   3 -13   10.32    2.32   0
  -5  -3  13   42.66    3.09   0
  -5  -3  13   42.57    3.42   0
  -4  -3  13   13.69    1.53   0
   4   3 -13   -9.20    1.67   0
  -3  -3  13    0.61    1.76   0
  -3  -3  13    0.59    1.89   0
   3   3 -13    2.64    2.15   0
  -2  -3  13   44.57    3.09   0
  -2  -3  13   29.32    2.09   0
   2   3 -13   59.16    3.22   0
  -1  -3  13   76.96    4.44   0
  -1  -3  13   77.29    3.62   0
   0  -3  13  -13.55    2.33   0
   0  -3  13    7.73    1.73   0
   0   3 -13   27.54    2.21   0
   1  -3  13   -1.55    1.87   0
  -1   3 -13   -3.07    2.00   0
   2  -3  13   34.65    3.25   0
   2  -3  13   35.29    2.62   0
   3  -3  13   47.40    1.65   0
  -3   3 -13   45.95    1.84   0
  -8  -2  13   83.89    5.41   0
   8   2 -13   83.85    4.96   0
  -7  -2  13   14.23    2.43   0
  -7  -2  13   14.36    1.74   0
  -6  -2  13   10.84    1.79   0
  -6  -2  13   11.15    2.34   0
   6   2 -13   11.17    2.34   0
  -5  -2  13   15.12    2.00   0
  -5  -2  13   12.92    2.32   0
  -4  -2  13   37.16    3.27   0
   4   2 -13   36.70    3.27   0
  -3  -2  13   88.19    2.76   0
  -3  -2  13   63.93    2.79   0
   3   2 -13   76.86    3.33   0
  -2  -2  13    0.46    1.83   0
   2   2 -13    0.49    1.51   0
  -1  -2  13  146.72    5.40   0
   1   2 -13  147.61    5.29   0
   0  -2  13   24.63    1.97   0
   0   2 -13   25.16    2.11   0
   1  -2  13    6.03    2.45   0
  -1   2 -13    6.27    2.22   0
   2  -2  13    2.95    2.17   0
   2  -2  13    2.87    1.96   0
   3  -2  13    5.76    1.58   0
  -3   2 -13    6.33    1.97   0
  -9  -1  13   18.77    1.99   0
   9   1 -13   15.83    2.25   0
  -8  -1  13   -2.19    1.91   0
   8   1 -13   15.78    2.42   0
  -7  -1  13    0.03    1.81   0
   7   1 -13    0.02    2.39   0
  -6  -1  13    2.24    1.64   0
   6   1 -13    2.10    2.09   0
  -5  -1  13   31.16    3.24   0
  -5  -1  13   31.27    2.80   0
  -4  -1  13   33.62    3.42   0
  -4  -1  13   33.97    3.18   0
   4   1 -13    2.50    1.80   0
  -3  -1  13   -2.00    2.24   0
   3   1 -13    5.94    1.64   0
  -2  -1  13    0.71    2.49   0
  -2  -1  13    0.67    1.70   0
   2   1 -13    0.72    2.07   0
  -1  -1  13   84.87    3.93   0
   1   1 -13   84.68    4.03   0
   0  -1  13  113.28    5.07   0
   0   1 -13  113.34    4.85   0
   1  -1  13    3.90    2.33   0
  -1   1 -13    3.37    2.29   0
   2  -1  13   11.86    2.42   0
  -2   1 -13    1.59    2.38   0
   3  -1  13   -5.65    8.66   0
  -3   1 -13    4.30    8.34   0
  -9   0  13   -8.73    8.13   0
   9   0 -13   -4.06   11.54   0
  -8   0  13  -13.01    8.63   0
   8   0 -13   -6.47   10.32   0
  -7   0  13   10.01    9.28   0
   7   0 -13    0.98   10.61   0
  -6   0  13  -13.26    9.88   0
   6   0 -13    1.47   11.47   0
  -5   0  13   -5.74   10.31   0
  -5   0  13    6.30   17.30   0
  -4   0  13   -0.05   10.50   0
  -4   0  13   27.56   15.63   0
   4   0 -13  -28.19   11.11   0
  -3   0  13   12.72   10.40   0
  -3   0  13    6.63   13.28   0
  -2   0  13    1.13   15.05   0
   2   0 -13   18.58   10.06   0
  -1   0  13   27.94   10.22   0
   1   0 -13    2.21    9.44   0
   0   0  13    3.58   14.22   0
   0   0 -13    4.96    8.59   0
   1   0  13   15.40    9.30   0
  -1   0 -13  -15.02    1.78   0
   2   0  13    6.50    1.63   0
  -2   0 -13   -3.66    1.97   0
   3   0  13  -13.98    1.56   0
  -3   0 -13    2.22    2.40   0
  -9   1  13   17.68    1.87   0
   9  -1 -13   17.85    2.36   0
  -8   1  13    9.40    2.20   0
   8  -1 -13    8.55    2.23   0
  -7   1  13    0.26    2.35   0
   7  -1 -13    0.23    2.38   0
  -6   1  13    1.33    2.17   0
  -5   1  13   74.60    5.42   0
   5  -1 -13   75.14    4.72   0
  -4   1  13  -17.24    2.14   0
   4  -1 -13   -1.88    2.00   0
  -3   1  13    2.12    1.74   0
  -3   1  13    1.62    1.85   0
  -2   1  13   23.69    2.45   0
   2  -1 -13   24.16    2.44   0
  -1   1  13   97.90    3.88   0
  -1   1  13   98.35    4.39   0
   0   1  13   37.05    2.56   0
   0  -1 -13   31.95    3.27   0
   1   1  13  -28.16    2.04   0
  -1  -1 -13   -0.95    1.62   0
   2   1  13   11.26    1.54   0
  -2  -1 -13    2.65    2.02   0
   3   1  13  -18.15    9.52   0
  -3  -1 -13   12.22    8.31   0
  -9   2  13  214.02    5.33   0
   9  -2 -13  214.04    5.20   0
  -8   2  13    3.56    2.21   0
   8  -2 -13    4.31    1.74   0
  -7   2  13   42.48    3.71   0
  -6   2  13    3.08    1.86   0
   6  -2 -13    3.40    1.58   0
  -5   2  13   36.67    3.34   0
   5  -2 -13   36.76    3.04   0
  -4   2  13   96.57    4.53   0
   4  -2 -13   96.64    4.95   0
  -3   2  13    8.64    2.17   0
   3  -2 -13    9.43    1.74   0
  -2   2  13   49.12    3.28   0
   2  -2 -13   49.15    3.31   0
  -1   2  13  129.03    5.86   0
   1  -2 -13  128.91    5.91   0
   0   2  13   19.10    2.15   0
   0  -2 -13   14.44    2.07   0
   1   2  13    0.01    1.90   0
  -1  -2 -13    0.02    2.07   0
   2   2  13    0.19    1.95   0
  -2  -2 -13    0.21    1.54   0
   3   2  13   -7.70    9.45   0
  -3  -2 -13   23.54    8.03   0
  -9   3  13   31.79    8.66   0
   9  -3 -13   16.66   10.17   0
  -8   3  13    4.94    6.38   0
   8  -3 -13   13.80    9.05   0
  -7   3  13   39.13    6.56   0
   7  -3 -13    4.77    9.44   0
  -6   3  13   30.97    9.64   0
   6  -3 -13   66.00    9.60   0
  -5   3  13   39.31    6.94   0
   5  -3 -13  -20.86   10.33   0
  -4   3  13   23.17    7.02   0
   4  -3 -13   47.03   10.25   0
  -3   3  13  111.49    9.30   0
   3  -3 -13   86.12    9.93   0
  -2   3  13   96.21   13.90   0
   2  -3 -13  156.68    8.96   0
  -1   3  13    8.74   14.70   0
  -1   3  13   21.72   10.14   0
  -1   3  13   20.23   13.96   0
   1  -3 -13   10.54    7.82   0
   0   3  13    5.60    9.78   0
   0  -3 -13   21.24    5.74   0
   1   3  13   49.57   10.04   0
  -1  -3 -13   41.09    7.70   0
   2   3  13   70.81    9.53   0
  -2  -3 -13   34.36    8.04   0
  -8   4  13   -1.43    6.32   0
   8  -4 -13    1.81    8.39   0
  -7   4  13  171.42    9.12   0
   7  -4 -13  125.77    7.31   0
  -6   4  13  387.67    5.91   0
   6  -4 -13  387.94    6.33   0
  -5   4  13  384.81    4.62   0
   5  -4 -13  385.29    5.23   0
  -4   4  13   24.52    2.46   0
   4  -4 -13   24.91    2.11   0
  -3   4  13   10.34    2.09   0
   3  -4 -13   23.59    1.92   0
  -2   4  13   16.68    2.32   0
  -2   4  13   17.36    1.61   0
  -1   4  13    5.03    1.72   0
  -1   4  13   -5.51    2.12   0
  -1   4  13   -8.58    2.02   0
   0   4  13   -9.12    2.42   0
   0  -4 -13   12.50    2.14   0
   1   4  13   66.86    3.81   0
  -1  -4 -13   66.77    4.29   0
   2   4  13  134.35    5.06   0
  -2  -4 -13  134.02    4.99   0
  -8   5  13   -6.80    1.60   0
   8  -5 -13   29.06    2.15   0
  -7   5  13   20.73    2.22   0
   7  -5 -13   21.35    1.62   0
  -6   5  13  123.89    4.69   0
   6  -5 -13  124.19    5.36   0
  -5   5  13   81.90    4.30   0
   5  -5 -13   62.17    4.44   0
  -4   5  13   13.96    2.11   0
   4  -5 -13   14.01    1.97   0
  -3   5  13   80.17    4.02   0
   3  -5 -13   84.36    4.21   0
  -2   5  13    1.35    2.35   0
  -2   5  13    1.39    1.80   0
   2  -5 -13    1.30    1.88   0
  -1   5  13   20.87    1.55   0
  -1   5  13   20.71    1.93   0
   1  -5 -13   21.12    1.59   0
   0   5  13  128.37    5.94   0
   0  -5 -13  127.71    5.97   0
   1   5  13  -20.08    2.10   0
  -1  -5 -13    8.23    1.85   0
  -7   6  13   11.45    3.38   0
  -7   6  13   31.13    2.51   0
   7  -6 -13   53.36    3.19   0
  -6   6  13  127.45    5.96   0
  -6   6  13  126.65    5.82   0
  -5   6  13    4.28    2.28   0
   5  -6 -13    4.43    2.15   0
  -4   6  13   -0.78    2.11   0
   4  -6 -13  -14.27    1.88   0
  -3   6  13   83.15    3.69   0
   3  -6 -13   82.77    3.66   0
  -2   6  13  165.03    8.50   0
   2  -6 -13  130.03    7.32   0
  -1   6  13   41.38    2.95   0
  -1   6  13   41.43    2.70   0
   1  -6 -13   40.85    2.86   0
   0   6  13   26.61    1.73   0
   0  -6 -13    9.86    2.22   0
  -6   7  13   17.12    1.73   0
   6  -7 -13   10.90    1.65   0
  -5   7  13    8.39    1.68   0
   5  -7 -13    7.53    2.46   0
  -4   7  13  291.56    8.49   0
   4  -7 -13  291.86    7.99   0
  -3   7  13  681.45    6.72   0
   3  -7 -13  680.77    6.54   0
  -2   7  13  268.34    4.51   0
   2  -7 -13  304.52    5.18   0
  -3  -6  14   -4.70    1.72   0
  -3  -6  14   -5.57    2.09   0
  -2  -6  14    2.17    2.48   0
  -5  -5  14   32.97    2.69   0
  -5  -5  14   33.26    3.48   0
  -4  -5  14    9.94    2.03   0
  -4  -5  14    5.06    1.97   0
  -3  -5  14    3.63    2.39   0
  -3  -5  14    4.35    2.00   0
  -2  -5  14    0.18    1.83   0
  -2  -5  14    0.23    2.46   0
  -1  -5  14   29.59    2.88   0
  -1  -5  14   29.96    3.29   0
   0  -5  14   15.33    2.10   0
  -6  -4  14   44.26    2.07   0
  -6  -4  14   43.59    2.26   0
  -5  -4  14  267.93    5.34   0
  -5  -4  14  134.19    5.25   0
   5   4 -14  201.45    4.74   0
  -4  -4  14   76.99    3.39   0
   4   4 -14   74.19    3.17   0
  -3  -4  14    8.93    2.37   0
  -3  -4  14    8.64    2.31   0
  -2  -4  14    0.03    1.84   0
   2   4 -14    0.02    1.54   0
  -1  -4  14   20.65    1.99   0
  -1  -4  14   20.70    2.26   0
   1   4 -14   20.82    2.41   0
   0  -4  14    1.43    1.58   0
   0   4 -14    1.42    1.68   0
   1  -4  14    5.01    1.81   0
  -1   4 -14   -2.75    2.33   0
  -7  -3  14    0.01    1.72   0
   7   3 -14    0.03    2.37   0
  -6  -3  14   18.62    2.34   0
   6   3 -14   19.15    2.04   0
  -5  -3  14   18.91   10.22   0
   5   3 -14   29.17   11.90   0
  -4  -3  14   47.37   12.80   0
   4   3 -14   41.75   12.29   0
  -3  -3  14   13.00    9.90   0
  -3  -3  14    1.65   11.73   0
   3   3 -14    3.64   11.65   0
  -2  -3  14   29.83   11.35   0
   2   3 -14   14.64   11.31   0
  -1  -3  14  143.26   12.64   0
  -1  -3  14  134.86   11.62   0
   0  -3  14   69.00   10.85   0
   0   3 -14  118.33   13.08   0
   1  -3  14    0.09    1.79   0
   1  -3  14    0.10    1.91   0
  -7  -2  14   24.40    1.75   0
   7   2 -14   15.27    2.20   0
  -6  -2  14    6.56    2.10   0
  -6  -2  14    0.85    2.01   0
  -5  -2  14   -5.24    1.70   0
  -5  -2  14    2.31    1.70   0
   5   2 -14  -10.77    1.87   0
  -4  -2  14   -1.41    1.54   0
   4   2 -14   28.61    2.01   0
  -3  -2  14    5.77    2.02   0
  -3  -2  14    6.36    2.21   0
   3   2 -14    6.04    1.71   0
  -2  -2  14  111.40    5.30   0
   2   2 -14  129.85    4.59   0
  -1  -2  14  203.09    5.66   0
   1   2 -14  203.21    5.90   0
   0  -2  14  126.43    5.09   0
   0   2 -14  126.46    5.27   0
   1  -2  14   14.78    1.84   0
  -1   2 -14    6.99    1.89   0
   2  -2  14   19.53    1.89   0
  -2   2 -14   -4.85    2.42   0
  -8  -1  14   30.43    2.80   0
  -8  -1  14   17.82    2.95   0
  -7  -1  14    6.96    2.12   0
   7   1 -14    6.98    2.33   0
  -6  -1  14   65.91    3.86   0
   6   1 -14   65.67    3.84   0
  -5  -1  14   74.10    3.75   0
   5   1 -14   68.83    3.87   0
  -4  -1  14    2.76    2.33   0
   4   1 -14    3.31    1.58   0
  -3  -1  14    5.86    2.08   0
  -3  -1  14   -0.31    2.48   0
  -2  -1  14   43.02    2.53   0
  -2  -1  14   38.76    3.30   0
   2   1 -14   43.22    2.95   0
  -1  -1  14  315.16    6.19   0
   1   1 -14  315.05    5.64   0
   0  -1  14   50.77    4.20   0
   0  -1  14   51.36    3.67   0
   1  -1  14    0.93    1.50   0
  -1   1 -14    0.91    2.01   0
   2  -1  14   18.15    1.77   0
  -2   1 -14   18.10    2.27   0
  -8   0  14    2.91    1.97   0
   8   0 -14    2.92    1.71   0
  -7   0  14   13.04    1.59   0
   7   0 -14   12.79    1.79   0
  -6   0  14  402.50    5.24   0
  -6   0  14  402.98    5.19   0
  -5   0  14  839.66    5.73   0
   5   0 -14  840.44    6.09   0
  -4   0  14   86.44    4.43   0
   4   0 -14   86.41    3.94   0
  -3   0  14   17.20    1.59   0
  -3   0  14   17.27    1.97   0
  -2   0  14   36.25    2.60   0
   2   0 -14   36.30    2.71   0
  -1   0  14   18.85    1.71   0
  -1   0  14   19.20    1.53   0
   1   0 -14   19.34    1.67   0
   0   0  14    9.02    1.99   0
   0   0 -14    8.86    2.01   0
   1   0  14    1.65    1.62   0
  -1   0 -14    2.01    2.07   0
   2   0  14   48.68    3.24   0
  -2   0 -14   48.62    2.53   0
  -8   1  14    1.37    1.57   0
  -7   1  14   17.46    2.72   0
   7  -1 -14   17.14    2.71   0
  -6   1  14   55.43    2.61   0
   6  -1 -14   54.60    2.97   0
  -5   1  14   42.11    2.96   0
   5  -1 -14   42.03    2.56   0
  -4   1  14   13.67    1.81   0
  -4   1  14   18.49    2.17   0
   4  -1 -14   15.56    2.05   0
  -3   1  14   -7.32    1.91   0
  -3   1  14  -15.01    1.71   0
   3  -1 -14  -12.81    2.44   0
  -2   1  14   84.94    4.96   0
   2  -1 -14   84.72    5.49   0
  -1   1  14  171.97    5.75   0
  -1   1  14  172.04    5.78   0
   0   1  14   17.73    2.00   0
   0   1  14   17.74    1.75   0
   0   1  14   18.11    2.20   0
   0  -1 -14   18.04    1.98   0
   1   1  14    3.28    1.59   0
  -1  -1 -14    4.52    2.45   0
   2   1  14   25.98    2.18   0
  -2  -1 -14   26.09    2.03   0
  -8   2  14   10.32    2.11   0
   8  -2 -14    9.61    1.57   0
  -7   2  14    3.96    1.67   0
   7  -2 -14    4.38    1.73   0
  -6   2  14    8.19    2.19   0
   6  -2 -14    7.89    2.16   0
  -5   2  14   46.74    3.62   0
   5  -2 -14   47.13    3.66   0
  -4   2  14   28.76    2.56   0
   4  -2 -14   29.04    3.27   0
  -3   2  14  126.07    5.44   0
  -3   2  14  126.43    4.98   0
  -2   2  14  279.24    5.73   0
   2  -2 -14  278.52    6.44   0
  -1   2  14  155.90    5.32   0
   1  -2 -14  155.56    5.27   0
   0   2  14  -15.56    9.99   0
  -1  -2 -14   -1.63    7.64   0
  -8   3  14   20.42    8.76   0
  -7   3  14   32.39    3.08   0
   7  -3 -14   32.30    3.32   0
  -6   3  14   63.75    3.49   0
   6  -3 -14   40.01    2.56   0
  -5   3  14    9.30    2.22   0
   5  -3 -14    8.97    2.35   0
  -4   3  14    6.05    3.07   0
   4  -3 -14    5.60    2.73   0
  -3   3  14    3.91    2.54   0
   3  -3 -14    3.78    2.94   0
  -2   3  14  159.82    5.41   0
   2  -3 -14  160.32    5.47   0
  -1   3  14  113.25    4.58   0
  -1   3  14  112.61    4.99   0
   0   3  14    9.53    2.31   0
   0  -3 -14    9.91    1.60   0
   1   3  14   64.91    3.49   0
  -1  -3 -14   64.83    3.39   0
  -7   4  14   44.21    2.10   0
   7  -4 -14   16.08    1.71   0
  -6   4  14  193.14    4.89   0
   6  -4 -14  192.83    4.88   0
  -5   4  14   13.11    2.46   0
   5  -4 -14   13.49    2.11   0
  -4   4  14   20.09    2.32   0
   4  -4 -14   19.80    1.50   0
  -3   4  14    2.75    2.38   0
   3  -4 -14    2.52    2.17   0
  -2   4  14   23.85    1.99   0
   2  -4 -14   15.30    1.86   0
  -1   4  14    1.50    1.58   0
  -1   4  14    2.13    2.29   0
  -1   4  14    1.50    2.19   0
   1  -4 -14    2.06    1.65   0
   0   4  14   -1.74    8.03   0
   0  -4 -14   25.41    6.83   0
  -6   5  14   38.31    2.89   0
   6  -5 -14   37.59    2.97   0
  -5   5  14    8.68    1.92   0
   5  -5 -14    8.71    2.21   0
  -4   5  14    4.45    2.39   0
  -4   5  14   18.62    2.40   0
  -3   5  14    2.52    1.69   0
  -3   5  14   11.72    2.19   0
  -2   5  14   47.11    3.32   0
   2  -5 -14   46.66    2.91   0
  -1   5  14    1.81    1.85   0
  -1   5  14    8.67    1.51   0
   1  -5 -14   -3.87    2.46   0
  -5   6  14    1.70   10.75   0
   5  -6 -14    8.81    7.35   0
  -4   6  14   30.28    8.38   0
   4  -6 -14   29.80    7.26   0
  -3   6  14  130.24   13.56   0
  -3   6  14  114.72    6.45   0
   3  -6 -14  143.89    6.92   0
  -3  -4  15   27.57   10.77   0
   3   4 -15   26.03   16.36   0
  -2  -4  15   54.74   11.34   0
  -2  -4  15   40.68   10.42   0
  -5  -3  15   16.95   12.56   0
   5   3 -15   31.22   11.95   0
  -4  -3  15   23.43    9.13   0
  -4  -3  15   17.69   10.90   0
   4   3 -15   31.07   11.66   0
  -3  -3  15    0.23   10.86   0
  -3  -3  15    5.21   11.30   0
   3   3 -15   -3.71   13.22   0
  -2  -3  15   19.54   10.37   0
   2   3 -15    4.30   11.62   0
  -1  -3  15   47.58    2.97   0
  -1  -3  15   38.72    3.36   0
   1   3 -15   34.44    3.35   0
  -6  -2  15   16.58    2.19   0
   6   2 -15   12.56    1.90   0
  -5  -2  15    8.61    1.97   0
  -5  -2  15   11.10    2.40   0
   5   2 -15   -0.70    2.34   0
  -4  -2  15    9.79    1.69   0
  -4  -2  15   -9.69    2.17   0
   4   2 -15   27.77    1.89   0
  -3  -2  15   33.47    1.60   0
  -3  -2  15   -8.20    1.52   0
   3   2 -15   13.79    1.55   0
  -2  -2  15  182.97    5.07   0
  -2  -2  15  183.54    5.17   0
  -1  -2  15  329.36    5.22   0
   1   2 -15  329.12    5.49   0
   0  -2  15   44.01    3.23   0
   0   2 -15   40.74    3.44   0
  -6  -1  15  204.33    5.81   0
   6   1 -15  204.05    6.23   0
  -5  -1  15  501.40    6.82   0
   5   1 -15  501.34    7.14   0
  -4  -1  15   48.76    2.78   0
   4   1 -15   42.31    3.28   0
  -3  -1  15   53.97    3.94   0
   3   1 -15   54.32    3.86   0
  -2  -1  15  115.08    4.74   0
   2   1 -15  114.83    5.19   0
  -1  -1  15   77.39    3.78   0
   1   1 -15   77.08    3.90   0
   0  -1  15   11.14    1.75   0
   0  -1  15   -3.04    2.16   0
   0   1 -15  -16.83    1.70   0
  -6   0  15    6.49    2.09   0
  -6   0  15    6.21    1.56   0
  -5   0  15    5.01    1.65   0
  -5   0  15    5.46    2.46   0
  -4   0  15    0.09    1.63   0
  -4   0  15    0.11    1.63   0
  -3   0  15    0.60    1.66   0
   3   0 -15    0.61    1.65   0
  -2   0  15  -12.64    1.53   0
   2   0 -15   -3.94    1.93   0
  -1   0  15    1.47    1.97   0
  -1   0  15   -7.31    1.63   0
   0   0  15   33.04    1.75   0
   0   0 -15   40.33    2.04   0
  -6   1  15  427.55    9.02   0
  -6   1  15  427.73    9.08   0
   6  -1 -15  427.82    9.48   0
  -5   1  15  390.86    7.50   0
   5  -1 -15  391.03    8.40   0
  -4   1  15    7.30    1.73   0
   4  -1 -15    7.13    2.04   0
  -3   1  15   90.51    4.01   0
   3  -1 -15   97.08    3.71   0
  -2   1  15  186.57    6.36   0
   2  -1 -15  187.44    5.90   0
  -1   1  15   10.84    1.61   0
  -1   1  15   10.58    1.99   0
   1  -1 -15   10.83    1.85   0
   0   1  15   21.46    1.70   0
   0  -1 -15  -12.43    2.31   0
  -6   2  15   -0.48    1.63   0
   6  -2 -15  -15.39    2.15   0
  -5   2  15   16.32    2.41   0
   5  -2 -15   26.27    1.80   0
  -4   2  15   26.55    2.74   0
   4  -2 -15   27.01    2.68   0
  -3   2  15   36.38    2.54   0
   3  -2 -15   36.21    2.69   0
  -2   2  15  375.09    9.37   0
   2  -2 -15  375.47    9.02   0
  -1   2  15  220.89    7.88   0
  -1   2  15  220.51    8.19   0
   1  -2 -15  220.78    7.93   0
  -6   3  15   39.05    3.03   0
   6  -3 -15   61.12    3.06   0
  -5   3  15   29.55    3.29   0
   5  -3 -15   29.69    2.56   0
  -4   3  15   -2.55    8.94   0
   4  -3 -15   -1.06    9.47   0
  -3   3  15   34.25    8.89   0
   3  -3 -15    9.67    8.41   0
  -2   3  15   68.09    3.71   0
   2  -3 -15   67.65    3.97   0
  -4   4  15    5.58    8.81   0
   4  -4 -15    6.25    6.55   0
  -3   4  15   30.75   11.72   0
  -3   4  15   23.02    6.65   0
   3  -4 -15   26.12    5.57   0
;
_shelx_hkl_checksum              22883
loop_
_space_group_symop_operation_xyz
'x, y, z'
'-x, -y, -z'
loop_
_atom_site_label
_atom_site_type_symbol
_atom_site_fract_x
_atom_site_fract_y
_atom_site_fract_z
_atom_site_U_iso_or_equiv
_atom_site_adp_type
_atom_site_occupancy
_atom_site_site_symmetry_order
_atom_site_calc_flag
W1 W -0.17365(7) -0.10607(4) 0.43957(4) 0.03508(13) Uani 1 1 d
W2 W -0.06681(6) 0.12474(4) 0.40739(4) 0.03427(13) Uani 1 1 d
W3 W 0.07307(7) -0.06152(4) 0.39650(4) 0.03458(14) Uani 1 1 d
W4 W 0.17305(6) 0.44183(4) 0.06306(4) 0.03434(13) Uani 1 1 d
W5 W -0.07617(6) 0.41826(4) 0.10382(4) 0.03263(13) Uani 1 1 d
W6 W 0.06510(6) 0.64379(4) 0.09246(4) 0.03204(13) Uani 1 1 d
I1 I 0.03257(11) 0.31013(7) 0.57163(7) 0.0429(2) Uani 1 1 d
I2 I -0.17457(10) -0.04017(8) 0.23175(6) 0.0397(2) Uani 1 1 d
I3 I -0.32782(11) 0.08510(9) 0.45251(8) 0.0449(2) Uani 1 1 d
I4 I 0.19625(10) 0.17770(7) 0.36129(7) 0.0376(2) Uani 1 1 d
I5 I -0.18560(10) 0.31154(7) 0.26958(7) 0.0383(2) Uani 1 1 d
I6 I 0.18301(11) 0.86281(8) 0.22891(7) 0.0420(2) Uani 1 1 d
I7 I -0.42652(15) -0.26651(10) 0.34853(9) 0.0639(3) Uani 1 1 d
I8 I 0.32860(11) 0.67385(9) 0.05217(8) 0.0458(2) Uani 1 1 d
I9 I 0.16947(11) 0.50837(8) 0.26831(7) 0.0403(2) Uani 1 1 d
I10 I -0.02764(11) 0.80066(7) -0.07153(7) 0.0410(2) Uani 1 1 d
I11 I -0.20015(11) 0.62412(8) 0.13552(7) 0.0421(2) Uani 1 1 d
I12 I 0.42524(12) 0.35475(10) 0.16299(10) 0.0583(3) Uani 1 1 d
I13 I 0.45547(19) 0.08290(14) 0.05621(14) 0.0652(7) Uani 0.737(5) 1 d
loop_
_atom_site_aniso_label
_atom_site_aniso_U_11
_atom_site_aniso_U_22
_atom_site_aniso_U_33
_atom_site_aniso_U_23
_atom_site_aniso_U_13
_atom_site_aniso_U_12
W1 0.0617(4) 0.0263(2) 0.0194(2) -0.00009(18) 0.0127(2) 0.0118(2)
W2 0.0596(4) 0.0263(2) 0.0213(2) -0.00071(18) 0.0168(2) 0.0103(2)
W3 0.0631(4) 0.0293(2) 0.0203(2) 0.00065(19) 0.0197(2) 0.0200(2)
W4 0.0555(3) 0.0268(2) 0.0291(3) -0.00086(19) 0.0214(2) 0.0148(2)
W5 0.0532(3) 0.0254(2) 0.0217(2) 0.00303(18) 0.0117(2) 0.0121(2)
W6 0.0610(4) 0.0186(2) 0.0218(2) 0.00146(17) 0.0191(2) 0.0087(2)
I1 0.0753(7) 0.0281(4) 0.0331(5) 0.0005(3) 0.0235(4) 0.0174(4)
I2 0.0611(6) 0.0360(4) 0.0230(4) -0.0067(3) 0.0117(4) 0.0116(4)
I3 0.0546(6) 0.0480(5) 0.0375(5) 0.0022(4) 0.0187(4) 0.0141(4)
I4 0.0544(5) 0.0335(4) 0.0315(4) 0.0023(3) 0.0218(4) 0.0091(4)
I5 0.0599(6) 0.0355(4) 0.0295(4) 0.0056(3) 0.0247(4) 0.0153(4)
I6 0.0653(6) 0.0358(4) 0.0313(4) -0.0063(3) 0.0258(4) 0.0047(4)
I7 0.0850(9) 0.0519(6) 0.0520(6) -0.0016(5) 0.0177(6) 0.0065(5)
I8 0.0531(6) 0.0499(5) 0.0415(5) -0.0023(4) 0.0239(5) 0.0107(4)
I9 0.0612(6) 0.0349(4) 0.0329(4) 0.0029(3) 0.0199(4) 0.0207(4)
I10 0.0749(7) 0.0245(4) 0.0323(4) -0.0024(3) 0.0279(4) 0.0104(4)
I11 0.0668(6) 0.0368(4) 0.0267(4) -0.0099(3) 0.0179(4) 0.0122(4)
I12 0.0517(6) 0.0588(6) 0.0666(7) -0.0026(5) 0.0125(5) 0.0247(5)
I13 0.0742(12) 0.0553(10) 0.0725(12) -0.0003(7) 0.0304(9) 0.0128(8)
loop_
_atom_type_symbol
_atom_type_description
_atom_type_scat_dispersion_real
_atom_type_scat_dispersion_imag
_atom_type_scat_source
W W -0.8490 6.8722 'International Tables Vol C Tables 4.2.6.8 and 6.1.1.4'
I I -0.4742 1.8119 'International Tables Vol C Tables 4.2.6.8 and 6.1.1.4'
loop_
_geom_angle_atom_site_label_1
_geom_angle_atom_site_label_2
_geom_angle_atom_site_label_3
_geom_angle
_geom_angle_site_symmetry_1
_geom_angle_site_symmetry_3
W3 W1 W2 60.05(2) . .
W3 W1 W3 89.70(2) . 2_556
W2 W1 W3 60.026(19) . 2_556
W3 W1 W2 60.09(2) . 2_556
W2 W1 W2 90.09(2) . 2_556
W3 W1 W2 59.59(2) 2_556 2_556
W3 W1 I4 122.55(3) . 2_556
W2 W1 I4 121.93(3) . 2_556
W3 W1 I4 61.96(2) 2_556 2_556
W2 W1 I4 62.48(3) 2_556 2_556
W3 W1 I7 133.69(3) . .
W2 W1 I7 135.37(3) . .
W3 W1 I7 136.61(4) 2_556 .
W2 W1 I7 134.51(3) 2_556 .
I4 W1 I7 87.87(4) 2_556 .
W3 W1 I3 121.59(3) . .
W2 W1 I3 61.54(3) . .
W3 W1 I3 60.93(3) 2_556 .
W2 W1 I3 120.49(3) 2_556 .
I4 W1 I3 88.50(3) 2_556 .
I7 W1 I3 89.93(4) . .
W3 W1 I2 61.92(3) . .
W2 W1 I2 60.69(2) . .
W3 W1 I2 120.70(3) 2_556 .
W2 W1 I2 122.01(3) 2_556 .
I4 W1 I2 175.36(4) 2_556 .
I7 W1 I2 87.81(3) . .
I3 W1 I2 89.80(3) . .
W3 W1 I1 62.07(3) . 2_556
W2 W1 I1 122.12(3) . 2_556
W3 W1 I1 120.55(3) 2_556 2_556
W2 W1 I1 60.99(3) 2_556 2_556
I4 W1 I1 89.47(3) 2_556 2_556
I7 W1 I1 86.94(4) . 2_556
I3 W1 I1 176.33(4) . 2_556
I2 W1 I1 92.00(3) . 2_556
W3 W2 W1 59.76(2) . .
W3 W2 W3 89.61(2) . 2_556
W1 W2 W3 60.167(19) . 2_556
W3 W2 W1 60.08(2) . 2_556
W1 W2 W1 89.91(2) . 2_556
W3 W2 W1 59.44(2) 2_556 2_556
W3 W2 I2 62.38(3) . .
W1 W2 I2 62.22(2) . .
W3 W2 I2 122.37(3) 2_556 .
W1 W2 I2 122.43(3) 2_556 .
W3 W2 I3 121.48(3) . .
W1 W2 I3 61.72(3) . .
W3 W2 I3 61.04(3) 2_556 .
W1 W2 I3 120.45(3) 2_556 .
I2 W2 I3 90.73(3) . .
W3 W2 I1 122.27(3) . .
W1 W2 I1 122.44(3) . .
W3 W2 I1 62.31(2) 2_556 .
W1 W2 I1 62.22(3) 2_556 .
I2 W2 I1 174.31(3) . .
I3 W2 I1 89.15(3) . .
W3 W2 I4 61.39(2) . .
W1 W2 I4 121.15(3) . .
W3 W2 I4 119.88(3) 2_556 .
W1 W2 I4 60.46(3) 2_556 .
I2 W2 I4 90.85(3) . .
I3 W2 I4 177.13(3) . .
I1 W2 I4 89.04(3) . .
W3 W2 I5 137.63(3) . .
W1 W2 I5 132.24(3) . .
W3 W2 I5 132.64(3) 2_556 .
W1 W2 I5 137.73(3) 2_556 .
I2 W2 I5 87.06(3) . .
I3 W2 I5 84.87(3) . .
I1 W2 I5 87.26(3) . .
I4 W2 I5 92.82(3) . .
W1 W3 W2 60.19(2) . .
W1 W3 W2 60.47(2) . 2_556
W2 W3 W2 90.39(2) . 2_556
W1 W3 W1 90.30(2) . 2_556
W2 W3 W1 60.33(2) . 2_556
W2 W3 W1 59.807(19) 2_556 2_556
W1 W3 I3 122.26(3) . 2_556
W2 W3 I3 122.18(3) . 2_556
W2 W3 I3 61.81(3) 2_556 2_556
W1 W3 I3 61.88(3) 2_556 2_556
W1 W3 I4 122.51(3) . .
W2 W3 I4 62.32(2) . .
W2 W3 I4 120.60(3) 2_556 .
W1 W3 I4 60.85(2) 2_556 .
I3 W3 I4 88.41(3) 2_556 .
W1 W3 I2 61.75(3) . .
W2 W3 I2 60.68(2) . .
W2 W3 I2 122.22(3) 2_556 .
W1 W3 I2 120.98(3) 2_556 .
I3 W3 I2 175.66(3) 2_556 .
I4 W3 I2 90.44(3) . .
W1 W3 I1 62.12(3) . 2_556
W2 W3 I1 122.31(3) . 2_556
W2 W3 I1 61.13(2) 2_556 2_556
W1 W3 I1 120.90(3) 2_556 2_556
I3 W3 I1 88.93(3) 2_556 2_556
I4 W3 I1 175.36(3) . 2_556
I2 W3 I1 91.93(3) . 2_556
W1 W3 I6 135.70(3) . 1_545
W2 W3 I6 130.20(3) . 1_545
W2 W3 I6 139.38(3) 2_556 1_545
W1 W3 I6 133.64(3) 2_556 1_545
I3 W3 I6 89.90(3) 2_556 1_545
I4 W3 I6 84.10(3) . 1_545
I2 W3 I6 85.82(3) . 1_545
I1 W3 I6 92.10(3) 2_556 1_545
W5 W4 W6 60.09(2) . .
W5 W4 W6 60.44(2) . 2_565
W6 W4 W6 90.06(2) . 2_565
W5 W4 W5 90.18(2) . 2_565
W6 W4 W5 60.201(19) . 2_565
W6 W4 W5 59.55(2) 2_565 2_565
W5 W4 I8 121.70(3) . .
W6 W4 I8 61.61(2) . .
W6 W4 I8 120.68(3) 2_565 .
W5 W4 I8 61.15(3) 2_565 .
W5 W4 I12 132.56(3) . .
W6 W4 I12 134.04(3) . .
W6 W4 I12 135.83(3) 2_565 .
W5 W4 I12 137.24(4) 2_565 .
I8 W4 I12 89.40(4) . .
W5 W4 I9 61.68(3) . .
W6 W4 I9 60.80(2) . .
W6 W4 I9 122.12(3) 2_565 .
W5 W4 I9 120.97(3) 2_565 .
I8 W4 I9 89.65(3) . .
I12 W4 I9 86.20(4) . .
W5 W4 I11 122.79(3) . 2_565
W6 W4 I11 121.71(3) . 2_565
W6 W4 I11 62.36(3) 2_565 2_565
W5 W4 I11 61.57(2) 2_565 2_565
I8 W4 I11 88.54(3) . 2_565
I12 W4 I11 89.54(4) . 2_565
I9 W4 I11 175.39(4) . 2_565
W5 W4 I10 61.66(2) . 2_565
W6 W4 I10 121.75(3) . 2_565
W6 W4 I10 60.41(3) 2_565 2_565
W5 W4 I10 119.93(3) 2_565 2_565
I8 W4 I10 176.63(3) . 2_565
I12 W4 I10 87.95(4) . 2_565
I9 W4 I10 92.24(3) . 2_565
I11 W4 I10 89.37(3) 2_565 2_565
W4 W5 W6 60.08(2) . .
W4 W5 W6 60.14(2) . 2_565
W6 W5 W6 89.88(2) . 2_565
W4 W5 W4 89.82(2) . 2_565
W6 W5 W4 59.99(2) . 2_565
W6 W5 W4 59.438(18) 2_565 2_565
W4 W5 I8 121.46(3) . 2_565
W6 W5 I8 121.03(3) . 2_565
W6 W5 I8 61.33(3) 2_565 2_565
W4 W5 I8 61.06(3) 2_565 2_565
W4 W5 I9 61.41(3) . .
W6 W5 I9 60.70(2) . .
W6 W5 I9 121.55(3) 2_565 .
W4 W5 I9 120.68(3) 2_565 .
I8 W5 I9 177.01(3) 2_565 .
W4 W5 I11 122.35(3) . .
W6 W5 I11 62.27(3) . .
W6 W5 I11 120.29(3) 2_565 .
W4 W5 I11 60.91(2) 2_565 .
I8 W5 I11 88.13(3) 2_565 .
I9 W5 I11 90.79(3) . .
W4 W5 I10 62.19(2) . 2_565
W6 W5 I10 122.26(3) . 2_565
W6 W5 I10 60.50(2) 2_565 2_565
W4 W5 I10 119.89(3) 2_565 2_565
I8 W5 I10 88.54(3) 2_565 2_565
I9 W5 I10 92.38(3) . 2_565
I11 W5 I10 175.40(4) . 2_565
W4 W5 I5 134.99(3) . .
W6 W5 I5 130.70(3) . .
W6 W5 I5 139.42(3) 2_565 .
W4 W5 I5 134.89(3) 2_565 .
I8 W5 I5 91.34(3) 2_565 .
I9 W5 I5 85.79(3) . .
I11 W5 I5 85.13(3) . .
I10 W5 I5 91.78(3) 2_565 .
W4 W6 W5 59.83(2) . .
W4 W6 W4 89.94(2) . 2_565
W5 W6 W4 60.46(2) . 2_565
W4 W6 W5 60.361(18) . 2_565
W5 W6 W5 90.12(2) . 2_565
W4 W6 W5 59.42(2) 2_565 2_565
W4 W6 I9 61.77(2) . .
W5 W6 I9 61.94(3) . .
W4 W6 I9 122.39(3) 2_565 .
W5 W6 I9 122.11(3) 2_565 .
W4 W6 I10 122.41(3) . .
W5 W6 I10 122.96(3) . .
W4 W6 I10 62.53(3) 2_565 .
W5 W6 I10 62.10(2) 2_565 .
I9 W6 I10 174.39(3) . .
W4 W6 I8 61.26(3) . .
W5 W6 I8 121.08(3) . .
W4 W6 I8 120.50(3) 2_565 .
W5 W6 I8 61.08(3) 2_565 .
I9 W6 I8 89.99(3) . .
I10 W6 I8 89.27(3) . .
W4 W6 I11 121.10(3) . .
W5 W6 I11 61.27(2) . .
W4 W6 I11 60.70(2) 2_565 .
W5 W6 I11 120.11(3) 2_565 .
I9 W6 I11 90.92(3) . .
I10 W6 I11 89.62(3) . .
I8 W6 I11 177.60(3) . .
W4 W6 I6 131.88(3) . .
W5 W6 I6 137.59(3) . .
W4 W6 I6 138.02(3) 2_565 .
W5 W6 I6 132.14(3) 2_565 .
I9 W6 I6 87.36(3) . .
I10 W6 I6 87.04(3) . .
I8 W6 I6 84.64(3) . .
I11 W6 I6 93.19(3) . .
W2 I1 W3 56.56(2) . 2_556
W2 I1 W1 56.79(2) . 2_556
W3 I1 W1 55.81(2) 2_556 2_556
W2 I2 W1 57.09(2) . .
W2 I2 W3 56.95(2) . .
W1 I2 W3 56.33(2) . .
W3 I3 W2 57.15(3) 2_556 .
W3 I3 W1 57.19(2) 2_556 .
W2 I3 W1 56.74(2) . .
W1 I4 W3 57.19(2) 2_556 .
W1 I4 W2 57.06(2) 2_556 .
W3 I4 W2 56.28(2) . .
W5 I5 W2 124.53(4) . .
W6 I6 W3 124.31(4) . 1_565
W4 I8 W5 57.79(3) . 2_565
W4 I8 W6 57.13(2) . .
W5 I8 W6 57.58(3) 2_565 .
W6 I9 W4 57.43(2) . .
W6 I9 W5 57.36(2) . .
W4 I9 W5 56.91(2) . .
W6 I10 W5 57.40(2) . 2_565
W6 I10 W4 57.06(2) . 2_565
W5 I10 W4 56.15(2) 2_565 2_565
W4 I11 W5 57.53(2) 2_565 .
W4 I11 W6 56.93(2) 2_565 .
W5 I11 W6 56.46(2) . .
loop_
_geom_bond_atom_site_label_1
_geom_bond_atom_site_label_2
_geom_bond_distance
_geom_bond_site_symmetry_2
W1 W3 2.6502(9) .
W1 W2 2.6617(7) .
W1 W3 2.6714(7) 2_556
W1 W2 2.6781(9) 2_556
W1 I4 2.7761(10) 2_556
W1 I7 2.7849(14) .
W1 I3 2.8033(11) .
W1 I2 2.8052(10) .
W1 I1 2.8320(10) 2_556
W2 W3 2.6580(7) .
W2 W3 2.6676(7) 2_556
W2 W1 2.6781(9) 2_556
W2 I2 2.7648(9) .
W2 I3 2.7986(12) .
W2 I1 2.7995(10) .
W2 I4 2.8299(11) .
W2 I5 2.8808(10) .
W3 W2 2.6677(7) 2_556
W3 W1 2.6714(7) 2_556
W3 I3 2.7781(12) 2_556
W3 I4 2.8054(10) .
W3 I2 2.8097(11) .
W3 I1 2.8306(10) 2_556
W3 I6 2.8849(10) 1_545
W4 W5 2.6604(8) .
W4 W6 2.6672(7) .
W4 W6 2.6797(9) 2_565
W4 W5 2.6922(7) 2_565
W4 I8 2.7845(11) .
W4 I12 2.7856(12) .
W4 I9 2.7883(10) .
W4 I11 2.7886(9) 2_565
W4 I10 2.8332(10) 2_565
W5 W6 2.6675(7) .
W5 W6 2.6879(7) 2_565
W5 W4 2.6922(7) 2_565
W5 I8 2.7872(12) 2_565
W5 I9 2.7954(12) .
W5 I11 2.8063(10) .
W5 I10 2.8195(9) 2_565
W5 I5 2.8631(10) .
W6 W4 2.6797(9) 2_565
W6 W5 2.6879(7) 2_565
W6 I9 2.7624(10) .
W6 I10 2.7767(10) .
W6 I8 2.7939(12) .
W6 I11 2.8328(12) .
W6 I6 2.8638(10) .
I1 W3 2.8306(10) 2_556
I1 W1 2.8320(10) 2_556
I3 W3 2.7781(12) 2_556
I4 W1 2.7760(10) 2_556
I6 W3 2.8849(10) 1_565
I8 W5 2.7871(12) 2_565
I10 W5 2.8195(9) 2_565
I10 W4 2.8333(10) 2_565
I11 W4 2.7886(9) 2_565
I13 I13 2.729(3) 2_655
