#------------------------------------------------------------------------------
#$Date: 2016-06-17 04:55:25 +0300 (Fri, 17 Jun 2016) $
#$Revision: 183647 $
#$URL: file:///home/coder/svn-repositories/cod/cif/2/30/06/2300620.cif $
#------------------------------------------------------------------------------
#
# This file is available in the Crystallography Open Database (COD),
# http://www.crystallography.net/. The original data for this entry
# were provided by IUCr Journals, http://journals.iucr.org/.
#
# The file may be used within the scientific community so long as
# proper attribution is given to the journal article from which the
# data were obtained.
#
data_2300620
loop_
_publ_author_name
'Dyadkin, Vadim'
'Wright, Jon'
'Pattison, Philip'
'Chernyshov, Dmitry'
_publ_section_title
;
 Probing structural chirality with high-energy synchrotron radiation
;
_journal_coeditor_code           TO5136SUP1
_journal_issue                   3
_journal_name_full               'Journal of Applied Crystallography'
_journal_page_first              918
_journal_page_last               922
_journal_paper_doi               10.1107/S1600576716006282
_journal_volume                  49
_journal_year                    2016
_chemical_formula_sum            'Mn Si'
_chemical_formula_weight         83.03
_space_group_crystal_system      cubic
_space_group_IT_number           198
_space_group_name_Hall           'P 2ac 2ab 3'
_space_group_name_H-M_alt        'P 21 3'
_symmetry_space_group_name_Hall  'P 2ac 2ab 3'
_symmetry_space_group_name_H-M   'P 21 3'
_audit_creation_method           SHELXL-2014/7
_cell_angle_alpha                90
_cell_angle_beta                 90
_cell_angle_gamma                90
_cell_formula_units_Z            4
_cell_length_a                   4.56620(10)
_cell_length_b                   4.56620(10)
_cell_length_c                   4.56620(10)
_cell_measurement_reflns_used    14604
_cell_measurement_temperature    293(2)
_cell_measurement_theta_max      19.8920
_cell_measurement_theta_min      1.9880
_cell_volume                     95.206(4)
_computing_structure_refinement  'SHELXL-2014/7 (Sheldrick, 2014)'
_diffrn_ambient_temperature      293(2)
_diffrn_measured_fraction_theta_full 0.930
_diffrn_measured_fraction_theta_max 0.996
_diffrn_measurement_device_type  'Huber \c at ID11@ESRF'
_diffrn_measurement_method       '\f scan'
_diffrn_radiation_wavelength     0.158
_diffrn_reflns_av_unetI/netI     0.0079
_diffrn_reflns_Laue_measured_fraction_full 0.930
_diffrn_reflns_Laue_measured_fraction_max 0.996
_diffrn_reflns_limit_h_max       14
_diffrn_reflns_limit_h_min       -15
_diffrn_reflns_limit_k_max       15
_diffrn_reflns_limit_k_min       -15
_diffrn_reflns_limit_l_max       15
_diffrn_reflns_limit_l_min       -15
_diffrn_reflns_number            12145
_diffrn_reflns_point_group_measured_fraction_full 0.954
_diffrn_reflns_point_group_measured_fraction_max 0.998
_diffrn_reflns_theta_full        5.440
_diffrn_reflns_theta_max         15.212
_diffrn_reflns_theta_min         1.717
_exptl_absorpt_coefficient_mu    0.255
_exptl_crystal_colour            'metallic dark grey'
_exptl_crystal_density_diffrn    5.793
_exptl_crystal_description       block
_exptl_crystal_F_000             156
_refine_diff_density_max         0.592
_refine_diff_density_min         -1.392
_refine_diff_density_rms         0.275
_refine_ls_abs_structure_details
;
 Flack x determined using 529 quotients [(I+)-(I-)]/[(I+)+(I-)]
 (Parsons, Flack and Wagner, Acta Cryst. B69 (2013) 249-259).
;
_refine_ls_abs_structure_Flack   -0.02(12)
_refine_ls_extinction_method     none
_refine_ls_goodness_of_fit_ref   1.080
_refine_ls_hydrogen_treatment    undef
_refine_ls_matrix_type           full
_refine_ls_number_parameters     7
_refine_ls_number_reflns         12145
_refine_ls_number_restraints     0
_refine_ls_restrained_S_all      1.080
_refine_ls_R_factor_all          0.0151
_refine_ls_R_factor_gt           0.0146
_refine_ls_shift/su_max          0.000
_refine_ls_shift/su_mean         0.000
_refine_ls_structure_factor_coef Fsqd
_refine_ls_weighting_details
'w=1/[\s^2^(Fo^2^)+(0.0218P)^2^+0.0116P] where P=(Fo^2^+2Fc^2^)/3'
_refine_ls_weighting_scheme      calc
_refine_ls_wR_factor_gt          0.0369
_refine_ls_wR_factor_ref         0.0374
_reflns_Friedel_coverage         0.759
_reflns_Friedel_fraction_full    1.000
_reflns_Friedel_fraction_max     1.000
_reflns_number_gt                11972
_reflns_number_total             12145
_reflns_threshold_expression     'I > 2\s(I)'
_cod_data_source_file            to5136sup1.cif
_cod_data_source_block           MnSi_78keV
_cod_depositor_comments
'Adding full bibliography for 2300619--2300621.cif.'
_cod_original_cell_volume        95.206(6)
_cod_database_code               2300620
_cod_database_fobs_code          2300620
_shelx_shelxl_version_number     2014/7
_shelx_space_group_comment
;
The symmetry employed for this shelxl refinement is uniquely defined
by the following loop, which should always be used as a source of
symmetry information in preference to the above space-group names.
They are only intended as comments.
;
_shelx_res_file
;

    MnSi_high_a.res created by SHELXL-2014/7


TITL MnSi_high_a.res in P2(1)3
REM Old TITL MnSi_high in P2(1)3

REM SHELXT solution in P2(1)3
REM R1 0.058,  Rweak 0.028,  Alpha 0.039,  Orientation as input
REM Flack x =  0.389 ( 0.057 ) from Parsons' quotients
REM Formula found by SHELXT:  Si Mn

CELL  0.15800   4.5662   4.5662   4.5662   90.000   90.000   90.000
ZERR    4.000   0.0001   0.0001   0.0001    0.000    0.000    0.000
LATT -1
SYMM 1/2-X, -Y, 1/2+Z
SYMM -X, 1/2+Y, 1/2-Z
SYMM 1/2+X, 1/2-Y, -Z
SYMM Z, X, Y
SYMM 1/2+Z, 1/2-X, -Y
SYMM 1/2-Z, -X, 1/2+Y
SYMM -Z, 1/2+X, 1/2-Y
SYMM Y, Z, X
SYMM -Y, 1/2+Z, 1/2-X
SYMM 1/2+Y, 1/2-Z, -X
SYMM 1/2-Y, -Z, 1/2+X
SFAC SI MN
DISP $Si -0.00737  0.00283 10.63098!source kissel
DISP $Mn  0.00036  0.03747 49.97646!source kissel
UNIT 4.00 4.00
OMIT 0 -4 0
OMIT -2 -1 0
OMIT 1 0 2
L.S. 10
SHEL 5 0.3
LIST 4
ACTA
FMAP 2
PLAN 20
MERG 0
WGHT    0.021800    0.011600
FVAR       1.97974
MN01  2    0.136876    0.136876    0.136876    10.33333    0.00446    0.00446 =
         0.00446   -0.00004   -0.00004   -0.00004
SI02  1   -0.154448   -0.154448   -0.154448    10.33333    0.00570    0.00570 =
         0.00570   -0.00061   -0.00061   -0.00061
HKLF 4

REM  MnSi_high_a.res in P2(1)3
REM R1 =  0.0146 for   11972 Fo > 4sig(Fo)  and  0.0151 for all   12145 data
REM      7 parameters refined using      0 restraints

END

WGHT      0.0218      0.0116

REM Highest difference peak  0.592,  deepest hole -1.392,  1-sigma level  0.275
Q1    1   0.4072  0.2039  0.1395  11.00000  0.05    0.59
Q2    1   0.2509  0.1320  0.3481  11.00000  0.05    0.58
Q3    1  -0.4023 -0.1999 -0.1207  11.00000  0.05    0.52
Q4    1  -0.3453 -0.2471 -0.1357  11.00000  0.05    0.52
Q5    1  -0.0678  0.1426  0.2836  11.00000  0.05    0.49
Q6    1   0.3285  0.1246  0.2898  11.00000  0.05    0.47
Q7    1  -0.1769 -0.1935 -0.3695  11.00000  0.05    0.47
Q8    1  -0.3841 -0.1380 -0.2731  11.00000  0.05    0.43
Q9    1   0.0662 -0.1016 -0.2376  11.00000  0.05    0.34
Q10   1   0.3604 -0.0529  0.0101  11.00000  0.05    0.32
Q11   1  -0.1643  0.0348 -0.1337  11.00000  0.05    0.31
Q12   1  -0.0855 -0.3757  0.0338  11.00000  0.05    0.29
Q13   1  -0.0453  0.1282  0.0589  11.00000  0.05    0.14
Q14   1   0.0261  0.0261  0.0261  10.33333  0.05    0.13
Q15   1  -0.0837 -0.0278  0.0175  11.00000  0.05    0.12
Q16   1  -0.0353 -0.0353 -0.0353  10.33333  0.05    0.11
;
_shelx_res_checksum              53719
_shelx_hkl_file
;
   1   1  -1 2988.02    4.41
   1  -1   1 3515.81    5.84
  -1  -1   1 3293.63    4.51
  -1   1  -1 3571.08    5.82
   0   2   0 2153.25    3.80
   2   0   0 2221.04    4.93
   2   0   1 2580.57    5.75
   0   1  -2 2454.10    4.09
  -2   0  -1 2551.06    5.70
   2   0  -1 2510.66    5.26
  -2   0   1 2468.50    5.09
  -1  -2   0 2439.61    4.35
  -1   2   0 2551.59    4.93
   0  -1   2 2485.40    4.19
   1   2   0 2457.71    4.40
   1  -2   0 2578.65    5.14
   1  -2   1 7159.85    9.35
  -2  -1  -1 7132.51    9.27
  -2   1   1 7317.60    9.11
   1  -1   2 7107.55    9.08
   1   0   2 8919.12    9.36
  -2  -1   0 8902.20    9.64
  -2  -1   1 6673.65    8.20
   2   1   1 7102.63    9.61
  -1   1  -2 6870.91    8.69
   2  -1  -1 6855.88    8.65
  -1   2  -1 6965.66    8.84
  -2   2   2 2906.64    5.80
   2  -2   2 2904.03    7.43
   2  -1   2  825.07    3.75
  -2   2   1  852.21    3.36
  -2   1   2  837.04    2.88
  -2  -2  -1  804.86    2.94
   1  -2   2  854.00    3.48
   1   2  -2  822.39    2.97
   2   1  -2  840.54    2.92
  -2   1   2  831.35    2.95
  -1  -2  -2  824.25    2.27
   2   2  -1  812.79    3.04
  -2  -1  -2  844.26    3.26
   2  -2   1  830.42    3.82
  -2   0   2  112.54    1.03
   2   2   0  115.01    1.17
  -2   0  -2  116.23    1.33
   0  -2   2  116.93    1.13
  -2   2   0  110.24    1.30
   2   0   2  116.69    1.33
  -2  -2   0  116.08    1.15
   2   0  -2  112.95    1.05
   2  -2   0  114.88    1.36
  -2   1  -2  829.72    3.71
   1   2   2  858.68    2.47
  -2  -1   2  855.98    2.92
   2  -2  -1  862.38    3.41
  -2   2  -1  843.86    3.77
   2   1   2  844.22    3.21
  -1  -2   2  843.92    3.01
   2   2   2 2945.65    6.27
  -2  -2   2 2879.86    6.02
  -3   0   0    0.03    0.30
   0  -3   0    1.65    0.25
   0   3   0    0.64    0.20
   3   0   0    1.53    0.35
   1  -3   0  562.51    2.69
   0   1  -3  568.52    2.20
  -3   0   1  552.92    3.01
   3   0   1  554.30    3.15
   1   3   0  556.20    2.46
  -1  -3   0  569.98    2.48
   0  -1   3  561.10    2.29
  -1   3   0  574.10    2.59
   0  -2   3 3703.31    6.71
   2   3   0 3879.03    7.06
  -2   3   0 3891.27    8.02
   0   2  -3 3891.05    6.81
  -2  -3   0 3956.48    7.15
   3   0   2 3780.71    8.56
  -3   0  -2 3927.28    8.77
   3   0  -2 3891.73    7.84
  -3   0   2 4005.33    7.51
   2  -3   0 4010.48    8.50
   1  -2   3 8829.07   11.97
  -3  -1  -2 9032.48   12.74
   2  -3   1 9266.96   13.63
   2   3  -1 8677.86   11.03
  -3  -1  -1 3582.05    7.99
  -1   3   1 3540.80    5.85
   1   3  -1 3474.01    6.49
   1  -1   3 3530.69    6.98
   1   1  -3 3444.66    5.50
   3  -1   1 3601.36    8.51
  -1  -3  -1 3422.59    5.66
  -3   1   1 3609.25    7.78
   1   0  -3  863.92    2.21
   0   3   1  938.95    2.77
   3  -1   0  908.24    4.03
  -3   1   0  934.30    4.16
   0  -3   1  935.16    3.31
  -3  -1   0  896.11    3.80
   3   1   0  918.63    4.01
  -1   0  -3  942.21    3.13
   0   3  -1  903.23    3.20
  -1   0   3  928.20    2.34
   1   0   3  929.44    3.27
  -1   1  -3 3504.15    6.50
  -1   3  -1 3458.00    6.83
   1   3   1 3512.55    5.75
   1  -3  -1 3449.28    6.07
  -1  -1   3 3494.54    5.63
  -1  -3   1 3514.47    6.56
   2  -3  -1 8700.65   11.70
  -3  -1   2 8609.65   11.08
   2   3  -2  144.32    1.50
   2  -3   2  146.84    1.81
  -2  -2  -3  145.39    1.37
  -3  -2  -2  135.40    1.54
  -2   3   2  147.03    1.40
  -3   2   2  145.38    1.59
   3   2  -2  150.84    1.57
  -2   2   3  145.22    1.20
   2  -2   3  146.16    1.82
   3  -2   2  142.71    1.90
  -2  -2  -3  150.57    1.39
  -2  -3  -2  151.76    1.31
  -1   3   2 1568.05    3.43
  -2  -1  -3 1508.46    4.59
  -2   1   3 1525.15    3.49
  -3   2   1 1519.92    5.34
  -1  -3  -2 1501.48    3.47
   3  -2   1 1561.66    5.95
   2   1  -3 1562.90    4.06
  -3  -2  -1 1542.21    4.92
   0  -3   2 1134.45    3.97
   2   0  -3 1158.11    3.26
  -3   2   0 1168.77    5.00
  -2   0   3 1073.09    3.01
  -2   0  -3 1162.10    4.32
   0  -3  -2 1129.87    2.65
  -3  -2   0 1097.40    4.10
   3   2   0 1083.32    4.21
   0   3   2 1159.41    2.75
   3   2   1 1500.53    5.21
   2  -1  -3 1520.16    3.82
  -3  -2   1 1513.20    4.78
   3  -2  -1 1543.34    5.30
  -2  -1   3 1527.73    4.09
  -3   2  -1 1513.00    5.75
   1  -3  -2 1587.01    3.76
   1   3   2 1550.73    3.58
   2   1   3 1579.24    4.65
  -2   1  -3 1569.12    5.24
  -1  -3   2 1537.59    4.59
  -3  -2   2  144.55    1.50
  -2  -3   2  140.61    1.48
   3   2   2  143.73    1.71
  -2   3  -2  142.38    1.70
  -3   2  -2  139.14    1.82
   2  -2  -3  141.10    1.12
   2  -3  -2  144.78    1.43
   3  -2  -2  146.31    1.56
  -2  -2   3  148.43    1.46
  -2   2  -3  147.09    1.73
   2   3   2  147.48    1.41
  -3  -3  -3 5784.48    9.54
   3   3  -3 5821.24   10.24
   3   3  -2 1866.83    5.64
   2  -3   3 1802.72    6.55
  -3  -2  -3 1810.76    5.71
  -3   3   2 1841.02    5.82
  -3   2   3 1844.04    5.31
  -3  -3  -2 1865.64    5.46
   2   3  -3 1809.27    5.37
   3  -2   3 1863.40    7.05
  -2   3   3 1882.46    4.52
   3  -3   2 1840.36    7.05
  -2  -3  -3 1850.12    4.49
  -3   3   1 4261.08    9.23
  -3   1   3 4186.00    7.60
   3   3  -1 4174.97    8.38
   3  -3   1 4169.55   10.24
   1   3  -3 4212.06    8.01
  -3  -3  -1 4317.03    8.23
   3  -1   3 4087.62    9.80
  -3   0   3  737.17    3.11
   3   3   0  746.91    3.55
  -3   3   0  748.47    4.07
   0  -3   3  738.39    3.40
  -3  -3   0  743.99    3.44
   3   0   3  756.05    4.05
  -1   3  -3 4258.36    8.41
  -3   1  -3 4287.53    9.85
   1   3   3 4133.81    5.93
  -3  -1   3 4135.60    7.59
  -1  -3   3 4168.23    7.97
  -3  -3   1 4318.83    8.42
  -3   3  -1 4311.76   10.09
   3  -3  -1 4296.53    9.42
   3   1   3 4216.73    8.90
  -3   3  -2 1849.20    6.80
  -3   2  -3 1864.24    6.73
   2  -3  -3 1831.81    4.59
  -3  -3   2 1825.92    5.62
   3  -3  -2 1884.68    5.94
   3  -2  -3 1842.04    4.97
  -2   3  -3 1864.92    6.22
  -2  -3   3 1806.59    5.46
   2   3   3 1874.06    5.11
   3  -3  -3 5708.38    9.43
  -3  -3   3 5669.43   10.12
   0  -4   0 9999.00   11.47
   1   4   0    3.92    0.32
  -4   0   1    4.45    0.43
   0  -1   4    4.03    0.31
  -4   0  -1    3.20    0.51
  -1   4   0    3.54    0.34
  -1  -4   0    3.94    0.32
   4   0   1    3.79    0.44
   0   1  -4    3.66    0.28
   1  -4   0    4.35    0.40
  -4   0  -2  566.29    3.76
   2  -4   0  579.31    3.43
   4   0  -2  579.38    3.61
  -2  -4   0  557.10    2.92
  -2   4   0  557.88    3.17
  -4   0   2  569.71    3.39
   0  -2   4  573.61    2.90
   2   4   0  584.59    3.07
   4   0   2  565.79    3.73
   3  -4   0   68.65    1.35
  -4   0  -3   69.57    1.41
  -4   0   3   72.75    1.18
  -3   4   0   67.80    1.28
   3   4   0   71.15    1.17
   0  -3   4   68.63    1.13
   4   0  -3   71.36    1.24
  -3  -4   0   66.30    1.16
   4   0   3   70.60    1.42
   4  -1   3  508.37    3.84
  -1  -3  -4  504.50    1.76
   3   4  -1  505.75    3.08
  -4   1   3  495.37    3.12
  -3   4   1  489.12    3.23
   1   3  -4  506.60    2.90
   1  -3   4  500.58    3.26
   3  -4   1  493.10    3.64
  -4  -1  -3  494.98    3.48
   4   1  -3  511.73    3.15
  -3  -4  -1  508.85    2.92
  -4   1   3  509.22    3.17
  -2  -4  -1 1099.56    3.93
  -4  -1  -2 1105.75    5.08
   1  -2   4 1114.73    4.53
   2   4  -1 1114.31    4.30
   4  -1   2 1114.87    5.52
   4   1  -2 1110.96    4.82
  -4  -1  -1 1303.90    5.36
  -1  -4  -1 1283.64    3.93
   1   4  -1 1282.65    4.44
   1  -1   4 1325.54    4.61
   4   1  -1 1316.07    5.42
   4  -1   1 1266.90    5.57
   1  -4   1 1306.71    4.73
  -4  -1  -1 1324.20    5.61
  -1   4   1 1343.36    4.03
   1   1  -4 1310.15    3.66
  -1  -1  -4 1316.42    3.55
   1   0  -4 2141.13    3.89
   4  -1   0 2114.26    6.95
   1   0   4 2160.96    5.40
   0   4  -1 2187.86    5.70
   0   4   1 2159.67    4.94
   0  -4   1 2155.13    5.68
  -4  -1   0 2043.30    6.66
  -4   1   0 2150.37    7.17
   4   1   0 2147.02    7.19
   0  -4  -1 2199.71    5.02
  -1   0   4 2106.99    3.92
  -1   0  -4 2090.21    4.90
  -1   4  -1 1295.87    4.50
  -1  -4   1 1324.67    4.48
   1   4   1 1314.28    4.02
  -4  -1   1 1301.19    5.07
   1  -4  -1 1330.18    4.25
   4  -1  -1 1331.38    5.32
  -1  -1   4 1322.11    3.72
  -4  -1   2 1061.05    4.52
  -2  -4   1 1099.07    4.28
  -1   2  -4 1124.45    4.18
  -1  -2   4 1115.75    3.92
   4   1   2 1136.84    5.07
   2   4   1 1117.45    3.99
  -4   1  -2 1102.33    5.48
  -2   4  -1 1079.19    4.63
   2  -4  -1 1102.01    4.45
  -1   3  -4  497.22    3.01
  -1  -3   4  484.34    2.83
   3   4   1  503.88    3.06
  -3   4  -1  487.80    3.48
  -4  -1   3  494.39    3.01
  -4   1  -3  470.17    3.61
   3  -4  -1  493.01    3.40
  -3  -4   1  485.75    3.02
   1   3   4  490.30    2.13
  -3   4   2 1521.68    5.48
  -2  -3  -4 1524.39    4.11
   2  -3   4 1538.95    6.32
   3  -4   2 1533.68    6.75
  -4   2   3 1505.61    5.55
   2   3  -4 1521.33    5.12
  -3  -4  -2 1535.82    4.94
  -2   3   4 1542.41    3.70
  -4  -2  -3 1534.88    6.02
   4   2  -3 1527.78    5.54
   4  -2   3 1524.63    6.94
   2  -4   2   36.12    0.98
   2   2  -4   40.65    0.82
   4  -2   2   36.04    1.18
  -4   2   2   40.48    1.03
   4   2  -2   41.07    0.98
   2  -2   4   38.94    1.03
  -2  -4  -2   39.00    0.76
  -2  -2  -4   37.28    0.75
  -4  -2  -2   40.96    1.01
  -2  -2  -4   38.89    0.78
  -4  -2  -2   37.21    0.98
   2   4  -2   35.14    0.86
  -2   4   2   37.96    0.77
   1  -4   2 6323.25   10.98
   4  -2   1 6334.45   12.91
  -2  -1  -4 6071.26    9.41
  -1  -4  -2 6147.96    8.08
   2  -1   4 6325.93   11.50
   1   4  -2 6197.10   10.16
   4   2  -1 6353.04   11.42
  -4   2   1 6304.94   12.04
  -4  -2   0  574.31    3.40
   0   4   2  575.47    2.37
   0  -4   2  567.96    3.12
   2   0  -4  560.73    2.27
   4  -2   0  571.95    3.82
  -4   2   0  582.53    3.88
   2   0   4  552.83    3.21
  -2   0   4  570.08    2.30
  -2   0  -4  544.74    3.02
   4   2   0  584.52    3.66
   0   4  -2  527.47    2.91
  -2  -1   4 6060.77    8.52
   4  -2  -1 6352.85   11.95
  -1  -4   2 6241.70   10.18
   2   1   4 6194.63    9.68
  -1   4  -2 6221.67   10.33
  -4   2  -1 6508.69   13.14
  -4  -2   1 6276.32   11.03
   1  -4  -2 6163.40    8.46
   4   2   1 6223.31   12.17
  -2   2  -4   42.81    0.99
  -4   2  -2   38.96    1.12
  -2  -2   4   41.20    0.83
   2  -4  -2   38.55    0.85
  -2   4  -2   40.63    1.00
   4  -2  -2   38.39    0.94
  -2  -4   2   40.09    0.89
   2   4   2   41.70    0.80
  -4  -2   2   41.60    0.95
  -4   2  -3 1524.21    6.72
   3   4   2 1556.65    5.42
  -3  -4   2 1483.19    5.39
  -3   4  -2 1519.42    6.28
  -2  -3   4 1523.43    5.19
   4  -2  -3 1560.64    5.32
  -4  -2   3 1502.50    5.27
  -2   3  -4 1511.90    5.76
   3  -4  -2 1482.86    5.53
   2  -3  -4 1525.74    3.61
   4   3  -3  606.21    3.59
  -3  -4  -3  626.38    3.11
  -4   3   3  629.59    3.77
   3   4  -3  652.92    3.72
   4  -3   3  627.26    4.64
   3  -3   4  624.48    4.42
   3   3  -4  627.95    3.46
   3  -4   3  624.40    4.45
  -3   4   3  632.41    3.36
  -4  -3  -3  635.93    3.62
  -3   3   4  620.44    3.03
  -4   3   2  802.72    4.39
  -3   2   4  790.78    3.23
   3   2  -4  821.84    3.65
   4   3  -2  830.25    4.22
   2   4  -3  788.63    3.89
  -2  -4  -3  813.31    3.08
   4  -3   2  812.81    5.15
   3  -2   4  840.77    4.93
   2  -4   3  813.51    4.64
  -2   4   3  824.94    3.13
  -3   2   4  833.14    3.42
  -4  -3  -2  820.49    4.08
   3   1  -4 1579.16    4.81
  -1  -4  -3 1590.88    3.81
  -4  -3  -1 1551.02    5.63
   4   3  -1 1583.19    5.89
   3  -1   4 1573.75    6.42
  -3   1   4 1584.85    4.38
  -4   3   1 1563.12    6.36
   1  -4   3 1544.46    5.78
   4  -3   1 1537.86    6.77
  -1   4   3 1548.56    3.48
   1   4  -3 1546.40    5.29
  -4  -3   0  316.90    2.53
  -4   3   0  318.69    2.96
   3   0  -4  326.91    2.12
   4   3   0  314.39    2.63
   0   4  -3  311.40    2.35
   0  -4   3  310.95    2.44
   4  -3   0  311.25    2.96
  -3   0  -4  322.53    2.75
  -4  -3   1 1573.73    5.58
  -3   1  -4 1570.64    6.10
  -3  -1   4 1627.38    4.84
   1   4   3 1618.73    3.99
   3  -1  -4 1601.78    4.78
  -1   4  -3 1525.35    5.34
   3   1   4 1556.10    5.63
   1  -4  -3 1603.82    3.94
  -1  -4   3 1536.97    5.32
   4  -3  -1 1502.27    6.04
  -4   3  -1 1529.97    6.64
   4  -3  -2  826.74    4.36
  -2  -4   3  786.60    3.90
   4   3   2  793.01    4.42
   2   4   3  847.39    3.48
  -4   3  -2  835.58    4.99
  -2   4  -3  802.77    4.25
  -3  -2   4  814.83    3.69
   2  -4  -3  801.14    3.34
  -4  -3   2  798.75    3.98
  -3   2  -4  827.26    4.61
  -3   4  -3  632.41    4.15
   3   4   3  634.92    3.46
  -4  -3   3  611.10    3.57
  -3  -4   3  609.20    3.58
   4  -3  -3  615.45    3.55
   3  -4  -3  603.78    3.28
  -3   3  -4  605.38    4.05
   4   3   3  615.67    4.03
  -4   3  -3  615.68    4.34
  -3  -3   4  618.98    3.49
  -4  -4  -4 2839.98    7.50
   4  -4   4 2761.43   10.22
   4   4  -4 2778.76    7.94
  -4   4   4 2842.26    7.69
  -4  -3  -4  136.62    1.75
   3   4  -4  137.82    1.75
  -4  -3  -4  141.34    1.82
   4  -3   4  128.35    2.19
   3  -4   4  133.67    2.18
   4  -4   3  131.61    2.21
  -3  -4  -4  136.02    1.44
  -4  -4  -3  128.72    1.62
  -3   4   4  139.11    1.47
  -4   3   4  135.98    1.66
   4   4  -3  134.34    1.78
   4   2  -4  283.71    2.40
  -4   2   4  270.69    2.27
  -4  -2  -4  270.09    2.56
   2   4  -4  284.83    2.43
   4  -2   4  281.16    3.08
  -4  -4  -2  278.27    2.37
   4   4  -2  280.99    2.54
  -4   2   4  281.84    2.35
  -2   4   4  277.58    1.63
   2  -4   4  281.37    2.87
   4  -4   2  283.78    3.15
  -2  -4  -4  271.43    1.73
  -4   4   2  280.07    2.65
  -4   1   4  702.19    3.39
   1  -4   4  762.71    4.28
  -1  -4  -4  722.37    2.35
  -4  -4  -1  733.45    3.82
  -4  -1  -4  739.17    4.34
  -1   4   4  734.56    2.07
   4  -1   4  756.62    4.88
   4  -4   1  747.68    4.91
   4   4  -1  744.29    4.10
   1   4  -4  729.95    3.77
  -4   4   1  731.36    4.42
   4   1  -4  756.83    3.83
  -4   0  -4 5461.54   11.94
   4   4   0 5455.52   11.00
  -4   4   0 5418.91   12.18
   0   4  -4 5615.36   10.26
  -4  -4   0 5570.57   10.54
   4   0  -4 5598.45   10.27
   4   0   4 5442.28   12.26
   0  -4   4 5454.87   10.46
  -4   0   4 5376.37    9.37
   4  -4   0 5683.41   12.97
  -4   1  -4  747.36    4.64
  -1   4  -4  728.36    3.86
  -4  -1   4  730.35    3.58
  -4  -4   1  721.46    3.91
   4  -4  -1  760.07    4.60
   1  -4  -4  745.33    2.41
   1   4   4  747.65    2.70
   4   4   1  737.88    4.16
   4   1   4  722.98    4.27
  -4   4  -1  740.33    4.72
  -4   4  -2  272.69    2.94
   2   4   4  285.12    2.06
   2  -4  -4  275.73    1.80
  -2  -4   4  272.87    2.39
   4   4   2  279.55    2.56
  -4  -4   2  275.42    2.51
  -4   2  -4  275.74    2.92
   4  -4  -2  289.37    2.76
  -2   4  -4  279.32    2.59
  -4   4  -3  133.06    2.12
  -4   3  -4  129.98    2.10
  -4  -3   4  132.28    1.72
   4  -4  -3  138.70    1.80
  -3   4  -4  135.19    1.97
   4  -3  -4  136.67    1.58
   3   4   4  137.04    1.70
   4   4   3  133.65    1.88
   3  -4  -4  136.94    1.48
  -3  -4   4  134.29    1.76
  -4  -4   3  131.65    1.79
   4   4   4 2781.40    8.51
  -4  -4   4 2768.74    8.07
   0   5   0    0.02    0.32
   0  -5   0    0.44    0.33
   5   0   0   -0.07    0.44
   0   0   5    0.04    0.19
   0   0  -5    0.49    0.18
   0   1   5  668.67    2.35
   5   0   1  653.19    4.24
   0   1  -5  680.76    2.83
   0  -1   5  652.48    2.99
  -1  -5   0  643.13    3.25
   1  -5   0  677.71    3.55
  -5   0   1  623.43    4.14
  -5   0   1  681.94    4.23
  -5   0  -1  648.25    4.36
   1   5   0  646.95    3.31
   2   5   0 8075.65   12.06
  -5   0  -2 8561.23   15.98
  -5   0   2 8508.00   14.64
  -5   0   2 8627.63   14.71
  -2  -5   0 8217.08   12.13
   2  -5   0 8302.83   13.70
  -2   5   0 8263.70   12.75
   0  -2   5 8143.05   11.57
   5   0   3  214.58    2.61
   3   5   0  208.38    2.05
  -3  -5   0  210.86    2.06
  -5   0   3  207.70    2.18
   0  -3   5  206.84    2.03
  -3   5   0  202.77    2.25
  -5   0  -3  212.85    2.61
   0   3  -5  219.16    2.00
   5   0  -3  215.45    2.42
   4  -5   0 1155.14    6.12
  -4   5   0 1132.81    5.72
  -5   0   4 1113.56    4.90
   4   5   0 1151.79    5.21
   0  -4   5 1127.66    5.05
   0   4  -5 1117.65    4.73
  -4  -5   0 1172.42    5.09
   5   0   4 1127.89    6.00
  -5   0  -4 1148.59    6.11
   5   0  -4 1159.49    5.37
   1   4  -5  393.14    2.87
  -5  -1  -4  389.71    3.48
  -1  -4  -5  386.73    1.59
   5   1  -4  401.64    3.09
  -4  -5  -1  370.67    2.81
   4  -5   1  385.32    3.64
   5  -1   4  359.12    3.56
  -4   5   1  388.80    3.26
  -3   5   1  376.41    2.94
   5  -1   3  363.16    3.51
   1  -3   5  357.43    2.88
  -5   1   3  388.56    3.16
   5   1  -3  368.33    3.06
  -1  -3  -5  372.92    1.54
  -1  -3  -5  362.18    1.74
  -3  -5  -1  351.64    2.53
  -5   1   3  375.55    3.08
  -5  -1  -3  368.00    3.31
   1   3  -5  367.14    2.56
   5   1  -2  251.93    2.64
   5  -1   2  244.76    2.79
   1   2  -5  249.41    1.93
  -5   1   2  245.41    2.64
   1  -2   5  241.90    2.26
   2  -5   1  253.04    2.54
  -2  -5  -1  249.56    2.04
  -5   1   2  247.36    2.59
  -2   5   1  248.45    2.12
  -5  -1  -2  248.98    2.68
   2   5  -1  240.32    2.15
  -1  -2  -5  249.00    1.50
   5   1  -1  198.68    2.43
   1   1  -5  210.08    1.58
  -1  -1  -5  197.05    1.43
  -1   1   5  198.07    1.04
  -1   5   1  198.15    1.73
   1  -1   5  199.32    1.92
  -5   1   1  199.56    2.40
  -1  -5  -1  196.43    1.73
   1  -5   1  196.35    2.03
   5  -1   1  194.67    2.46
  -5  -1  -1  196.43    2.36
  -5  -1  -1  209.09    2.50
   1   0  -5  397.19    1.82
   5  -1   0  396.62    3.33
  -5   1   0  402.20    3.43
  -1   0  -5  401.65    2.21
  -5  -1   0  390.31    3.30
   0  -5  -1  378.94    2.32
   0   5  -1  407.00    2.70
   1   0   5  397.35    2.50
   0   5   1  387.03    2.36
  -5  -1   0  405.94    3.30
   1   5   1  199.42    1.76
   1  -1  -5  205.12    1.03
  -5  -1   1  198.17    2.27
  -5   1  -1  196.11    2.47
  -1   5  -1  201.17    1.97
  -1  -5   1  203.65    1.94
   1  -5  -1  207.93    1.87
   5  -1  -1  203.42    2.29
  -2  -5   1  245.15    2.20
  -1   2  -5  245.24    2.04
   5   1   2  245.45    2.64
  -2   5  -1  248.89    2.32
  -5   1  -2  245.55    2.83
   1   2   5  255.07    1.52
   2  -5  -1  245.19    2.28
  -5  -1   2  237.30    2.37
   2   5   1  254.98    2.09
  -5   1  -3  368.11    3.52
  -5  -1   3  357.46    2.87
   5   1   3  372.11    3.27
  -3   5  -1  366.42    3.08
  -3  -5   1  368.97    2.81
   3  -5  -1  375.51    3.07
  -1  -3   5  368.60    2.63
   3   5   1  380.62    2.75
  -1   3  -5  363.33    2.63
   1   4   5  377.36    1.95
  -4   5  -1  375.79    3.42
  -1   4  -5  380.66    2.89
  -1  -4   5  373.87    2.87
  -4  -5   1  373.13    2.92
   4   5   1  394.79    3.04
   4  -5  -1  384.78    3.42
  -5  -1   4  382.35    2.88
  -5   1  -4  369.52    3.50
   5   1   4  386.24    3.43
  -2   4   5  566.03    1.98
   4   5  -2  567.14    3.69
  -4  -5  -2  565.21    3.35
  -5  -2  -4  578.20    4.17
   5   2  -4  574.93    3.77
  -5   2   4  564.90    3.68
   2   4  -5  569.80    3.48
   2  -4   5  575.69    4.20
  -5  -2  -4  586.37    4.11
   4  -5   2  592.87    4.66
  -4   5   2  573.47    3.86
  -2  -4  -5  568.12    2.42
  -5   2   4  561.76    3.72
  -2  -3  -5 4798.81    7.99
   2  -3   5 4888.16   11.65
  -5  -2  -3 4981.14   11.78
  -3   5   2 5033.31   10.15
   2   3  -5 4967.48    9.56
  -3  -5  -2 5098.33    9.38
   5  -2   3 4848.87   13.16
  -5   2   3 4948.60   11.28
   3   5  -2 4993.10   10.53
  -2  -3  -5 4854.40    7.56
   3  -5   2 5069.63   12.53
  -5  -2  -3 5002.37   11.94
   5   2  -3 5084.98   11.14
   2   2  -5  421.14    2.56
  -2  -5  -2  412.42    2.48
  -5   2   2  421.05    3.43
   2   5  -2  400.93    2.90
   2  -5   2  396.27    3.27
  -5  -2  -2  426.05    3.48
  -2  -2  -5  414.63    2.45
  -5  -2  -2  417.41    3.37
   5   2  -2  420.25    3.28
   2  -2   5  421.47    3.32
  -1  -5  -2 3242.12    6.54
   5   2  -1 3269.97    9.42
  -5   2   1 3217.74    9.69
  -1   5   2 3190.19    6.40
  -2  -1  -5 3235.24    7.15
   1  -5   2 3200.33    8.48
   2  -1   5 3243.34    8.66
   5  -2   1 3260.46   10.21
   1   5  -2 3220.59    7.99
  -2   1   5 3155.36    4.80
   2   0   5 1038.28    4.72
  -2   0   5  942.69    3.07
   0   5   2  955.22    3.48
  -5   2   0  962.63    5.44
   5   2   0 1001.84    5.37
   5  -2   0  950.64    5.26
   0   5  -2  967.97    4.34
  -5  -2   0  914.07    4.69
   2   0  -5  970.66    3.06
   0  -5   2  956.03    4.38
   0  -5  -2  983.90    3.50
   5  -2  -1 3270.87    9.44
   2   1   5 3262.69    7.52
  -2  -1   5 3243.37    6.47
  -1   5  -2 3230.84    8.08
  -5   2  -1 3232.53   10.18
  -2   1  -5 3217.86    7.89
  -5  -2   1 3183.67    8.79
   5   2   1 3094.36    9.71
   2  -1  -5 3114.29    5.09
   1   5   2 3243.68    6.64
   1  -5  -2 3269.88    6.84
  -1  -5   2 3203.63    7.95
  -5   2  -2  404.15    3.70
   5  -2  -2  414.41    3.23
   2   2   5  417.67    2.42
   2   5   2  415.17    2.55
  -2   2  -5  420.76    2.98
  -5  -2   2  412.94    3.09
  -2   5  -2  413.06    3.09
  -2  -5   2  408.57    2.91
  -2  -2   5  420.48    2.61
   2  -5  -2  409.22    2.77
   3  -5  -2 4992.37   10.70
  -2   3  -5 5083.20   10.67
  -5   2  -3 4773.27   12.69
  -3  -5   2 4838.31   10.34
  -5  -2   3 4731.26   10.33
  -2  -3   5 4866.79    9.53
   3   5   2 4927.49    9.79
  -3   5  -2 4859.31   11.43
   4  -5  -2  579.17    4.10
  -4   5  -2  564.07    4.27
  -2   4  -5  559.70    3.71
   2  -4  -5  558.02    2.15
  -2  -4   5  584.23    3.59
   4   5   2  581.77    3.78
   2   4   5  549.27    2.95
  -5  -2   4  560.86    3.50
  -4  -5   2  561.94    3.67
   3   4  -5  380.57    2.91
   5  -3   4  388.36    4.00
  -3  -4  -5  376.15    2.59
  -4   5   3  377.01    3.01
   4  -5   3  362.42    3.74
  -4  -5  -3  376.04    2.71
  -5  -3  -4  384.12    3.30
  -5   3   4  369.49    3.09
  -3   4   5  384.80    2.26
  -5  -3  -4  372.46    3.17
  -3  -4  -5  366.70    2.37
   5   3  -4  373.16    3.05
   3  -4   5  364.73    3.62
   3  -5   3  302.07    3.21
  -3  -5  -3  299.44    2.21
  -3   5   3  301.17    2.37
   3   3  -5  300.23    2.45
  -3  -3  -5  292.37    2.25
  -5   3   3  281.49    2.73
  -3   3   5  306.85    2.04
  -5  -3  -3  304.55    2.84
   3  -3   5  281.73    3.03
   5   3  -3  295.88    2.77
  -3   3   5  296.12    1.90
  -5  -3  -3  298.50    2.87
   5  -3   3  295.57    3.43
   3   5  -3  289.23    2.56
   3   2  -5  132.27    1.53
  -3   2   5  133.99    1.34
  -5   3   2  132.47    2.03
   5  -3   2  121.28    2.16
  -2   5   3  117.90    1.28
   2  -5   3  126.29    1.97
  -5  -3  -2  121.11    1.74
  -2  -5  -3  127.75    1.33
   5   3  -2  132.49    1.91
  -3   2   5  126.97    1.17
   2   5  -3  123.23    1.69
   3  -2   5  124.98    2.03
   5  -3   1  366.07    3.60
  -5   3   1  364.95    3.36
   1   5  -3  374.74    2.82
  -5  -3  -1  369.06    3.03
  -1   5   3  384.11    2.05
  -3  -1  -5  368.18    2.80
  -3   1   5  357.63    1.97
   3  -1   5  383.99    3.34
   5   3  -1  370.47    3.14
   1  -5   3  370.93    3.04
   0  -5   3  228.62    2.27
  -3   0   5  240.06    1.75
   0   5  -3  228.73    2.20
   0   5   3  231.30    1.61
  -3   0  -5  234.38    2.34
  -5   3   0  241.06    2.89
   3   0   5  242.15    2.52
   0  -5  -3  233.36    1.58
  -5  -3   0  222.83    2.35
   5   3   1  342.97    3.17
  -3  -1   5  359.30    2.32
  -3   1  -5  375.88    3.05
  -5   3  -1  360.33    3.48
   3   1   5  363.88    2.81
  -1  -5   3  358.29    2.78
   3  -1  -5  363.80    2.20
  -5  -3   1  359.90    2.95
   1   5   3  371.77    2.15
   5  -3  -1  376.11    3.37
   3   2   5  130.62    1.60
  -3   2  -5  132.11    1.90
  -3  -2   5  133.21    1.57
   5   3   2  133.34    2.08
   5  -3  -2  124.15    1.88
  -2  -5   3  127.28    1.70
   2   5   3  131.00    1.43
   2  -5  -3  134.05    1.52
  -5  -3   2  134.25    1.83
  -2   5  -3  130.77    1.83
  -3  -3   5  286.69    2.42
   5  -3  -3  299.83    2.71
   3   5   3  299.41    2.45
  -5   3  -3  307.10    3.33
  -5  -3   3  296.16    2.63
  -3   5  -3  294.26    2.91
   3  -5  -3  305.92    2.53
  -3   3  -5  296.32    2.88
  -3  -5   3  291.22    2.62
  -4   5  -3  350.84    3.40
   4  -5  -3  359.42    2.95
   3  -4  -5  378.82    2.16
   4   5   3  372.84    2.98
  -3   4  -5  364.37    3.21
  -3  -4   5  376.22    2.95
  -4  -5   3  379.85    3.10
   5  -3  -4  367.14    2.82
   5   4  -4  539.23    3.75
  -4  -4  -5  533.58    3.43
  -5  -4  -4  524.65    3.53
  -5   4   4  524.34    3.70
   5  -4   4  539.00    4.82
  -4   4   5  543.16    3.24
   4  -4   5  524.09    4.56
  -4  -4  -5  532.84    3.21
   4  -5   4  520.69    4.52
  -4   5   4  539.60    3.42
  -4  -5  -4  534.29    3.18
  -4  -3  -5  818.56    4.37
   5  -4   3  801.15    5.68
  -4   3   5  806.60    3.77
  -3   5   4  821.64    3.62
   3  -5   4  804.75    5.33
   4   3  -5  803.40    4.11
  -3  -5  -4  813.83    3.48
  -4  -3  -5  804.16    4.25
  -4   3   5  807.90    3.87
  -5  -4  -3  814.29    4.46
  -5   4   2 3929.88   10.79
   2   5  -4 3856.50    9.38
  -4   2   5 3919.83    7.70
  -5  -4  -2 3747.97    9.44
  -2  -5  -4 3724.02    6.64
   4   2  -5 3903.25    8.75
  -4   2   5 3859.18    8.30
  -4  -2  -5 3891.59    9.73
  -2   5   4 3772.27    6.37
   2  -5   4 3790.57   10.76
   5   4  -2 3841.95    9.95
   5  -4   2 3940.93   12.61
   4  -1   5  735.09    4.95
   4   1  -5  726.44    3.67
  -4   1   5  724.29    3.29
  -1  -5  -4  732.63    2.70
  -5  -4  -1  746.60    4.26
  -5   4   1  734.73    4.82
   1   5  -4  727.87    4.03
   5   4  -1  750.58    4.54
  -4  -1  -5  744.34    4.46
  -1   5   4  720.49    2.50
   1  -5   4  708.61    4.28
  -5   4   0   73.01    1.62
   0  -5  -4   71.25    0.80
   5  -4   0   69.98    1.66
   0   5   4   75.87    0.85
  -5  -4   0   72.78    1.37
   0  -5   4   69.18    1.30
   4   0  -5   69.59    1.14
   0   5  -4   73.34    1.31
  -4   0  -5   77.55    1.58
   4   0   5   69.08    1.51
   5   4   0   74.17    1.48
  -5   4  -1  754.71    5.09
   5  -4  -1  705.31    4.76
   4   1   5  751.56    4.46
   1  -5  -4  748.67    2.81
   5   4   1  751.38    4.57
  -5  -4   1  718.01    4.16
  -4   1  -5  719.34    4.63
  -4   2  -5 3908.55   10.89
   2  -5  -4 3865.97    7.40
   5  -4  -2 3901.08   10.66
  -4  -2   5 3857.85    8.60
  -5  -4   2 3828.14    9.69
  -5   4  -2 3851.53   11.66
   2   5   4 3886.56    7.68
   5   4   2 3939.25   10.74
  -2  -5   4 3876.74    9.49
   4   2   5 3833.63    9.48
  -2   5  -4 3843.08    9.82
   3  -5  -4  816.66    3.84
  -3  -5   4  829.27    4.50
  -5  -4   3  813.06    4.53
   5   4   3  800.07    4.94
   3   5   4  832.64    4.03
  -4  -3   5  808.75    4.22
  -4   3  -5  819.47    5.10
   5  -4  -3  803.44    4.59
  -4  -4   5  535.41    3.64
  -4  -5   4  528.52    3.73
   4  -5  -4  537.41    3.42
  -4   5  -4  506.52    4.10
  -5   4  -4  535.72    4.50
   5   4   4  536.03    4.12
  -4   4  -5  537.17    4.22
   4  -4  -5  524.30    2.92
   4   5   4  552.15    3.76
  -5  -4   4  514.47    3.61
   5  -4  -4  530.79    3.52
   5  -5   5  206.96    3.18
  -5  -5  -5  202.09    2.17
   5   5  -5  203.34    2.38
   4  -5   5  283.34    3.50
   5  -5   4  290.46    3.68
  -5   4   5  276.93    2.56
  -5   5   4  285.62    2.78
  -4   5   5  293.33    2.37
   5   4  -5  290.64    2.76
   5  -4   5  286.53    3.61
  -5  -4  -5  282.38    2.60
  -5  -4  -5  290.82    2.79
   4   5  -5  293.49    2.79
  -4  -5  -5  282.79    2.29
  -5  -5  -4  288.39    2.57
   5   5  -3  281.75    2.80
  -5  -5  -3  284.28    2.60
   5  -3   5  291.73    3.62
  -3   5   5  277.22    1.94
  -5   3   5  268.02    2.49
  -5  -3  -5  281.58    2.82
   3  -5   5  270.09    3.21
  -5   5   3  266.52    2.78
  -5   3   5  277.96    2.58
  -5  -3  -5  279.12    2.78
  -3  -5  -5  270.08    1.97
   3   5  -5  272.82    2.61
  -2  -5  -5  210.77    1.53
   5   2  -5  201.58    2.24
   5  -2   5  201.15    2.86
   2  -5   5  206.44    2.62
  -5   5   2  208.73    2.56
   5  -5   2  206.12    2.95
   5   5  -2  207.83    2.42
  -5  -5  -2  212.19    2.27
  -5  -2  -5  202.59    2.47
  -5   2   5  194.26    2.02
  -2   5   5  198.77    1.28
   5   1  -5  161.35    1.95
   5   5  -1  158.21    2.14
   1  -5   5  155.69    2.12
  -5  -5  -1  165.47    2.04
  -5   5   1  156.98    2.28
  -5   1   5  152.89    1.76
  -1   5   5  161.29    1.04
  -1  -5  -5  165.25    1.19
   5  -5   1  156.20    2.52
  -5  -1  -5  161.90    2.28
   5   0  -5  457.81    3.28
   0   5  -5  449.63    3.25
  -5   0  -5  448.26    3.83
   5   5   0  452.01    3.60
  -5   5   0  438.55    3.90
  -5   0   5  441.92    2.98
  -5  -5   0  430.84    3.24
   5   0   5  437.68    3.86
   0   5   5  443.66    1.79
   0  -5   5  443.50    3.39
   5   1   5  159.32    2.26
   5  -1  -5  157.99    2.00
  -5  -1   5  162.70    1.86
   1   5   5  163.55    1.34
   5   5   1  161.19    2.18
  -1  -5   5  160.36    2.02
  -5   1  -5  159.91    2.39
   5  -5  -1  163.52    2.41
   1  -5  -5  158.99    1.18
   5  -5  -2  204.23    2.59
  -5  -5   2  205.46    2.40
  -2  -5   5  207.33    2.29
   2  -5  -5  205.03    1.58
  -5   5  -2  202.67    2.75
   5   5   2  202.90    2.41
  -5   2  -5  196.12    2.66
  -3   5  -5  265.52    2.81
  -5  -5   3  267.58    2.72
  -5  -3   5  265.55    2.54
   3  -5  -5  275.55    2.04
  -5   3  -5  264.40    3.13
   5  -5  -3  267.03    2.77
  -5   5  -3  266.85    3.18
  -3  -5   5  273.01    2.66
   3   5   5  272.30    2.39
   5   5   3  270.52    2.86
  -5  -4   5  280.68    2.75
  -4  -5   5  281.00    2.76
  -4   5  -5  284.14    3.09
   5  -4  -5  288.83    2.43
   5   5   4  284.22    2.98
  -5   5  -4  279.40    3.28
   4  -5  -5  278.69    2.28
   5  -5  -4  281.94    2.69
  -5   4  -5  280.87    3.25
  -5  -5   4  280.09    2.78
   4   5   5  287.36    2.75
   5   5   5  201.72    2.57
  -5   5  -5  198.55    2.77
   0   0   6 2838.16    6.08
  -6   0   0 2936.62    9.77
   0   6   0 2878.97    7.36
   0   0  -6 2958.17    5.39
  -1  -6   0  700.56    3.68
   0   1   6  698.21    2.70
   1   6   0  669.53    3.62
   0  -1   6  688.51    3.29
  -1   6   0  676.94    3.63
   6   0   1  688.32    4.67
   0  -1  -6  711.64    2.19
  -6   0  -1  690.16    4.88
  -6   0   1  695.83    4.74
  -6   0   1  687.35    4.73
   1  -6   0  699.51    3.86
  -6   0   2  164.39    2.26
   2  -6   0  169.27    2.08
   6   0   2  162.32    2.37
  -2   6   0  160.64    1.89
   0  -2   6  164.86    1.77
  -6   0  -2  168.69    2.49
   2   6   0  166.80    1.87
  -6   0   2  164.72    2.29
  -2  -6   0  161.06    1.85
   0  -3   6  766.30    4.04
  -6   0  -3  770.36    5.31
   6   0   3  775.15    5.21
  -3  -6   0  773.02    4.13
   0   3  -6  782.42    3.85
  -4  -6   0 1201.15    5.35
  -4   6   0 1193.85    5.96
   6   0  -4 1235.70    6.11
   4  -6   0 1209.63    6.41
  -6   0  -4 1177.86    6.42
  -6   0   4 1185.33    5.47
   0  -4   6 1178.67    5.34
   0   4  -6 1192.54    5.01
   6   0   4 1213.02    6.62
   5   6   0  308.59    3.01
  -5  -6   0  319.99    2.96
  -6   0   5  296.63    2.68
   5  -6   0  314.19    3.50
   6   0   5  299.18    3.42
  -5   6   0  303.00    3.23
   0  -5   6  305.66    2.91
   0   5  -6  310.63    2.78
   0   5   6  301.50    1.36
   0  -5  -6  296.27    1.19
   6   0  -5  297.20    2.94
   6   1  -5  818.21    4.79
   1  -5   6  806.05    4.94
  -5   6   1  837.40    5.21
  -1  -5  -6  844.51    2.40
   5   6  -1  844.50    4.93
   1   5  -6  840.92    4.54
  -6   1   5  820.50    4.42
   6  -1   5  811.86    5.75
   5  -6   1  810.55    5.74
   4   6  -1 1365.27    5.84
   1   4  -6 1339.28    5.39
  -4   6   1 1336.93    6.11
   6   1  -4 1342.57    6.27
  -6   1   4 1365.28    6.21
  -4  -6  -1 1338.69    5.47
   6  -1   4 1382.30    7.32
  -6   1   4 1272.72    5.80
  -6  -1  -4 1432.03    7.07
   1  -4   6 1321.68    6.07
  -1  -4  -6 1347.16    3.32
   4  -6   1 1315.27    6.80
   6   1  -3  304.75    3.11
   1  -3   6  306.94    2.79
   6  -1   3  296.37    3.32
   1   3  -6  301.60    2.39
  -6   1   3  304.67    3.04
   3  -6   1  297.45    3.08
  -3  -6  -1  305.14    2.50
  -6  -1  -3  308.53    3.28
  -1  -3  -6  298.46    1.58
  -6   1   3  311.09    3.10
   3   6  -1  318.02    2.80
   1  -2   6   95.58    1.53
   1   2  -6   98.75    1.27
  -2  -6  -1   93.90    1.38
  -2   6   1   93.24    1.40
  -6   1   2   94.42    1.81
  -1  -2  -6   89.92    0.93
   6   1  -2   91.39    1.76
   2   6  -1   93.62    1.47
  -6   1   2   91.36    1.76
  -6  -1  -2   92.73    1.84
   2  -6   1   91.51    1.62
   6  -1   2   91.14    1.88
  -6  -1  -1 1006.75    5.74
  -6   1   1 1011.72    5.81
   1  -1   6 1007.18    4.51
   6   1  -1  967.12    5.73
   1   6  -1 1014.42    4.64
  -1  -6  -1  953.21    4.06
   6  -1   1  969.92    5.71
  -6  -1  -1 1000.32    5.85
  -1   1   6  992.04    2.63
   1  -6   1 1013.65    4.85
  -1  -1  -6 1015.76    3.29
   6  -1   0 2506.63    8.95
   0  -6  -1 2620.46    6.70
  -1   0   6 2586.64    5.17
  -1   0  -6 2612.71    5.75
   1   0   6 2575.92    6.64
   0  -6   1 2591.64    7.40
   0   6   1 2541.27    6.63
   1   0  -6 2598.43    4.98
  -6   1   0 2526.12    9.19
  -6  -1   0 2550.00    8.89
   0   6  -1 2522.61    7.16
  -6  -1   0 2550.15    9.04
  -1   6  -1  976.45    4.50
   1  -1  -6  991.61    2.49
  -1  -1   6  985.51    3.65
  -6  -1   1  980.51    5.46
   1   1   6  980.86    3.74
  -1   1  -6  996.97    3.87
   1  -6  -1 1001.85    4.37
  -6   1  -1  979.29    5.92
   1   6   1  975.85    4.20
   6  -1  -1  973.43    5.38
  -1  -6   1  968.85    4.50
  -1  -2   6   90.48    1.26
  -6  -1   2   98.00    1.72
   2   6   1   93.78    1.39
   1   2   6   96.55    1.03
  -1   2  -6   96.06    1.34
  -2   6  -1   93.96    1.53
   2  -6  -1   92.63    1.52
  -6   1  -2   92.51    1.93
  -2  -6   1   95.06    1.47
  -1  -3   6  295.32    2.43
  -3  -6   1  305.08    2.67
  -6  -1   3  305.50    2.90
  -3   6  -1  315.85    2.93
   3  -6  -1  302.29    2.92
   3   6   1  318.10    2.61
   6   1   3  306.61    3.18
  -1   3  -6  315.08    2.53
  -4  -6   1 1298.33    5.67
   4   6   1 1371.19    5.81
   6   1   4 1300.97    6.62
  -1  -4   6 1317.30    5.46
   4  -6  -1 1361.47    6.54
  -4   6  -1 1330.88    6.42
  -6  -1   4 1288.85    5.66
  -5  -6   1  810.55    4.66
   5  -6  -1  790.74    5.30
  -5   6  -1  816.23    5.40
   5   6   1  789.67    4.75
   1   5   6  832.62    2.99
  -1   5  -6  813.72    4.48
   6   1   5  795.29    5.25
  -6  -1   5  841.54    4.51
  -2   5   6 1012.94    2.37
   5   6  -2 1000.65    5.35
  -6   2   5  936.95    4.89
   5  -6   2 1024.91    6.57
  -5  -6  -2  989.61    4.82
   2   5  -6 1001.68    5.00
  -2  -5  -6 1002.61    3.13
   6  -2   5  938.87    6.23
  -6   2   5  997.28    5.26
   2  -5   6 1000.68    5.91
  -6  -2  -5  995.44    5.80
  -5   6   2 1041.05    5.70
  -2  -4  -6   96.49    1.15
  -4   6   2   92.02    1.60
  -4  -6  -2   87.83    1.45
  -6   2   4   96.85    1.76
  -6  -2  -4   91.75    1.84
  -6  -2  -4   92.61    1.84
  -2  -4  -6   92.76    0.98
  -6   2   4   90.59    1.68
   6   2  -4   94.50    1.68
   2  -4   6   91.60    1.76
   4  -6   2   90.07    1.95
   4   6  -2   96.71    1.66
  -3  -6  -2  257.68    2.24
   6  -2   3  246.96    3.16
   3   6  -2  251.60    2.46
  -6  -2  -3  246.70    2.91
  -2  -3  -6  251.36    1.79
   2  -3   6  257.90    2.82
  -2  -3  -6  254.87    1.89
  -6   2   3  251.18    2.81
   2   3  -6  259.31    2.26
   6  -2   2 1272.55    6.94
  -2   2   6 1327.24    2.65
   2  -6   2 1263.73    6.04
   2  -2   6 1310.66    6.02
  -2   6   2 1322.16    4.81
  -6  -2  -2 1329.00    6.49
   2   2  -6 1321.46    4.63
  -2  -2  -6 1317.27    4.46
   2   6  -2 1299.38    5.50
  -6  -2  -2 1274.57    6.44
  -6   2   2 1338.98    6.59
   6   2  -2 1319.37    6.46
  -2  -6  -2 1330.01    4.80
  -2   1   6 1387.51    3.33
  -1  -6  -2 1409.11    4.69
  -6  -2  -1 1388.43    6.59
   2  -1   6 1369.72    5.84
   2   1  -6 1407.47    4.35
   6  -2   1 1364.92    6.94
  -6   2   1 1384.54    6.92
   6   2  -1 1353.02    6.71
  -1   6   2 1429.39    4.74
   1   6  -2 1385.48    5.60
  -2  -1  -6 1380.39    4.67
   1  -6   2 1380.20    5.88
  -6  -2  -1 1341.72    6.46
  -2   0  -6  171.70    1.78
  -6   2   0  157.62    2.40
   6   2   0  170.71    2.49
   0  -6   2  163.86    1.99
   0   6  -2  162.72    1.92
   2   0   6  167.28    1.95
   6  -2   0  161.50    2.38
  -2   0   6  163.93    1.36
   0   6   2  167.70    1.64
  -6  -2   0  160.76    2.19
   0  -6  -2  158.80    1.58
  -6  -2   1 1377.85    6.21
   1   6   2 1386.90    4.75
   1  -6  -2 1410.70    4.92
  -2  -1   6 1378.06    4.38
   6  -2  -1 1406.82    6.66
  -2   1  -6 1333.55    5.11
   2   1   6 1373.51    5.07
   2  -1  -6 1394.42    3.41
  -1   6  -2 1321.56    5.41
  -1  -6   2 1412.61    5.64
  -6   2  -2 1236.16    6.74
   2   2   6 1308.48    4.44
  -6  -2   2 1275.53    5.95
   2  -6  -2 1302.85    5.22
  -2  -6   2 1301.33    5.51
  -2   6  -2 1301.43    5.68
   2  -2  -6 1292.72    3.08
   6  -2  -2 1308.18    6.17
  -2  -2   6 1348.99    4.80
  -3  -6   2  259.75    2.54
  -2   3  -6  259.14    2.47
  -3   6  -2  246.23    2.64
   3  -6  -2  264.90    2.61
  -6  -2   3  255.12    2.64
  -2  -3   6  252.07    2.25
   3   6   2  258.52    2.32
   6  -2  -3  267.02    2.72
  -2  -4   6   95.96    1.54
  -6   2  -4   93.72    2.03
  -4  -6   2   98.00    1.68
  -6  -2   4   97.29    1.64
   4   6   2   95.18    1.57
   2  -5  -6 1005.48    2.87
  -2  -5   6  958.16    4.87
  -5  -6   2 1007.04    5.31
   5   6   2  999.16    5.41
   5  -6  -2  973.69    5.65
  -5   6  -2  995.92    6.05
  -6  -2   5  992.20    4.91
   2   5   6  975.95    3.92
   6   2   5  997.30    5.70
  -2   5  -6  992.65    5.19
  -5   6   3 1242.34    5.99
  -6  -3  -5 1284.43    6.43
  -5  -6  -3 1251.41    5.30
   5   6  -3 1286.76    6.09
  -6   3   5 1224.52    5.87
   3   5  -6 1249.98    5.58
  -6   3   5 1251.41    5.86
  -3  -5  -6 1257.71    4.12
   3  -5   6 1242.69    6.93
   6   3  -5 1260.11    6.02
   6  -3   5 1252.45    7.58
   5  -6   3 1275.45    7.51
  -3   5   6 1241.20    3.64
  -6  -3  -5 1257.97    6.30
   6  -3   4  475.16    4.64
  -4   6   3  483.40    3.41
   3  -4   6  479.21    4.25
  -6   3   4  482.30    3.86
  -3  -4  -6  475.02    2.63
   6   3  -4  481.25    3.79
  -6  -3  -4  487.32    3.98
  -3   4   6  480.36    2.30
  -3  -4  -6  480.62    2.93
  -6  -3  -4  475.96    3.89
  -3   4   6  469.67    2.28
   4  -6   3  470.09    4.41
   3   6  -3  450.11    3.40
  -3   3   6  448.72    2.28
  -3  -6  -3  448.01    2.82
  -3   3   6  452.67    1.98
   3  -3   6  430.01    3.85
   3   3  -6  461.79    3.06
  -3  -3  -6  455.55    2.85
   6  -3   3  456.59    4.45
  -6  -3  -3  435.50    3.65
  -6  -3  -3  468.24    3.84
  -2   6   3   23.69    0.66
   2  -6   3   22.14    0.98
   6  -3   2   26.17    1.22
  -3   2   6   25.43    0.60
  -6  -3  -2   22.98    0.89
   2   6  -3   24.29    0.88
  -3  -2  -6   24.96    0.80
  -2  -6  -3   23.52    0.67
  -6   3   2   25.82    1.04
   3  -2   6   24.05    0.97
   6  -3   1 1519.27    7.64
  -1   6   3 1516.77    4.55
   6   3  -1 1522.52    7.00
   1   6  -3 1493.61    5.94
  -3  -1  -6 1555.10    5.77
  -1  -6  -3 1498.83    4.56
   1  -6   3 1554.98    6.48
  -6  -3  -1 1487.55    6.50
   3   1  -6 1491.80    4.68
  -3   1   6 1558.39    4.08
  -6   3   1 1513.04    7.36
   3  -1   6 1506.89    6.66
   6   3   0  723.97    4.91
   0   6   3  723.61    3.15
   0  -6  -3  738.57    3.14
  -3   0  -6  738.56    4.13
   6  -3   0  705.66    5.04
   3   0   6  747.73    4.51
  -6  -3   0  714.90    4.55
   0   6  -3  700.87    4.08
  -6   3   0  716.84    5.14
  -3   0   6  713.70    3.04
   0  -6   3  705.09    4.16
   1  -6  -3 1498.26    4.75
   1   6   3 1496.64    4.63
  -6   3  -1 1465.61    7.41
  -6  -3   1 1493.54    6.43
   3  -1  -6 1511.05    4.24
  -3  -1   6 1550.34    4.93
  -1   6  -3 1459.37    5.86
  -3   1  -6 1510.32    6.05
   6  -3  -1 1448.92    6.90
   6   3   1 1516.26    7.22
   2  -6  -3   22.56    0.73
   3   2   6   22.59    0.75
   6  -3  -2   21.75    0.97
  -6  -3   2   21.13    0.93
   2   6   3   25.20    0.71
   6   3   2   23.10    1.04
  -2  -6   3   21.86    0.86
  -3   2  -6   22.26    0.84
  -2   6  -3   21.47    0.88
  -3  -2   6   22.74    0.72
  -3  -3   6  451.62    3.12
  -3  -6   3  451.62    3.44
   3  -6  -3  446.49    3.20
  -3   3  -6  446.99    3.49
   6  -3  -3  452.88    3.58
  -6  -3   3  446.50    3.47
  -6   3  -4  481.23    4.40
  -4   6  -3  466.07    3.94
  -6  -3   4  461.70    3.47
   6  -3  -4  488.32    3.53
   4   6   3  494.45    3.53
   4  -6  -3  470.08    3.54
  -4  -6   3  487.86    3.66
  -3  -4   6  472.06    3.36
  -5  -6   3 1216.00    5.88
   3  -5  -6 1260.69    3.81
  -3  -5   6 1242.67    5.69
  -3   5  -6 1237.90    6.10
   5  -6  -3 1267.10    6.21
  -6   3  -5 1251.27    7.10
  -5   6  -3 1252.77    6.84
   5   6   3 1217.41    5.85
   5  -6   4  360.24    4.11
   5   6  -4  382.39    3.34
  -5  -6  -4  363.84    2.84
   4   5  -6  389.67    3.27
  -4   5   6  355.11    2.40
  -5   6   4  351.47    3.08
   6   4  -5  363.33    3.28
  -4  -5  -6  363.46    2.54
   6  -4   5  357.38    4.13
   4  -5   6  377.33    4.08
  -4  -4  -6  607.14    3.40
   6  -4   4  619.11    5.38
  -4  -6  -4  609.78    3.37
   6   4  -4  602.20    4.20
  -4   4   6  595.75    3.14
  -4   6   4  610.19    3.65
  -6   4   4  598.94    4.30
   4  -6   4  604.26    5.06
  -4   4   6  586.91    3.09
  -4  -4  -6  609.52    3.70
  -6  -4  -4  593.12    4.04
   4  -4   6  596.81    4.98
   3   6  -4  690.37    4.27
  -3   6   4  716.32    3.45
  -4  -3  -6  696.78    4.04
   3  -6   4  684.99    5.08
   4   3  -6  703.80    3.88
  -4  -3  -6  701.03    3.99
   6   4  -3  708.64    4.70
  -3  -6  -4  692.69    3.38
   4  -3   6  692.10    5.23
  -4   3   6  714.28    3.47
  -6   4   3  707.86    4.82
  -6  -4  -3  672.71    4.34
   6  -4   3  691.27    5.55
  -4   2   6   97.29    1.31
  -4  -2  -6   91.16    1.52
   4   2  -6  100.91    1.46
   6  -4   2   89.08    2.01
   2   6  -4   92.29    1.56
  -6   4   2   90.85    1.83
  -4   2   6   94.60    1.15
   4  -2   6   95.93    1.96
  -2  -6  -4   93.50    1.18
  -6  -4  -2   92.00    1.69
  -2   6   4   98.07    1.14
   2  -6   4   92.79    1.80
   6   4  -2   93.38    1.79
  -1  -6  -4  745.56    3.02
  -1   6   4  719.67    2.88
   6   4  -1  754.32    4.86
  -6  -4  -1  731.25    4.51
  -6   4   1  744.10    5.25
   4  -1   6  739.39    4.94
   1  -6   4  742.21    4.66
   1   6  -4  725.40    4.26
  -4  -1  -6  770.17    4.51
   4   1  -6  732.94    3.67
   4   0  -6 1248.55    4.62
  -6   4   0 1206.39    6.73
  -6  -4   0 1217.07    5.82
   6  -4   0 1190.69    6.61
   0   6   4 1240.83    3.84
   0  -6   4 1214.67    5.59
   6   4   0 1237.24    6.26
   1   6   4  760.48    3.17
  -6  -4   1  743.18    4.52
  -4  -1   6  745.73    3.65
   1  -6  -4  721.10    3.09
  -1   6  -4  729.49    4.27
  -4   1  -6  737.06    4.65
  -1  -6   4  752.45    4.42
   4  -1  -6  734.77    3.56
   4   1   6  723.57    4.45
   6   4   1  738.34    5.00
   6  -4  -1  720.84    5.06
  -2  -6   4   94.43    1.59
   2  -6  -4   98.78    1.33
  -2   6  -4   93.62    1.62
   4   2   6   97.64    1.62
  -4  -2   6   95.87    1.44
   6  -4  -2   97.44    1.87
  -6  -4   2   94.94    1.69
  -6   4  -2   90.07    1.93
   6   4   2   98.79    1.96
   2   6   4  103.36    1.33
  -4   2  -6   95.50    1.78
  -3  -6   4  694.74    4.32
   6  -4  -3  715.53    4.69
   6   4   3  702.00    5.06
   3   6   4  724.90    3.86
  -6   4  -3  670.38    5.23
  -3   6  -4  688.27    4.58
  -4  -3   6  687.76    3.97
  -6  -4   3  696.77    4.35
  -4  -4   6  608.35    3.91
   4  -6  -4  614.88    3.85
  -4   6  -4  588.89    4.47
  -6   4  -4  567.92    4.79
  -4  -6   4  593.40    4.09
   4   6   4  590.13    3.76
  -4   4  -6  604.92    4.46
   6  -4  -4  620.77    4.10
   5   6   4  355.44    3.26
  -5   6  -4  359.28    3.73
  -4   5  -6  365.04    3.50
   6  -4  -5  367.81    2.96
  -5  -6   4  375.33    3.36
   5  -6  -4  356.68    3.07
  -6   4  -5  360.51    3.89
  -4  -5   6  355.97    3.13
  -6  -4   5  372.70    3.26
  -6   5   5  157.60    2.17
   5   6  -5  150.43    2.17
   5  -5   6  161.30    2.80
   5   5  -6  151.34    2.09
  -5  -5  -6  154.31    2.02
  -5  -6  -5  155.83    1.85
  -5  -5  -6  154.08    1.87
  -6  -5  -5  152.74    2.05
   5  -6   5  166.36    2.91
  -5   6   5  160.81    2.01
   6   5  -5  164.15    2.30
   6  -5   5  159.93    2.90
  -5  -4  -6 1169.75    5.31
  -5  -4  -6 1193.40    5.62
   5  -4   6 1167.64    7.28
  -5   4   6 1168.71    4.97
  -4  -6  -5 1135.73    4.44
   4   6  -5 1182.53    5.78
   6   5  -4 1185.16    6.03
  -5   4   6 1185.70    5.13
  -6  -5  -4 1155.17    5.58
   6  -5   4 1186.30    7.53
   4  -6   5 1167.76    7.18
  -6   5   4 1146.20    5.95
  -4   6   5 1204.85    4.79
   5   4  -6 1170.25    5.51
   5  -3   6   48.66    1.57
  -5  -3  -6   49.09    1.23
  -6   5   3   49.22    1.35
  -3   6   5   56.05    0.91
  -6  -5  -3   51.17    1.24
   6   5  -3   49.25    1.36
   3  -6   5   51.18    1.54
   6  -5   3   46.33    1.74
  -3  -6  -5   50.53    0.92
   3   6  -5   51.68    1.28
  -5  -3  -6   42.56    1.18
  -5   3   6   48.83    1.02
  -5   3   6   49.93    1.11
   6   5  -2  146.44    2.17
  -2  -6  -5  151.68    1.39
  -2   6   5  149.93    1.25
  -5  -2  -6  151.64    2.17
  -6  -5  -2  143.91    2.04
   6  -5   2  152.10    2.66
  -6   5   2  147.27    2.33
   5   2  -6  143.44    1.84
  -5   2   6  148.15    1.65
   2  -6   5  149.10    2.34
   2   6  -5  148.12    2.03
   5  -2   6  149.10    2.55
  -1   6   5  108.69    1.03
   6   5  -1  106.12    1.89
   1  -6   5  109.17    1.85
  -6   5   1  112.71    2.09
   6  -5   1  109.33    2.28
  -1  -6  -5  112.23    1.11
  -5  -1  -6  105.86    1.86
   5  -1   6  101.51    2.00
  -6  -5  -1  106.42    1.78
  -5   1   6  115.68    1.48
   1   6  -5  111.84    1.76
   5   1  -6  113.41    1.64
  -6   5   0 1952.65    8.59
   5   0   6 2008.10    8.34
   6   5   0 1962.81    7.91
   0   6  -5 1911.12    7.03
   5   0  -6 1970.68    6.61
  -5   0  -6 1947.96    8.02
   0  -6  -5 1977.26    4.33
  -5   0   6 1986.95    6.09
   0   6   5 1968.23    4.43
   0  -6   5 1947.42    7.42
   6  -5   0 1900.84    8.73
   5  -1  -6  111.46    1.62
  -1   6  -5  112.73    1.76
   6   5   1  112.71    1.95
  -5   1  -6  107.04    1.98
   1  -6  -5  109.58    1.13
   6  -5  -1  112.23    2.16
   1   6   5  109.93    1.18
  -6  -5   1  103.38    1.74
  -6   5  -1  104.75    2.09
  -1  -6   5  102.36    1.71
   5   1   6  107.68    1.91
  -6  -5   2  156.16    2.13
   2  -6  -5  148.81    1.48
   2   6   5  154.72    1.60
  -6   5  -2  143.25    2.45
  -2   6  -5  148.05    2.04
  -5  -2   6  151.29    1.86
   5   2   6  155.55    2.15
  -2  -6   5  147.20    2.05
   6   5   2  154.19    2.31
   6  -5  -3   49.95    1.37
  -5  -3   6   54.07    1.24
  -6  -5   3   51.35    1.31
   3  -6  -5   50.52    0.99
  -6   5  -3   48.97    1.54
   3   6   5   52.35    1.07
  -5   3  -6   53.55    1.47
  -3  -6   5   51.13    1.28
   6   5   3   54.25    1.52
  -3   6  -5   52.95    1.40
  -6   5  -4 1137.41    6.91
  -5  -4   6 1203.30    5.68
   4   6   5 1206.27    5.53
  -5   4  -6 1161.27    6.55
  -6  -5   4 1174.76    5.87
   6  -5  -4 1174.37    5.76
   4  -6  -5 1217.87    5.02
  -4  -6   5 1124.15    5.68
   6   5   4 1154.59    6.40
   5  -6  -5  160.90    2.01
  -5   6  -5  150.76    2.43
   6  -5  -5  158.92    2.04
   5   6   5  165.93    2.30
   5  -5  -6  159.12    1.76
  -5  -5   6  153.54    2.15
  -5   5  -6  156.71    2.47
  -6   5  -5  148.14    2.58
  -5  -6   5  151.74    2.18
  -6  -5   5  154.03    2.21
  -6   6   6  525.97    3.69
   6  -6   6  538.30    5.39
  -6  -6  -6  538.92    3.93
  -6  -6  -6  535.99    3.55
   6  -5   6  279.86    3.86
  -6  -6  -5  290.70    2.71
  -6   6   5  295.88    2.91
   5   6  -6  294.26    2.97
  -5   6   6  300.10    2.55
  -6   5   6  310.09    2.95
  -6  -5  -6  271.99    2.64
  -5  -6  -6  294.42    2.47
   6   6  -5  301.44    3.11
   6   5  -6  283.75    2.92
   5  -6   6  303.26    3.92
   6  -6   4  221.52    3.38
   6   6  -4  238.64    2.79
   4  -6   6  238.77    3.38
   4   6  -6  240.13    2.63
  -6   4   6  234.71    2.53
  -6  -4  -6  230.94    2.60
   6   4  -6  233.11    2.64
  -6  -6  -4  246.60    2.54
  -4   6   6  237.74    1.98
  -6   4   6  245.15    2.55
  -6   6   4  236.26    2.73
   6  -4   6  236.16    3.54
  -6   3   6  114.54    1.78
  -6  -6  -3  116.54    1.80
   3   6  -6  121.17    1.90
   6  -3   6  115.05    2.45
  -3   6   6  118.39    1.16
   3  -6   6  106.57    2.21
   6   3  -6  114.39    1.84
  -6  -3  -6  111.02    1.93
   6  -6   3  115.34    2.42
  -6  -3  -6  114.82    1.95
  -6   6   3  117.88    2.03
   6   6  -3  115.83    2.01
  -6   3   6  115.51    1.69
   2   6  -6  830.30    4.78
  -6  -2  -6  825.53    5.28
   6  -6   2  841.44    6.26
   2  -6   6  798.66    5.40
   6   6  -2  844.40    5.23
  -6   6   2  788.56    5.20
  -2   6   6  835.68    2.56
  -6   2   6  806.08    4.19
  -6   2   6  836.67    4.68
  -2  -6  -6  823.01    2.98
   6  -2   6  799.61    5.98
   6  -1   6  308.00    3.63
   6   1  -6  310.55    2.87
  -6   6   1  339.01    3.60
   1   6  -6  337.90    3.05
   6   6  -1  314.93    3.20
  -6   1   6  329.36    2.72
  -1   6   6  329.14    1.53
   6  -6   1  327.72    3.88
   1  -6   6  328.35    3.29
  -1  -6  -6  321.12    1.69
  -6  -6  -1  327.66    3.02
  -6  -6   0  420.95    3.48
  -6   6   0  399.73    3.95
  -6   0   6  413.69    3.05
   6  -6   0  405.86    4.14
   0   6   6  405.52    1.81
   0   6  -6  405.79    3.33
   6   0   6  402.17    3.93
   0  -6   6  406.25    3.49
   6   6   0  405.00    3.68
   6   0  -6  417.32    3.37
   6  -6  -1  338.53    3.68
   6   1   6  335.83    3.49
   1   6   6  330.78    1.95
  -1   6  -6  320.24    3.02
   6  -1  -6  333.85    3.05
  -6  -1   6  319.56    2.71
  -6   1  -6  327.42    3.55
   6   6   1  336.52    3.35
  -6   6  -1  338.90    3.74
   2  -6  -6  801.19    3.03
   2   6   6  803.04    3.57
  -6   6  -2  795.24    5.67
  -6   2  -6  801.87    5.62
  -2   6  -6  801.49    4.78
  -6  -6   2  813.49    4.95
   6   2   6  806.33    5.14
  -3   6  -6  112.36    1.91
   6  -6  -3  110.52    2.00
  -6   6  -3  109.83    2.17
  -6   3  -6  117.67    2.26
  -6  -6   3  114.89    1.95
  -3  -6   6  122.83    1.94
   3   6   6  119.69    1.62
   3  -6  -6  110.64    1.26
   6   6   3  115.89    2.07
  -6  -3   6  119.04    1.84
  -6  -4   6  245.63    2.69
   4   6   6  247.96    2.54
  -6   4  -6  237.04    3.21
   4  -6  -6  234.06    2.02
  -6   6  -4  227.68    3.11
  -4  -6   6  239.63    2.71
   6   6   4  231.06    2.88
  -6  -6   4  237.21    2.77
  -4   6  -6  233.96    2.88
   6  -6  -4  243.57    2.77
  -6   6  -5  292.23    3.54
   6  -5  -6  293.33    2.54
  -5  -6   6  301.87    3.09
  -6  -5   6  296.31    3.00
  -5   6  -6  304.90    3.44
   6   6   5  280.65    3.17
  -6  -6   5  287.65    3.05
  -6   5  -6  291.96    3.53
   5  -6  -6  285.48    2.45
   5   6   6  302.50    3.09
   6  -6  -5  283.44    2.76
  -6  -6   6  536.78    4.17
   6  -6  -6  490.92    3.39
   0   7   0   -0.04    0.36
   0   0  -7    0.03    0.22
   0   0   7   -0.08    0.28
   0  -7   0    0.29    0.36
  -7   0   0   -0.48    0.71
   0  -1  -7  346.65    1.65
  -7   0  -1  332.02    3.66
  -1  -7   0  326.04    2.64
  -7   0   1  331.60    3.56
   0   1   7  341.14    2.08
  -7   0   1  328.87    3.46
   0   1  -7  348.71    2.22
   0  -1   7  331.29    2.45
   1  -7   0  346.80    2.89
   1   7   0  342.50    2.77
   2   7   0    3.14    0.52
  -7   0  -2    1.48    0.74
  -2  -7   0    2.26    0.51
   7   0   2    2.39    0.65
  -7   0   2    4.65    0.75
  -7   0   2    2.45    0.54
  -2   7   0    3.23    0.48
   0   2  -7    2.87    0.42
   2  -7   0    3.92    0.58
   0  -2   7    4.46    0.48
   0   3  -7  345.43    2.59
   0  -3   7  365.90    2.93
   7   0   3  342.09    3.66
  -7   0   3  354.49    3.41
   3   7   0  373.25    3.09
  -3  -7   0  366.21    2.98
  -7   0  -3  370.74    3.93
   3  -7   0  362.97    3.40
  -3   7   0  365.33    3.11
   7   0   4    5.52    0.83
   0  -4   7    5.51    0.60
  -4   7   0    5.94    0.67
  -7   0   4    6.12    0.65
  -4  -7   0    6.54    0.58
   4   7   0    5.66    0.60
   5  -7   0  424.93    4.18
  -5  -7   0  422.46    3.44
  -7   0   5  411.88    3.41
   0  -5   7  411.84    3.44
   7   0   5  416.36    4.17
   0   5  -7  418.46    3.25
  -5   7   0  425.67    3.86
   5   7   0  434.36    3.60
  -6   7   0   23.80    1.17
  -7   0  -6   21.74    1.16
   6  -7   0   20.98    1.21
   0   6  -7   24.07    0.90
   0   6   7   24.26    0.43
   7   0   6   20.89    1.18
  -7   0   6   21.09    0.87
   6   7   0   22.68    0.99
   0  -6  -7   23.26    0.38
   0  -6   7   22.05    1.00
  -6  -7   0   26.08    1.03
  -7  -1  -6  762.99    5.48
  -7   1   6  777.21    4.51
  -6   7   1  769.65    5.32
  -1  -6  -7  744.29    2.29
   1   6  -7  757.50    4.57
   7   1  -6  750.85    4.84
   6  -7   1  763.99    5.93
   1  -6   7  770.90    5.16
   6   7  -1  759.27    5.02
   7  -1   6  758.86    5.84
  -5  -7  -1  242.95    2.55
  -7   1   5  236.23    2.76
  -7  -1  -5  245.03    3.17
   7   1  -5  247.08    2.91
   5   7  -1  244.74    2.74
   1   5  -7  242.68    2.51
   5  -7   1  230.24    3.16
  -5   7   1  249.34    2.90
  -7   1   5  231.82    2.54
  -1  -5  -7  237.67    1.15
   7  -1   5  226.90    3.16
  -7  -1  -4  416.33    4.05
  -7   1   4  422.45    3.64
  -1  -4  -7  427.82    1.81
  -4  -7  -1  428.07    3.23
   7  -1   4  412.01    4.18
   1  -4   7  413.43    3.49
  -7   1   4  432.46    3.83
   4  -7   1  430.71    4.09
  -4   7   1  436.97    3.52
  -1  -4  -7  411.11    1.41
  -1  -3  -7 1121.21    2.94
  -7  -1  -3 1154.90    6.67
  -3   7   1 1154.34    5.29
   3   7  -1 1159.13    5.43
   1   3  -7 1150.28    4.74
   1  -3   7 1153.07    5.57
   3  -7   1 1147.02    6.22
  -3  -7  -1 1137.90    5.02
  -1  -3  -7 1153.06    2.96
  -7   1   3 1105.40    6.16
   7  -1   3 1134.77    6.88
   2   7  -1 2346.43    7.56
  -2   7   1 2386.28    7.13
  -7  -1  -2 2383.26    9.74
   7  -1   2 2344.76    9.60
  -1  -2  -7 2397.89    4.63
  -7   1   2 2358.29    9.42
   1   2  -7 2367.19    6.27
   2  -7   1 2326.49    8.26
  -2  -7  -1 2344.41    7.00
  -7   1   2 2369.76    9.25
   1  -2   7 2277.88    7.49
  -1   1   7  897.30    2.84
   1  -1   7  889.68    4.43
  -7  -1  -1  871.07    5.77
   1   7  -1  910.65    4.66
  -1  -1  -7  908.79    3.16
  -1   7   1  889.22    4.24
  -7   1   1  920.01    5.95
   1  -7   1  916.65    4.87
  -1  -7  -1  902.02    4.25
   1   1  -7  908.31    3.51
   7  -1   1  856.64    5.68
   0   7   1  229.25    2.17
   1   0  -7  221.91    1.54
   0   7  -1  217.77    2.29
  -7   1   0  222.96    2.95
   1   0   7  219.63    2.07
  -7  -1   0  226.02    2.94
   0  -7   1  221.22    2.34
   7  -1   0  226.26    2.88
  -1   0   7  224.37    1.66
  -1  -1   7  869.96    3.58
  -7   1  -1  893.02    6.00
   1  -7  -1  901.16    4.43
  -1   1  -7  932.47    3.84
   1   1   7  832.79    3.72
   1   7   1  878.23    4.26
   1  -1  -7  896.80    2.56
  -1  -7   1  900.30    4.60
  -7  -1   1  882.27    5.53
  -1   2  -7 2396.73    6.59
  -2  -7   1 2349.08    7.49
   2  -7  -1 2407.00    7.76
  -2   7  -1 2345.59    7.61
  -7   1  -2 2295.85    9.70
   2   7   1 2352.62    7.15
  -1  -2   7 2380.08    6.56
  -7  -1   2 2291.01    8.49
   1   2   7 2346.83    5.29
  -7  -1   3 1137.86    5.87
  -1  -3   7 1142.02    4.92
  -1   3  -7 1161.99    4.93
   3   7   1 1152.65    5.18
   3  -7  -1 1171.66    5.86
  -3  -7   1 1164.71    5.46
  -7   1  -3 1149.13    6.91
  -3   7  -1 1173.22    5.70
  -1  -4   7  419.04    3.20
   4   7   1  436.37    3.38
  -4  -7   1  431.79    3.42
   4  -7  -1  426.88    3.81
  -7  -1   4  444.77    3.64
  -4   7  -1  416.32    3.65
   7   1   4  415.00    3.98
  -7   1  -4  429.88    4.30
   5   7   1  247.19    2.75
  -5  -7   1  226.98    2.54
  -1   5  -7  242.64    2.53
  -7  -1   5  234.06    2.57
   7   1   5  240.86    3.10
  -1  -5   7  234.04    2.54
  -5   7  -1  239.43    2.97
  -7  -1   6  732.53    4.35
  -1  -6   7  757.90    4.73
  -6  -7   1  741.85    4.70
  -1   6  -7  762.16    4.66
   6   7   1  768.10    5.09
  -7   1  -6  763.89    5.73
   7   1   6  748.85    5.40
   1   6   7  760.17    2.91
  -6   7  -1  759.83    5.48
   6   7  -2   24.18    1.04
  -7   2   6   22.39    0.86
  -7  -2  -6   22.03    1.05
  -6   7   2   24.29    1.11
  -2  -6  -7   22.09    0.50
  -6  -7  -2   23.48    0.92
   2   6  -7   20.93    0.94
   2  -6   7   19.82    1.10
   7   2  -6   21.30    0.98
   7  -2   6   20.48    1.17
  -2   6   7   21.73    0.36
  -7   2   5   18.33    0.90
  -7   2   5   17.25    0.93
   2   5  -7   19.39    0.79
   5  -7   2   18.27    1.15
  -7  -2  -5   18.22    1.02
  -5   7   2   18.39    0.87
  -2  -5  -7   17.01    0.43
   7  -2   5   16.65    1.15
  -5  -7  -2   19.62    0.80
   5   7  -2   18.30    0.90
   2  -5   7   17.96    1.02
  -7  -2  -4  717.13    5.33
   7  -2   4  708.73    5.67
   7   2  -4  696.21    4.82
  -4   7   2  697.12    4.27
   4  -7   2  728.35    5.42
  -7   2   4  710.41    4.93
  -2  -4  -7  700.46    2.63
  -7   2   4  696.85    4.82
   2  -4   7  709.66    4.95
  -4  -7  -2  736.61    4.12
  -2  -4  -7  721.09    3.08
  -7  -2  -4  752.29    5.39
  -7  -2  -3    2.92    0.68
   3   7  -2    3.42    0.62
  -7   2   3    4.89    0.73
   2   3  -7    3.59    0.50
   7  -2   3    4.19    0.82
   7   2  -3    5.46    0.72
  -2  -3  -7    3.78    0.36
  -2  -3  -7    3.12    0.35
  -7  -2  -3    2.64    0.74
   2  -3   7    2.96    0.57
   3  -7   2    5.00    0.62
  -3   7   2    5.39    0.57
  -3  -7  -2    5.03    0.48
   7   2  -2    2.14    0.66
  -2   7   2    2.59    0.41
  -2  -7  -2    2.77    0.43
  -2  -2  -7    1.99    0.32
   2   7  -2    1.32    0.42
  -7  -2  -2    3.18    0.72
  -2   2   7    1.93    0.17
   2  -2   7    0.62    0.55
  -7  -2  -2    1.24    0.58
   2  -7   2    2.63    0.63
  -7   2   2    0.55    0.64
   7  -2   2    2.73    0.66
   1   7  -2    3.07    0.54
  -7   2   1    2.39    0.75
   7  -2   1    5.19    0.71
   2  -1   7    4.20    0.57
  -7  -2  -1    3.95    0.59
  -2   1   7    3.93    0.27
  -1   7   2    4.55    0.43
  -7  -2  -1    4.18    0.69
   2   1  -7    4.74    0.39
   1  -7   2    4.46    0.64
  -1  -7  -2    3.72    0.43
   7  -2   0  710.61    5.19
   0   7  -2  697.48    4.14
   0  -7   2  714.89    4.29
   2   0   7  716.46    4.14
   7   2   0  690.06    5.26
   0   7   2  689.07    3.57
  -2   0   7  700.73    2.89
  -2   0  -7  729.69    3.63
   1  -7  -2    5.01    0.50
  -2   1  -7    4.81    0.47
  -7   2  -1    3.44    0.68
  -2  -1   7    5.29    0.41
   2  -1  -7    3.67    0.27
   7  -2  -1    3.58    0.68
   1   7   2    5.34    0.45
   2   1   7    4.44    0.48
  -7  -2   1    5.98    0.71
   7  -2  -2    1.81    0.60
   2   2   7    2.39    0.39
  -2   2  -7    3.39    0.47
  -7  -2   2    1.35    0.60
   2  -7  -2    2.82    0.45
  -2  -7   2    1.55    0.44
  -7   2  -2    1.17    0.63
  -2   7  -2    2.55    0.45
   2  -2  -7    2.30    0.20
  -2  -2   7    1.19    0.38
   2   7   2    1.80    0.42
   3  -7  -2    4.09    0.58
  -2  -3   7    4.26    0.52
   3   7   2    4.53    0.53
  -7   2  -3    3.81    0.83
  -3   7  -2    2.99    0.54
  -3  -7   2    3.58    0.60
  -2   3  -7    3.23    0.52
  -7  -2   3    2.88    0.63
   4   7   2  735.89    4.34
  -7   2  -4  743.86    5.83
  -4  -7   2  685.11    4.37
   4  -7  -2  721.63    4.74
  -2   4  -7  713.28    4.27
  -7  -2   4  708.54    4.55
  -5   7  -2   20.71    1.07
  -7   2  -5   16.50    1.04
   5   7   2   17.27    0.89
   5  -7  -2   18.10    0.97
  -2   5  -7   17.25    0.79
  -5  -7   2   19.46    0.94
  -7  -2   5   20.57    0.90
   2   6   7   22.74    0.69
  -7  -2   6   23.93    0.92
  -6   7  -2   19.99    1.08
  -2  -6   7   20.05    0.90
  -6  -7   2   21.25    0.91
   2  -6  -7   21.49    0.43
  -2   6  -7   23.03    0.97
   6   7   2   23.53    1.05
  -6   7   3  317.44    3.24
  -7  -3  -6  311.24    3.35
   6   7  -3  324.46    3.27
  -7  -3  -6  314.17    3.37
   3  -6   7  310.94    3.66
   6  -7   3  306.98    3.95
  -7   3   6  302.88    3.06
   3   6  -7  309.98    2.96
   7  -3   6  311.21    4.02
  -3  -6  -7  313.66    1.98
   7   3  -6  314.58    3.17
  -3   6   7  313.40    1.58
  -7   3   6  308.01    2.93
  -6  -7  -3  309.67    2.85
   7  -3   5  141.37    2.73
   7   3  -5  153.71    2.27
  -7   3   5  131.75    2.10
  -5   7   3  151.26    2.15
  -7  -3  -5  141.58    2.33
   3  -5   7  131.77    2.34
   5   7  -3  133.63    2.07
  -7  -3  -5  132.38    2.25
  -3   5   7  138.41    1.15
  -3   5   7  138.85    1.03
   5  -7   3  141.62    2.66
  -7   3   5  141.59    2.21
   3   5  -7  135.95    1.92
  -3  -5  -7  136.64    1.35
   3  -4   7  257.07    3.19
  -3   4   7  258.57    1.50
   7  -3   4  253.72    3.51
  -3  -4  -7  268.94    1.98
  -7  -3  -4  256.00    3.03
   4  -7   3  262.27    3.39
  -7   3   4  269.00    3.10
   3   4  -7  259.71    2.47
   4   7  -3  264.69    2.85
  -4   7   3  261.48    2.53
  -4  -7  -3  250.60    2.31
   7   3  -4  258.69    2.93
  -3   4   7  253.81    1.31
  -3   3   7 1831.30    3.45
   3  -7   3 1876.26    8.45
   3   3  -7 1876.31    6.14
   7  -3   3 1793.93    9.07
  -3  -7  -3 1857.49    5.99
  -3   3   7 1850.14    4.35
  -3  -3  -7 1871.40    5.97
  -3  -3  -7 1823.68    5.78
  -7  -3  -3 1853.42    8.10
   7   3  -3 1873.18    7.93
  -7   3   3 1884.18    8.31
   3   7  -3 1870.49    7.17
  -3   7   3 1853.64    6.07
  -7  -3  -3 1820.99    7.95
   3  -3   7 1821.44    8.01
  -7  -3  -2  653.51    4.83
   3  -2   7  660.19    4.71
   2  -7   3  662.30    4.70
   7  -3   2  633.93    5.32
  -7   3   2  646.53    4.98
  -3   2   7  662.22    2.37
   7   3  -2  627.58    4.73
  -2  -7  -3  642.67    3.36
   2   7  -3  656.86    4.22
  -2   7   3  660.32    3.37
  -3  -2  -7  652.44    3.61
   3   2  -7  667.28    3.53
   3   1  -7 1163.77    4.25
  -3  -1  -7 1139.37    4.92
  -1  -7  -3 1173.79    4.36
   7   3  -1 1135.59    6.50
  -7  -3  -1 1090.00    5.89
  -3   1   7 1183.70    3.59
   1   7  -3 1163.37    5.52
  -1   7   3 1166.57    4.32
  -7   3   1 1171.49    6.88
   7  -3   1 1119.83    6.82
   3  -1   7 1153.92    5.99
   1  -7   3 1131.11    5.78
   0   7   3  389.13    2.54
   3   0  -7  370.08    2.23
   0  -7  -3  383.50    2.49
  -3   0  -7  380.08    2.98
  -7  -3   0  376.17    3.50
   0   7  -3  375.70    3.13
  -7   3   0  378.34    3.98
   0  -7   3  371.25    3.21
  -3   0   7  372.55    2.25
   7   3   0  382.90    3.88
   3   0   7  363.92    3.17
   7  -3   0  362.05    3.76
  -7   3  -1 1152.78    7.00
  -1  -7   3 1155.54    5.57
   7   3   1 1189.83    7.00
   3   1   7 1149.87    5.34
  -3   1  -7 1124.87    5.24
   1   7   3 1123.28    4.39
  -3  -1   7 1157.73    4.33
  -7  -3   1 1102.85    5.93
   7  -3  -1 1148.60    6.53
  -1   7  -3 1155.06    5.56
   3  -1  -7 1152.51    3.71
   1  -7  -3 1131.46    4.42
  -3   2  -7  657.52    4.15
  -2  -7   3  639.34    4.14
   3  -2  -7  657.16    2.75
   2   7   3  669.16    3.54
  -2   7  -3  628.36    4.18
   3   2   7  645.01    3.66
  -7   3  -2  667.32    5.53
  -7  -3   2  625.77    4.35
   2  -7  -3  645.67    3.70
   7  -3  -2  635.61    4.69
  -3  -2   7  647.69    3.52
   3   7   3 1867.89    6.27
  -3  -7   3 1851.27    7.19
  -7   3  -3 1830.74    8.94
  -7  -3   3 1830.86    7.41
  -3  -3   7 1861.88    6.37
   7  -3  -3 1880.89    7.71
  -3   7  -3 1811.78    7.37
   3  -7  -3 1814.47    6.74
   4  -7  -3  255.65    2.74
   4   7   3  259.45    2.56
  -4  -7   3  252.04    2.73
  -7  -3   4  255.31    2.78
  -3   4  -7  256.70    2.75
  -4   7  -3  251.37    2.94
   7  -3  -4  255.42    2.76
  -3  -4   7  255.46    2.52
  -5  -7   3  137.16    2.09
  -3   5  -7  138.67    2.12
   5  -7  -3  144.72    2.27
  -7   3  -5  136.66    2.58
  -3  -5   7  133.25    1.93
  -7  -3   5  140.72    2.06
  -5   7  -3  135.49    2.28
   5   7   3  143.73    2.11
   6  -7  -3  289.41    3.26
   6   7   3  303.34    3.17
  -7   3  -6  310.26    3.73
  -3  -6   7  303.99    3.01
   3  -6  -7  314.19    1.82
  -6   7  -3  304.40    3.61
  -6  -7   3  299.43    3.13
  -3   6  -7  300.12    3.12
  -6   7   4   28.29    1.07
   6  -7   4   26.96    1.34
  -4  -6  -7   24.94    0.80
  -7  -4  -6   27.75    1.14
   4  -6   7   26.38    1.35
   7  -4   6   23.07    1.26
  -7   4   6   26.57    1.03
  -6  -7  -4   25.05    0.90
  -7   4   6   26.40    1.04
  -4   6   7   27.52    0.66
  -4  -6  -7   26.71    0.70
   7   4  -6   25.33    1.09
  -7  -4  -6   27.92    1.10
   4   6  -7   24.61    0.96
  -7  -4  -5  426.75    3.91
  -7   4   5  437.37    3.82
   5   7  -4  445.80    3.74
   4  -5   7  434.76    4.43
   7   4  -5  430.04    3.82
   7  -4   5  427.24    4.70
  -5   7   4  435.39    3.41
  -4   5   7  432.94    2.42
  -4   5   7  443.22    2.52
  -7  -4  -5  423.67    3.73
  -5  -7  -4  429.37    3.10
  -4  -5  -7  422.85    2.71
   5  -7   4  431.00    4.59
   4   5  -7  437.13    3.43
  -4  -4  -7   14.89    0.69
   4   4  -7   12.25    0.74
  -4  -4  -7   13.95    0.63
  -7  -4  -4   12.99    0.80
   4  -4   7   12.63    1.04
  -7  -4  -4   12.29    0.88
  -4   4   7   13.97    0.47
   4  -7   4   14.43    1.07
   7   4  -4   14.58    0.92
  -4   4   7   12.46    0.52
  -4   7   4   14.64    0.67
   4   7  -4   12.01    0.79
   7  -4   4   13.49    1.11
  -4  -7  -4   12.97    0.64
  -7   4   3  292.61    3.34
  -4  -3  -7  284.28    2.60
  -4   3   7  289.15    2.12
   7   4  -3  294.04    3.21
  -7  -4  -3  285.36    3.03
   7  -4   3  285.03    3.78
   4  -3   7  282.49    3.46
  -4   3   7  297.39    1.81
  -3  -7  -4  294.08    2.29
   3  -7   4  294.49    3.46
   3   7  -4  289.08    2.90
  -4   2   7   19.41    0.53
  -7  -4  -2   20.47    0.99
   7   4  -2   18.68    0.98
  -2  -7  -4   20.45    0.65
  -4  -2  -7   17.05    0.78
   4   2  -7   18.50    0.70
  -7   4   2   19.00    0.97
  -2   7   4   18.04    0.60
   7  -4   2   17.48    1.05
   2  -7   4   18.71    1.03
   4  -2   7   17.49    1.05
  -4   1   7  395.61    2.32
  -7  -4  -1  372.71    3.50
  -1   7   4  393.81    2.37
   4  -1   7  381.99    3.69
  -4  -1  -7  378.21    3.17
   4   1  -7  389.50    2.67
   1   7  -4  377.94    3.25
  -7   4   1  382.58    3.98
   1  -7   4  380.50    3.51
   4   0   7    0.71    0.56
   7   4   0    1.76    0.75
  -7   4   0    0.06    0.66
   7  -4   0    1.22    0.71
   0  -7  -4    0.43    0.29
   0   7  -4    1.05    0.56
   0  -7   4    0.03    0.56
   0   7   4    0.46    0.30
   4   0  -7    1.42    0.36
  -4   0   7    0.90    0.32
  -4   0  -7    1.50    0.48
  -7  -4   0    0.58    0.58
   4  -1  -7  379.26    2.49
   1  -7  -4  375.32    2.44
  -4  -1   7  379.25    2.64
   7  -4  -1  380.47    3.89
  -1  -7   4  368.94    3.21
  -7   4  -1  353.26    3.94
   7   4   1  389.24    3.94
   1   7   4  403.40    2.55
  -7  -4   1  380.72    3.45
   4   1   7  374.05    3.26
  -4   1  -7  385.48    3.40
  -2  -7   4   19.77    0.84
  -4  -2   7   18.83    0.73
   7   4   2   17.07    0.96
   4   2   7   17.25    0.79
   7  -4  -2   16.75    1.01
  -7  -4   2   19.71    0.95
   2  -7  -4   18.59    0.69
  -2   7  -4   18.65    0.86
  -3  -7   4  283.48    2.88
  -4   3  -7  288.68    3.07
   3  -7  -4  293.44    2.58
  -7  -4   3  285.49    2.98
  -3   7  -4  283.47    3.01
  -4  -3   7  282.81    2.58
  -7   4  -3  275.97    3.58
   3   7   4  288.49    2.46
   7  -4  -3  289.73    3.14
  -7  -4   4   11.77    0.77
  -4   4  -7   12.53    0.86
  -4  -7   4   12.99    0.80
   4  -7  -4   13.02    0.72
  -4  -4   7   13.85    0.76
   7  -4  -4   13.17    0.79
  -7   4  -4   13.28    1.00
  -4   7  -4   12.32    0.83
   4   7   4   14.84    0.73
  -7   4  -5  408.62    4.32
  -4  -5   7  435.79    3.51
  -5  -7   4  431.10    3.68
   5  -7  -4  413.35    3.42
  -5   7  -4  414.15    3.99
   5   7   4  437.40    3.53
  -7   4  -6   26.39    1.24
  -4   6  -7   27.58    1.11
  -6  -7   4   25.23    1.01
   6  -7  -4   26.42    1.04
  -7  -4   6   29.69    1.10
  -4  -6   7   28.05    1.08
   6   7   4   27.76    1.13
  -6   7  -4   27.15    1.18
   4  -6  -7   28.66    0.68
   6  -7   5  681.39    6.00
  -5  -6  -7  674.60    4.03
   7   5  -6  709.55    4.86
   5  -6   7  706.19    5.96
  -6   7   5  717.51    4.50
  -5   6   7  699.93    3.61
  -5  -6  -7  690.94    3.66
  -7  -5  -6  729.95    4.96
  -7  -5  -6  701.86    4.48
  -7   5   6  721.03    4.71
   7  -5   6  707.36    6.16
  -5  -7  -5  173.10    1.92
   5   5  -7  174.91    2.26
  -7   5   5  169.96    2.42
  -5   5   7  172.85    1.84
  -7  -5  -5  172.18    2.29
   5  -5   7  166.00    2.88
  -5  -5  -7  171.48    1.91
   5  -7   5  170.63    2.92
  -7  -5  -5  172.59    2.43
   7   5  -5  169.46    2.41
  -5   5   7  175.59    1.86
  -5   7   5  180.94    2.11
   7  -5   5  174.83    3.10
  -4  -7  -5  254.46    2.23
  -7   5   4  275.90    3.23
  -5  -4  -7  277.57    2.71
   4   7  -5  271.03    2.89
  -5   4   7  270.11    2.14
   7  -5   4  268.55    3.79
   5   4  -7  262.85    2.60
  -5   4   7  252.60    2.28
  -4   7   5  280.70    2.32
   7   5  -4  265.61    3.09
  -5  -4  -7  269.22    2.56
  -7  -5  -4  260.79    2.84
  -5   3   7  138.27    1.73
   3   7  -5  134.62    2.06
  -3   7   5  140.98    1.48
   5   3  -7  143.10    1.89
  -5  -3  -7  141.64    2.03
  -5  -3  -7  146.90    2.08
  -7   5   3  138.96    2.35
  -3  -7  -5  134.66    1.49
   7  -5   3  132.58    2.65
   7   5  -3  148.57    2.37
   5  -3   7  136.90    2.55
  -7  -5  -3  139.38    2.16
   3  -7   5  129.98    2.42
  -5   3   7  137.21    1.49
   7  -5   2 1968.81    9.72
  -2   7   5 2007.50    5.02
   2   7  -5 1980.03    7.55
   2  -7   5 1949.95    8.47
  -5   2   7 1937.84    5.52
   7   5  -2 2013.55    8.41
  -7   5   2 1953.65    8.74
   5   2  -7 1958.11    6.67
  -2  -7  -5 1959.12    5.25
   5  -2   7 2012.84    9.20
  -5   2   7 1972.67    6.28
  -7  -5  -2 1899.23    7.55
   1   7  -5  236.07    2.62
   7   5  -1  246.95    3.00
  -1  -7  -5  238.95    1.73
  -1   7   5  238.96    1.70
  -7  -5  -1  233.12    2.73
   5   1  -7  239.47    2.31
  -5  -1  -7  249.09    2.88
   7  -5   1  250.87    3.50
   5  -1   7  252.02    3.22
   1  -7   5  206.08    2.66
  -7   5   1  226.43    3.09
  -5   1   7  257.92    2.08
   5   0  -7   12.25    0.63
   0  -7  -5   11.94    0.46
   5   0   7   10.90    0.88
   0   7  -5   11.31    0.80
  -7   5   0   10.85    0.93
   7  -5   0   12.25    0.92
   7   5   0   13.69    0.86
  -7  -5   0   12.64    0.84
   0  -7   5    9.98    0.74
   0   7   5   12.09    0.47
  -1  -7   5  235.96    2.67
   1  -7  -5  245.67    1.84
   5  -1  -7  242.17    2.29
   5   1   7  243.79    2.88
   7   5   1  240.46    3.06
  -5  -1   7  237.59    2.20
   7  -5  -1  245.69    3.22
   1   7   5  241.01    1.83
  -7  -5   1  246.11    2.80
   5   2   7 1951.33    7.60
   2  -7  -5 1972.41    5.73
   7  -5  -2 1913.49    8.50
  -5   2  -7 1954.11    8.26
   2   7   5 1975.60    5.76
  -7  -5   2 1972.32    7.70
   7   5   2 1971.41    8.79
  -7   5  -2 1946.14    9.25
  -2   7  -5 1982.30    7.70
  -5  -2   7 1924.19    6.53
  -2  -7   5 1925.30    7.51
   3  -7  -5  133.53    1.66
  -3  -7   5  133.53    2.03
  -5  -3   7  140.13    1.93
  -7  -5   3  137.48    2.14
  -7   5  -3  129.22    2.48
   7  -5  -3  136.16    2.22
  -5   3  -7  136.27    2.24
  -3   7  -5  134.82    2.14
   7   5   3  136.18    2.39
   3   7   5  142.62    1.76
   4   7   5  275.04    2.62
  -7   5  -4  267.38    3.55
  -5  -4   7  263.49    2.67
  -4   7  -5  265.25    3.06
   7   5   4  270.91    3.41
   4  -7  -5  264.52    2.48
   7  -5  -4  270.18    2.96
  -5   4  -7  259.62    3.14
  -7  -5   4  265.03    2.94
  -4  -7   5  256.52    2.86
  -7   5  -5  177.24    2.88
   7  -5  -5  175.18    2.26
   5  -7  -5  175.71    2.17
  -5  -5   7  168.21    2.26
  -7  -5   5  174.36    2.38
  -5   5  -7  169.31    2.55
  -5   7  -5  169.25    2.61
   5   7   5  167.36    2.26
  -5  -7   5  174.93    2.41
   7  -5  -6  708.50    4.19
  -6  -7   5  718.99    4.91
   6  -7  -5  695.61    4.47
  -5  -6   7  697.20    4.67
  -6   7  -5  694.58    5.38
  -7  -5   6  705.74    4.75
   5  -6  -7  715.71    3.47
   6   7   5  705.55    4.93
   7  -6   6   50.41    1.82
  -7  -6  -6   48.34    1.26
  -7  -6  -6   55.01    1.40
   6   7  -6   48.48    1.39
  -6   6   7   52.83    1.18
   6  -7   6   48.23    1.72
  -6  -6  -7   47.39    1.23
  -6  -6  -7   48.58    1.14
  -6  -7  -6   51.31    1.13
   7   6  -6   48.94    1.43
  -6   7   6   50.92    1.22
   6  -6   7   47.65    1.74
   5  -7   6   18.79    1.15
  -6   5   7   20.63    0.82
  -7  -6  -5   19.99    0.91
  -5  -7  -6   15.87    0.65
   7  -6   5   13.85    1.15
  -5   7   6   20.89    0.77
  -6  -5  -7   18.01    0.79
   6  -5   7   19.21    1.17
  -6   5   7   19.92    0.81
   6   5  -7   21.73    0.90
  -6  -4  -7  534.22    3.87
   6  -4   7  527.36    5.24
  -6   4   7  530.69    3.60
  -7   6   4  530.79    4.35
   6   4  -7  536.53    3.90
  -7  -6  -4  534.48    3.90
   4   7  -6  528.69    3.99
   7  -6   4  536.89    5.51
   7   6  -4  539.97    4.32
  -6   4   7  541.79    3.38
  -6   3   7   40.58    0.95
  -6  -3  -7   41.61    1.27
   6   3  -7   38.79    1.12
   3  -7   6   38.85    1.46
  -6   3   7   43.88    1.15
  -7   6   3   38.56    1.33
   3   7  -6   40.58    1.23
   7   6  -3   41.33    1.36
  -7  -6  -3   39.37    1.20
  -3  -7  -6   40.34    0.82
  -3   7   6   41.20    0.75
   6  -3   7   37.94    1.56
   7  -6   3   39.33    1.53
  -6   2   7    7.61    0.62
  -7  -6  -2    7.47    0.64
  -2  -7  -6    8.17    0.40
  -6   2   7    7.59    0.54
   7   6  -2    5.58    0.80
   7  -6   2    9.83    1.08
  -2   7   6    9.26    0.38
   2   7  -6    8.22    0.75
   6   2  -7    7.61    0.68
   2  -7   6    6.27    0.79
  -6   1   7   16.07    0.68
   7  -6   1   15.75    1.18
  -7  -6  -1   16.42    0.89
  -7   6   1   18.24    1.09
  -1  -7  -6   15.25    0.47
  -1   7   6   17.30    0.47
   1  -7   6   15.73    0.94
   7   6  -1   15.12    0.91
   6  -1   7   15.05    1.00
   7  -6   0  659.60    5.53
  -6   0  -7  634.03    4.80
   6   0  -7  624.09    3.98
  -6   0   7  639.95    3.63
   0   7   6  657.77    2.61
  -7   6   0  633.16    5.20
   7   6   0  655.52    4.87
   6   0   7  659.00    5.06
   0  -7   6  647.30    4.57
   0  -7  -6  614.03    2.48
  -7  -6   0  631.59    4.36
   0   7  -6  652.04    4.35
  -1  -7   6   15.95    0.81
   6   1   7   14.47    0.93
  -7   6  -1   15.54    1.05
   7  -6  -1   16.64    1.13
   1   7   6   15.97    0.54
  -7  -6   1   14.66    0.89
   1  -7  -6   17.98    0.52
   7   6   1   14.18    0.88
  -6   1  -7   16.19    0.95
   6  -1  -7   14.38    0.77
   2   7   6    8.80    0.49
  -6  -2   7    8.35    0.65
   6   2   7    8.83    0.79
   7   6   2    9.02    0.88
  -2   7  -6    8.88    0.78
   2  -7  -6    8.61    0.45
   3   7   6   41.21    0.97
  -7  -6   3   43.19    1.28
  -6  -3   7   36.35    1.11
   7   6   3   38.53    1.41
  -7   6  -3   37.44    1.51
   3  -7  -6   41.06    0.88
  -6   3  -7   37.70    1.39
  -3  -7   6   41.87    1.25
   7  -6  -3   41.04    1.39
  -3   7  -6   37.97    1.22
   7  -6  -4  516.42    4.11
   7   6   4  557.07    4.74
  -7   6  -4  507.25    4.79
  -6   4  -7  538.83    4.66
  -6  -4   7  527.60    3.88
  -4  -7   6  525.96    4.09
  -7  -6   4  513.34    4.08
  -4   7  -6  524.80    4.31
   4  -7  -6  531.49    3.22
   4   7   6  526.63    3.64
  -7  -6   5   17.79    0.97
   5   7   6   19.09    0.91
  -6  -5   7   19.84    0.93
  -7   6  -5   18.31    1.08
   7  -6  -5   17.53    0.86
  -6   5  -7   19.55    1.03
  -5  -7   6   20.23    1.00
   5  -7  -6   19.60    0.77
  -7   6  -6   48.43    1.57
   6  -7  -6   47.13    1.15
  -7  -6   6   49.84    1.41
   6  -6  -7   51.78    1.07
  -6  -6   7   51.77    1.36
  -6   6  -7   49.32    1.58
  -6  -7   6   50.62    1.40
   7  -6  -6   49.34    1.22
   6   7   6   47.95    1.40
  -6   7  -6   49.29    1.55
   7   7  -7  571.46    4.45
   7  -7   7  568.41    5.77
  -7  -7  -7  566.54    3.73
   6  -7   7   44.63    1.76
  -7  -6  -7   44.88    1.16
   7  -6   7   44.31    1.79
   7  -7   6   44.25    1.83
  -6  -7  -7   44.46    1.05
  -7   6   7   46.76    1.23
   6   7  -7   43.06    1.32
  -7  -7  -6   44.96    1.16
  -6   7   7   48.97    1.13
  -7  -6  -7   46.10    1.30
  -6  -7  -7   45.61    1.19
   7   6  -7   46.35    1.39
   7   7  -6   43.90    1.38
  -7   7   6   44.33    1.22
  -7  -7  -5   76.69    1.51
   7  -5   7   73.92    2.17
  -5   7   7   72.64    1.18
  -7   7   5   74.03    1.60
  -7  -5  -7   74.87    1.64
  -7   5   7   75.73    1.53
   7  -7   5   67.43    2.06
  -7  -5  -7   76.12    1.51
  -5  -7  -7   75.71    1.22
   7   7  -5   76.38    1.76
  -7   5   7   72.64    1.47
   5  -7   7   70.72    2.00
   5   7  -7   77.22    1.67
  -7   4   7   98.80    1.76
   7  -4   7   96.23    2.36
  -7   7   4  100.33    1.94
   4  -7   7  106.89    2.43
  -7  -7  -4  101.63    1.73
   7  -7   4   89.69    2.29
  -7   4   7   96.42    1.61
   7   7  -4  101.12    1.95
  -4   7   7   97.96    1.14
  -4  -7  -7  101.03    1.28
  -7  -4  -7   95.93    1.82
   7   4  -7   95.19    1.79
  -7  -4  -7  100.84    1.93
   3  -7   7  929.88    6.45
   7   7  -3  953.14    5.86
  -3   7   7  940.23    2.92
  -7  -3  -7  935.64    5.80
  -7   3   7  942.16    5.26
  -7  -3  -7  976.69    5.93
   7  -7   3  900.58    6.87
   3   7  -7  926.99    5.31
  -7   7   3  914.48    5.80
  -3  -7  -7  936.17    3.49
  -7   3   7  940.86    4.67
   7   3  -7  935.17    5.37
   7   2  -7   18.95    0.89
  -7  -7  -2   18.69    0.91
  -7  -2  -7   16.02    0.97
  -7   2   7   17.11    0.87
  -2   7   7   17.83    0.41
  -2  -7  -7   18.10    0.51
   7   7  -2   17.77    1.00
   7  -7   2   20.22    1.32
   2   7  -7   18.36    0.92
   2  -7   7   18.26    1.10
  -7   7   2   18.23    1.07
  -7   2   7   17.52    0.76
  -7   1   7  552.00    3.57
  -1  -7  -7  575.89    2.25
   7  -7   1  537.72    5.10
   7  -1   7  556.80    5.04
   1   7  -7  550.18    4.05
   1  -7   7  569.33    4.60
  -7   7   1  543.67    4.76
   7   1  -7  562.85    4.10
  -7  -1  -7  569.00    4.73
   7   7  -1  560.14    4.56
  -1   7   7  576.17    2.05
   0   7   7  174.42    1.26
  -7   0  -7  183.09    2.85
   0   7  -7  163.48    2.22
  -7   0   7  167.93    2.03
   7  -7   0  169.32    2.85
   7   7   0  180.02    2.66
  -7   7   0  172.21    2.80
   7   0   7  172.31    2.79
   0  -7  -7  165.21    1.16
   0  -7   7  164.81    2.43
  -7  -7   1  558.32    4.25
  -7   7  -1  549.96    4.85
   7  -7  -1  553.41    4.88
   7   1   7  559.70    4.73
  -7   1  -7  581.91    4.92
  -1  -7   7  545.60    4.18
  -7  -1   7  559.76    3.73
   1   7   7  563.39    2.57
   1  -7  -7  543.36    2.27
   7   7   1  570.16    4.60
  -7   7  -2   17.17    1.15
   7   7   2   17.75    0.98
  -7   2  -7   16.60    1.08
   2   7   7   17.48    0.62
   2  -7  -7   17.21    0.51
   7   2   7   18.07    0.99
  -2  -7   7   16.62    0.83
  -7  -7   2   17.39    0.97
   7   7   3  972.96    6.12
  -7  -7   3  920.22    5.55
   3  -7  -7  903.96    3.39
   3   7   7  929.70    4.36
  -7   3  -7  897.52    6.16
  -7  -3   7  963.30    5.26
  -3  -7   7  901.24    5.34
  -7   7  -3  911.64    6.38
   7  -7  -3  930.71    5.92
   7   7   4  101.25    2.08
   7  -7  -4  101.63    1.97
  -4  -7   7   97.74    1.86
   4  -7  -7   95.94    1.26
  -7   7  -4   95.60    2.20
  -7  -4   7   99.79    1.79
  -7  -7   4   98.80    1.93
  -5  -7   7   69.78    1.60
   5  -7  -7   74.18    1.23
   5   7   7   68.72    1.52
   7  -7  -5   78.46    1.64
  -5   7  -7   71.50    1.74
  -7   7  -5   70.53    1.85
  -7  -5   7   78.15    1.65
  -7   5  -7   72.46    1.93
   7   7   5   73.54    1.81
  -7  -7   5   69.90    1.63
  -7   7  -6   46.23    1.62
  -6  -7   7   46.02    1.40
   7  -7  -6   43.74    1.19
  -7  -7   6   47.90    1.44
  -6   7  -7   46.35    1.49
  -7  -6   7   49.08    1.40
  -7   6  -7   42.10    1.45
   7   7   6   44.49    1.45
   6  -7  -7   43.71    1.03
   7  -6  -7   47.20    1.10
  -7  -7   7  556.13    4.39
   7  -7  -7  564.29    3.63
   0  -8   0 1305.97    5.63
  -8   0   0 1326.93    7.45
   0   8   0 1318.68    5.63
   0   0   8 1311.92    4.73
   0  -1  -8   26.41    0.52
   0   1  -8   26.32    0.69
   0  -1   8   26.36    0.80
   1  -8   0   24.69    0.93
   1   8   0   25.59    0.88
  -8   0  -1   22.50    1.13
  -1   8   0   24.91    0.84
   0   1   8   26.31    0.68
   8   0   1   22.15    1.05
  -8   0   1   24.40    1.13
  -2  -8   0   33.78    1.02
  -8   0   2   35.41    1.38
   0   2   8   36.21    0.63
  -8   0   2   32.80    1.25
   2   8   0   29.60    1.00
   8   0   2   34.22    1.27
   0   2  -8   32.50    0.82
   0  -2  -8   32.94    0.45
  -8   0  -2   34.48    1.44
   2  -8   0   34.21    1.11
  -8   0  -3    9.36    0.84
   8   0   3    7.74    0.91
  -3  -8   0    8.98    0.60
   0  -3   8    8.30    0.61
   0   3  -8    9.19    0.59
  -8   0   3    8.61    0.73
   3  -8   0    8.02    0.67
   3   8   0    8.10    0.69
  -8   0   3    8.08    0.87
  -3   8   0    8.63    0.70
   0   4  -8  881.88    4.52
   4   8   0  880.09    4.98
  -4   8   0  847.76    5.02
   4  -8   0  883.90    5.78
   8   0   4  854.96    6.07
  -4  -8   0  843.40    4.76
   0  -4   8  858.18    4.89
  -5  -8   0   86.52    1.61
   5  -8   0   83.61    1.96
   0   5  -8   85.63    1.54
   5   8   0   90.76    1.71
  -8   0  -5   87.82    2.10
   0  -5   8   85.04    1.68
  -8   0   5   87.42    1.71
   8   0   5   85.16    2.01
  -5   8   0   89.89    1.85
   0   6  -8  151.99    2.11
   6  -8   0  151.69    2.70
  -8   0  -6  150.21    2.63
   6   8   0  156.15    2.35
  -6  -8   0  149.52    2.20
   8   0   6  153.41    2.71
   8   0  -6  155.87    2.47
  -6   8   0  153.79    2.51
   0  -6   8  145.26    2.25
  -8   0   6  149.11    2.12
   8   0   7   45.98    1.59
   7   8   0   49.32    1.45
  -7   8   0   51.91    1.64
   0   7  -8   51.04    1.36
  -8   0  -7   52.82    1.67
   0  -7   8   49.57    1.41
   7  -8   0   48.57    1.70
   0  -7  -8   49.88    0.56
  -8   0   7   51.11    1.27
   0   7   8   47.05    0.61
   8   0  -7   49.88    1.45
  -7  -8   0   48.53    1.36
   8  -1   7  271.06    3.65
   8   1  -7  275.38    3.11
  -8   1   7  266.66    2.70
  -8  -1  -7  271.16    3.47
   7  -8   1  261.58    3.63
  -7   8   1  271.85    3.35
  -7  -8  -1  276.37    2.97
  -1  -7  -8  265.93    1.35
   1   7  -8  269.34    2.90
  -6   8   1  405.59    3.87
  -8   1   6  408.27    3.74
  -1  -6  -8  409.28    1.47
   8  -1   6  398.61    4.38
   8   1  -6  410.45    3.87
   6   8  -1  422.59    3.81
  -8   1   6  411.50    3.47
   1  -6   8  384.74    3.76
   1   6  -8  423.84    3.45
  -6  -8  -1  392.53    3.37
  -8  -1  -6  401.46    4.11
   6  -8   1  420.68    4.49
  -1  -6  -8  398.19    1.78
  -8   1   5  425.45    3.67
  -5   8   1  407.71    3.66
  -1  -5  -8  412.03    1.69
   8   1  -5  411.10    3.94
   8  -1   5  414.69    4.49
   1  -5   8  407.07    3.71
  -8   1   5  427.88    3.95
  -1  -5  -8  410.44    1.32
   5  -8   1  415.30    4.27
  -8  -1  -5  423.35    4.32
   1   5  -8  423.63    3.30
   5   8  -1  405.16    3.53
  -5  -8  -1  408.17    3.33
   8  -1   4  553.76    5.05
  -8   1   4  584.98    4.69
   1   4  -8  585.54    3.67
   1  -4   8  576.11    4.25
   8   1  -4  587.96    4.85
  -4   8   1  570.24    4.01
  -4  -8  -1  593.84    3.93
  -8   1   4  570.41    4.50
  -8  -1  -4  570.56    4.97
   4  -8   1  598.48    4.91
  -3   8   1  464.42    3.47
   1   3  -8  417.19    2.92
   1  -3   8  453.62    3.64
  -3  -8  -1  468.76    3.41
  -8  -1  -3  440.34    4.35
  -8   1   3  448.40    4.16
   8   1  -3  444.43    4.34
   3  -8   1  436.58    3.95
   3   8  -1  440.27    3.51
  -8   1   3  459.44    4.27
  -1  -3  -8  459.22    1.79
   8  -1   3  453.79    4.53
  -8  -1  -2  504.83    4.79
  -8   1   2  489.74    4.54
   1   2  -8  511.92    2.99
  -8  -1  -2  504.67    4.66
   2   8  -1  499.14    3.69
   1  -2   8  485.91    3.59
   2  -8   1  480.04    3.91
  -2  -8  -1  496.50    3.39
  -8   1   2  487.27    4.46
  -1   2   8  495.70    1.94
  -1  -2  -8  491.21    2.08
  -2   8   1  484.93    3.37
   1   8  -1  651.86    4.14
   1  -8   1  667.17    4.35
   8  -1   1  662.13    5.27
  -8  -1  -1  648.09    5.27
   1  -1   8  653.79    3.94
  -1  -1  -8  658.96    2.70
   1   1  -8  651.75    3.06
  -1  -8  -1  652.70    3.83
  -1   8   1  656.40    3.86
  -8  -1  -1  657.56    5.24
  -8   1   1  653.67    5.30
  -8   1   0 1019.58    6.58
  -8  -1   0 1062.47    6.62
  -1   0  -8 1067.29    3.82
   1   0   8 1071.02    4.69
   0   8   1 1084.23    4.94
   8  -1   0 1055.37    6.41
   0  -8  -1 1066.00    4.89
  -8  -1   0 1055.40    6.57
   0  -8   1 1015.84    5.16
   0   8  -1 1069.80    5.23
  -1   0   8  974.49    3.65
  -8   1  -1  645.35    5.38
   1  -8  -1  661.03    4.01
  -1  -1   8  665.95    3.33
   1  -1  -8  652.07    2.32
  -1   8  -1  653.57    4.12
  -8  -1   1  640.55    5.01
   1   1   8  636.22    3.36
   1   8   1  643.43    3.83
   8  -1  -1  658.56    4.99
  -1   1  -8  672.11    3.30
  -8  -1   1  643.26    5.02
  -1  -2   8  464.70    3.04
   1   2   8  476.69    2.54
  -2  -8   1  482.58    3.54
  -8  -1   2  487.32    4.32
  -1   2  -8  505.42    3.10
   2   8   1  481.84    3.40
  -8   1  -2  479.92    4.71
   2  -8  -1  507.36    3.74
  -1  -3   8  452.71    3.19
  -3  -8   1  447.39    3.52
   3   8   1  460.30    3.44
  -8   1  -3  446.58    4.44
  -3   8  -1  446.21    3.61
   3  -8  -1  455.65    3.80
   8   1   3  459.60    4.35
  -8  -1   3  440.61    3.87
  -1   3  -8  460.33    3.15
   4   8   1  560.77    3.86
   8   1   4  559.40    4.80
  -4   8  -1  565.16    4.23
  -1   4  -8  567.58    3.66
   4  -8  -1  577.49    4.54
  -4  -8   1  561.80    4.00
  -1  -4   8  558.65    3.72
  -8  -1   4  551.32    4.29
   8   1   5  413.28    4.15
  -8  -1   5  412.20    3.57
   5  -8  -1  420.03    4.05
  -8   1  -5  412.71    4.39
  -5  -8   1  409.48    3.53
   5   8   1  422.02    3.59
  -1  -5   8  400.08    3.32
  -5   8  -1  411.54    3.82
  -1   5  -8  423.77    3.37
  -1  -6   8  408.37    3.51
  -8  -1   6  413.90    3.49
  -8   1  -6  393.73    4.22
   8   1   6  404.36    4.20
   6  -8  -1  410.40    4.19
  -6  -8   1  398.36    3.54
   6   8   1  410.94    3.69
  -1  -7   8  269.64    2.99
   8   1   7  278.62    3.52
   7  -8  -1  263.33    3.46
  -7   8  -1  264.21    3.44
   7   8   1  280.73    3.30
  -8   1  -7  272.15    3.55
  -7  -8   1  264.00    2.95
   1   7   8  251.49    1.69
   7   8  -2   23.63    1.16
   8  -2   7   20.33    1.33
   2  -7   8   21.35    1.18
  -2   7   8   24.74    0.36
   7  -8   2   25.17    1.43
  -7   8   2   24.09    1.10
  -2  -7  -8   24.95    0.52
  -8  -2  -7   26.25    1.25
  -8   2   7   24.34    0.91
  -8  -2  -6  115.90    2.31
   8  -2   6  119.22    2.58
   6   8  -2  120.35    2.10
   6  -8   2  124.45    2.61
  -8   2   6  135.79    2.04
  -6   8   2  119.37    2.11
   8   2  -6  127.02    2.14
  -8   2   6  114.59    2.06
   2  -6   8  124.39    2.33
   2   6  -8  104.57    1.80
  -2  -6  -8  122.24    1.02
  -6  -8  -2  130.67    1.96
  -5  -8  -2  649.56    4.13
  -8  -2  -5  677.74    5.41
  -8  -2  -5  649.87    5.20
   5  -8   2  631.61    5.30
   2   5  -8  663.23    4.15
   5   8  -2  632.65    4.44
  -8   2   5  661.45    4.92
   2  -5   8  651.36    4.97
  -5   8   2  667.98    4.52
   8  -2   5  656.50    5.68
  -8   2   5  663.64    4.74
   8   2  -5  648.04    4.91
  -2  -5  -8  645.77    2.80
   4   8  -2   29.84    1.10
  -2  -4  -8   30.03    0.56
   2  -4   8   28.11    1.18
   4  -8   2   25.82    1.15
  -2  -4  -8   28.29    0.64
   8   2  -4   25.90    1.13
  -8   2   4   29.53    1.21
   2   4  -8   28.52    0.89
   8  -2   4   26.01    1.31
  -4   8   2   27.67    0.94
  -8  -2  -4   23.41    1.25
  -4  -8  -2   26.50    0.94
  -8  -2  -4   32.78    1.37
  -8   2   4   28.12    1.22
  -8   2   3  260.73    3.27
   8  -2   3  255.42    3.48
   2  -3   8  268.22    3.01
  -8  -2  -3  266.16    3.37
  -8   2   3  260.87    3.33
  -3  -8  -2  272.08    2.50
  -3   8   2  269.34    2.54
   2   3  -8  273.08    2.39
   8   2  -3  274.67    3.38
  -8  -2  -3  272.09    3.40
   3   8  -2  273.57    2.84
   3  -8   2  254.95    3.16
   2  -8   2   59.63    1.52
   2  -2   8   53.80    1.38
   2   2  -8   60.58    1.09
  -2  -8  -2   57.55    1.17
   8  -2   2   51.87    1.66
   8   2  -2   58.44    1.71
   2   8  -2   62.24    1.41
  -2   8   2   55.84    1.15
  -8   2   2   55.93    1.64
  -8  -2  -2   59.36    1.70
  -8  -2  -2   57.31    1.66
  -2   1   8  671.38    2.55
  -1  -8  -2  702.85    3.79
   8   2  -1  679.51    5.50
  -8   2   1  689.76    5.47
  -2  -1  -8  702.90    3.35
  -1   8   2  674.00    3.73
  -8  -2  -1  695.64    5.26
   2  -1   8  691.84    4.42
  -8  -2  -1  669.42    5.16
   1   8  -2  677.49    4.31
   2   1  -8  665.13    3.11
   8  -2   1  665.22    5.35
   1  -8   2  674.05    4.53
  -8  -2   0   33.80    1.24
   0   8  -2   31.65    1.05
  -8   2   0   34.29    1.43
  -2   0   8   32.71    0.71
   2   0   8   34.75    1.03
   0  -8  -2   33.44    0.92
  -2   0  -8   34.34    0.84
  -8  -2   0   34.78    1.35
   2   0  -8   33.39    0.68
   0   8   2   33.13    0.93
   2   1   8  702.69    3.94
  -2  -1   8  651.34    3.24
  -8   2  -1  675.77    5.45
   2  -1  -8  656.05    2.40
  -1  -8   2  700.57    4.42
   1   8   2  677.89    3.82
  -1   8  -2  703.37    4.40
   1  -8  -2  692.10    3.91
   8  -2  -1  688.82    5.18
  -2   1  -8  662.62    3.60
  -8  -2   1  682.68    4.97
   2   2   8   55.93    1.03
   8  -2  -2   58.66    1.58
  -2  -8   2   56.04    1.36
  -2  -2   8   57.80    1.11
   2  -8  -2   59.10    1.30
  -8  -2   2   58.12    1.48
  -2   2  -8   61.38    1.22
   2   8   2   52.63    1.15
  -3   8  -2  278.75    2.96
  -2  -3   8  276.94    2.49
   3  -8  -2  277.77    2.86
  -8   2  -3  268.09    3.54
  -3  -8   2  276.08    2.86
   3   8   2  269.18    2.57
   2   3   8  278.76    1.95
  -2   4  -8   28.18    0.95
   4  -8  -2   28.23    1.07
  -4  -8   2   26.63    0.98
  -2  -4   8   26.99    0.94
  -8   2  -4   27.00    1.33
  -8  -2   4   27.30    1.09
   4   8   2   29.83    1.02
  -4   8  -2   27.76    1.06
   5  -8  -2  665.97    4.92
  -2   5  -8  665.50    4.30
  -8  -2   5  651.67    4.51
  -2  -5   8  661.81    4.26
   5   8   2  650.96    4.42
  -8   2  -5  656.58    5.61
  -5   8  -2  649.37    4.89
  -5  -8   2  647.02    4.49
  -6   8  -2  121.07    2.30
   6   8   2  120.63    2.09
  -8   2  -6  118.36    2.40
  -2  -6   8  123.08    1.94
  -6  -8   2  123.27    2.03
   6  -8  -2  128.12    2.35
   8   2   6  127.35    2.35
  -8  -2   7   25.72    0.97
   7  -8  -2   25.62    1.22
   2  -7  -8   24.56    0.44
   7   8   2   25.92    1.16
  -8   2  -7   24.56    1.19
  -7   8  -2   25.42    1.26
  -7  -8   2   22.97    1.08
  -2  -7   8   23.54    0.96
  -8  -3  -7  131.39    2.37
  -8   3   7  125.89    2.08
  -7  -8  -3  132.54    2.02
   8  -3   7  120.17    2.62
   8   3  -7  128.23    2.11
  -3  -7  -8  128.99    1.46
  -3   7   8  128.62    0.92
   3  -7   8  126.02    2.46
  -8   3   7  137.40    1.95
  -7   8   3  127.37    2.22
   7  -8   3  125.49    2.73
   7   8  -3  131.45    2.28
  -8  -3  -7  122.00    2.24
  -3  -7  -8  125.01    1.21
  -6  -8  -3  383.24    3.22
   8   3  -6  371.83    3.57
  -8  -3  -6  376.05    3.86
   3   6  -8  372.21    3.27
  -3   6   8  365.81    1.32
   3  -6   8  364.68    4.04
  -8   3   6  368.26    3.58
   6  -8   3  352.33    4.30
  -3   6   8  357.35    1.58
  -3  -6  -8  365.59    2.02
  -6   8   3  366.40    3.46
  -8  -3  -6  368.25    3.85
  -8   3   6  360.27    3.38
  -3  -5  -8  638.43    3.25
   8  -3   5  646.64    5.83
  -8   3   5  632.49    4.85
   3   5  -8  643.13    4.09
   5   8  -3  657.21    4.61
  -8  -3  -5  621.79    5.01
   5  -8   3  623.58    5.44
  -3  -5  -8  634.06    2.76
  -8   3   5  643.72    4.79
   3  -5   8  635.74    5.15
  -8  -3  -5  601.73    4.89
   8   3  -5  639.78    4.77
  -5   8   3  622.89    4.21
  -5  -8  -3  606.85    3.83
   3   4  -8  171.65    2.06
   8   3  -4  164.83    2.57
   8  -3   4  174.84    3.04
   3  -4   8  176.94    2.73
  -8  -3  -4  170.31    2.61
  -3  -4  -8  166.67    1.57
  -8  -3  -4  177.99    2.74
  -3  -4  -8  177.84    1.79
   4  -8   3  178.74    2.86
  -8   3   4  174.83    2.69
  -4  -8  -3  165.04    1.96
   4   8  -3  172.94    2.35
  -4   8   3  168.36    2.04
  -3   8   3  330.12    2.65
  -8   3   3  338.82    3.75
   8  -3   3  319.77    4.00
   3  -3   8  324.48    3.48
   3  -8   3  335.27    3.67
  -3   3   8  333.21    1.42
  -8  -3  -3  344.00    3.77
  -3   3   8  326.70    1.75
   3   8  -3  325.89    3.11
  -3  -8  -3  348.35    2.73
  -8  -3  -3  332.89    3.65
  -8  -3  -2  601.36    4.85
   8  -3   2  597.57    5.29
   8   3  -2  614.44    5.03
  -2  -8  -3  636.46    3.53
  -2   8   3  624.71    3.49
  -3   2   8  624.73    2.30
  -8  -3  -2  614.56    4.85
   2  -8   3  619.18    4.70
  -3  -2  -8  629.48    3.51
   2   8  -3  620.45    4.24
   3   2  -8  624.60    3.41
  -1  -8  -3  800.75    3.79
  -8  -3  -1  815.72    5.43
   3   1  -8  810.44    3.57
  -8   3   1  837.51    6.07
   3  -1   8  787.84    5.06
   8  -3   1  810.51    6.00
   8   3  -1  796.51    5.80
  -3   1   8  852.28    3.09
   1   8  -3  841.36    4.93
  -3  -1  -8  835.13    4.20
  -1   8   3  829.01    3.92
   1  -8   3  813.00    5.11
   0  -8   3  229.53    2.61
   0   8  -3  226.99    2.56
  -8  -3   0  229.52    2.87
   8   3   0  229.03    3.22
   3   0   8  238.88    2.67
   0   8   3  235.21    2.13
  -3   0   8  229.88    1.81
   0  -8  -3  235.05    2.10
  -3   0  -8  236.71    2.34
   8  -3   0  232.50    3.25
   3   0  -8  237.51    1.80
   8  -3  -1  794.17    5.65
  -1  -8   3  822.85    4.90
  -3   1  -8  842.43    4.52
   1  -8  -3  844.92    4.12
   3   1   8  828.78    4.60
   1   8   3  815.94    3.96
  -3  -1   8  809.40    3.67
  -8   3  -1  796.17    5.98
  -8  -3   1  832.14    5.44
   8  -3  -2  610.84    4.82
   2   8   3  641.07    3.67
  -2  -8   3  628.14    4.29
  -3   2  -8  630.68    4.01
  -8  -3   2  595.32    4.52
  -8   3  -2  625.96    5.46
   3  -2  -8  619.95    2.60
   3   2   8  630.62    3.69
   2  -8  -3  632.50    3.83
  -3  -2   8  618.82    3.49
  -8   3  -3  352.84    4.25
  -3   3  -8  334.49    3.05
  -3  -3   8  331.34    2.72
   3   8   3  347.27    2.83
  -8  -3   3  326.22    3.31
   8  -3  -3  323.02    3.40
   3   3   8  342.97    2.51
  -3  -8   3  338.79    3.19
  -3   8  -3  320.14    3.21
   3  -8  -3  352.62    3.11
   4   8   3  171.32    2.16
   4  -8  -3  164.56    2.26
  -4   8  -3  175.48    2.51
  -8  -3   4  169.95    2.40
  -4  -8   3  163.91    2.29
  -8   3  -4  169.27    2.89
  -3   4  -8  174.06    2.30
  -3  -4   8  175.10    2.14
  -5  -8   3  634.53    4.54
   5  -8  -3  631.81    4.59
   5   8   3  641.31    4.39
  -3  -5   8  619.60    4.14
  -3   5  -8  627.20    4.36
   6  -8  -3  379.70    3.74
  -6   8  -3  369.05    3.92
  -8  -3   6  372.29    3.36
  -6  -8   3  370.55    3.54
  -8   3  -6  374.12    4.23
  -3  -6   8  366.37    3.29
  -3   6  -8  372.68    3.45
   7   8   3  126.81    2.19
   3  -7  -8  125.00    1.07
  -7   8  -3  122.69    2.39
  -7  -8   3  123.67    2.15
  -3   7  -8  122.35    2.05
  -8  -4  -7   61.22    1.57
   7  -8   4   55.19    1.97
   4  -7   8   62.23    1.85
  -8  -4  -7   64.76    1.67
  -8   4   7   67.52    1.56
  -4  -7  -8   63.13    0.99
   7   8  -4   65.73    1.61
  -8   4   7   62.73    1.42
  -4  -7  -8   64.23    1.15
  -7  -8  -4   60.88    1.34
   4   7  -8   68.40    1.56
  -7   8   4   63.19    1.54
  -4   7   8   65.45    0.82
  -4   6   8   99.87    1.11
  -8  -4  -6  105.07    2.08
   6   8  -4   98.11    1.88
  -4  -6  -8  104.61    1.27
  -8   4   6   99.43    1.88
  -8  -4  -6  103.04    2.01
   4  -6   8  100.18    2.27
   8   4  -6  105.98    2.02
  -6   8   4  103.77    1.82
  -4   6   8  106.52    1.04
   6  -8   4   97.10    2.39
   8  -4   6   93.40    2.38
   4   6  -8  101.99    1.76
  -4  -6  -8  100.54    1.47
  -4  -5  -8  114.04    1.39
   4  -5   8  113.64    2.41
  -4  -5  -8  117.15    1.59
  -5   8   4  121.52    1.82
  -4   5   8  112.07    1.01
   8  -4   5  114.03    2.58
  -8   4   5  112.14    2.11
   5  -8   4  119.27    2.56
  -4   5   8  115.09    1.15
   8   4  -5  115.37    2.08
  -8  -4  -5  112.68    2.07
  -5  -8  -4  117.19    1.68
   4   5  -8  118.39    1.85
  -4  -4  -8  613.41    3.43
  -8  -4  -4  618.10    4.92
   8   4  -4  611.67    4.71
   4  -8   4  590.41    5.16
  -4   4   8  603.27    2.78
   4  -4   8  592.28    5.12
  -4   4   8  609.31    2.30
  -4  -8  -4  613.63    3.57
  -8   4   4  596.74    4.84
  -4   8   4  614.90    3.68
   4   8  -4  600.78    4.35
   4   4  -8  621.24    3.91
  -3  -8  -4   61.40    1.13
   3   8  -4   67.79    1.54
   4   3  -8   61.99    1.24
  -4   3   8   62.80    0.98
   4  -3   8   60.84    1.73
   3  -8   4   60.36    1.66
   8   4  -3   61.63    1.59
  -3   8   4   63.25    1.13
  -4   3   8   64.32    0.80
  -8  -4  -3   56.25    1.50
  -4  -2  -8   26.46    0.91
  -8  -4  -2   29.42    1.14
  -8   4   2   26.46    1.22
   8   4  -2   22.05    1.18
   4  -2   8   30.01    1.22
  -2  -8  -4   27.64    0.77
   8  -4   2   26.23    1.31
   2   8  -4   31.32    1.13
   2  -8   4   29.55    1.16
  -2   8   4   31.76    0.80
  -4   2   8   30.02    0.62
   4   2  -8   30.58    0.86
   8   4  -1  106.00    2.19
  -4  -1  -8  104.91    1.69
   4   1  -8  106.73    1.41
  -1   8   4  104.86    1.36
   8  -4   1  104.40    2.35
  -4   1   8  107.23    1.22
  -8   4   1  103.81    2.26
   4  -1   8  108.12    2.05
  -1  -8  -4  103.24    1.32
   1   8  -4  106.17    1.81
  -8  -4  -1  100.98    1.95
   0  -8   4  850.68    5.15
   0  -8  -4  867.89    3.74
  -4   0   8  892.42    3.76
   0   8  -4  868.41    5.07
   8   4   0  869.86    6.13
  -8   4   0  847.89    6.20
  -4   0  -8  884.59    4.93
   0   8   4  889.14    3.87
   4   0   8  888.05    5.41
   4   0  -8  843.84    3.70
  -8  -4   0  840.74    5.45
   8  -4   0  864.17    6.20
  -4  -1   8  107.95    1.45
  -8   4  -1  105.41    2.33
   4   1   8  106.57    1.82
  -4   1  -8  103.83    1.79
   4  -1  -8  106.91    1.30
  -8  -4   1   98.59    1.90
   1   8   4  108.57    1.41
   8   4   1  105.78    2.30
  -1  -8   4  100.28    1.80
   1  -8  -4  108.62    1.43
   8  -4  -1  110.06    2.23
   4   2   8   29.37    0.96
   8  -4  -2   30.72    1.24
  -2  -8   4   27.88    1.05
   8   4   2   25.11    1.22
  -8  -4   2   27.58    1.10
   2   8   4   27.71    0.79
   2  -8  -4   26.74    0.84
  -4   2  -8   24.58    0.98
  -8   4  -2   25.91    1.32
  -4  -2   8   26.17    0.84
  -3   8  -4   57.47    1.46
  -8  -4   3   57.06    1.42
   3   8   4   63.37    1.25
   3  -8  -4   59.70    1.28
  -4   3  -8   59.13    1.44
  -4  -3   8   61.42    1.25
  -3  -8   4   60.79    1.45
   4   3   8   64.01    1.26
  -4  -4   8  605.83    3.99
  -4  -8   4  589.69    4.34
  -8   4  -4  585.09    5.35
   4  -8  -4  624.76    4.15
   4   8   4  606.42    3.92
  -8  -4   4  618.71    4.50
   8  -4  -4  633.68    4.61
  -4   4  -8  613.24    4.46
  -4   8  -4  596.65    4.59
   5   8   4  115.66    1.89
   8  -4  -5  122.86    1.99
  -4  -5   8  113.30    1.85
   5  -8  -4  117.33    2.00
  -5  -8   4  115.59    2.04
  -8  -4   5  121.10    2.06
  -4   5  -8  115.41    1.99
  -5   8  -4  112.62    2.12
   6  -8  -4  100.85    1.89
  -4  -6   8   95.13    1.76
  -6  -8   4  106.97    1.99
  -8   4  -6  101.76    2.26
  -6   8  -4  101.28    2.12
   6   8   4  111.82    1.98
  -7   8  -4   58.61    1.75
   7  -8  -4   61.77    1.56
  -7  -8   4   61.40    1.59
  -8   4  -7   58.97    1.85
  -4   7  -8   67.79    1.66
   7   8   4   61.73    1.64
  -4  -7   8   60.24    1.48
  -8  -4   7   66.57    1.56
   7   8  -5  295.67    3.29
  -5  -7  -8  286.92    2.55
  -8  -5  -7  299.89    3.06
   5  -7   8  287.71    3.88
  -8   5   7  276.43    3.01
  -8   5   7  277.50    2.91
  -8  -5  -7  297.45    3.30
  -5   7   8  293.87    2.07
  -7   8   5  296.20    3.05
  -7  -8  -5  290.45    2.75
   8   5  -7  290.32    3.25
  -5  -7  -8  293.82    2.25
   8  -5   7  273.10    3.96
   5   7  -8  286.43    3.04
  -5  -6  -8  210.61    2.26
  -5  -6  -8  221.95    2.02
  -8  -5  -6  228.00    2.94
   6   8  -5  226.29    2.78
  -5   6   8  233.93    1.93
   8  -5   6  224.32    3.67
  -8  -5  -6  227.58    2.70
   6  -8   5  217.50    3.48
  -6  -8  -5  225.02    2.33
  -5   6   8  223.53    1.92
  -8   5   6  221.31    2.76
   5  -6   8  226.98    3.47
  -6   8   5  222.18    2.49
   8   5  -6  224.32    2.89
  -8   5   5   99.77    1.97
  -5  -8  -5  106.47    1.59
  -5  -5  -8  100.05    1.45
   5   5  -8  104.36    1.77
  -5  -5  -8  103.92    1.65
   5  -8   5  108.72    2.46
  -8  -5  -5   98.10    1.95
  -5   5   8   99.13    1.20
   5  -5   8   99.37    2.30
  -5   5   8  102.78    1.35
  -5   8   5  106.33    1.61
   8  -5   5  100.41    2.53
  -5  -4  -8  494.07    3.41
  -8  -5  -4  516.87    4.40
   5   4  -8  508.57    3.60
  -8   5   4  510.52    4.51
   4  -8   5  494.09    4.82
  -5  -4  -8  513.94    3.68
  -4  -8  -5  504.29    3.13
  -5   4   8  505.42    2.59
  -4   8   5  519.80    3.15
  -5   4   8  502.51    2.94
  -3  -8  -5  390.94    2.63
  -5   3   8  389.81    2.70
   5  -3   8  383.93    4.17
  -5   3   8  367.07    2.21
   8  -5   3  395.71    4.64
  -8   5   3  372.72    3.91
   3   8  -5  389.77    3.51
   3  -8   5  383.36    4.10
   8   5  -3  380.68    3.83
  -3   8   5  395.44    2.55
  -8  -5  -3  364.92    3.57
  -5   2   8  182.10    1.89
   2   8  -5  178.21    2.40
  -5  -2  -8  182.42    2.33
   5  -2   8  177.31    2.83
  -8   5   2  178.34    2.86
   8   5  -2  173.95    2.70
  -5   2   8  178.61    1.60
  -2   8   5  177.73    1.64
  -2  -8  -5  174.79    1.68
  -8  -5  -2  175.18    2.49
   2  -8   5  173.14    2.66
  -1   8   5  288.62    2.06
  -8  -5  -1  257.03    2.97
   5   1  -8  250.22    2.31
  -8   5   1  273.40    3.55
  -5  -1  -8  290.03    2.97
  -5   1   8  286.15    2.15
  -1  -8  -5  274.15    1.97
   1   8  -5  283.28    2.98
   1  -8   5  289.50    3.26
   0  -8   5  886.85    5.44
   0  -8  -5  886.31    3.49
   8  -5   0  889.42    6.43
   5   0   8  928.15    5.82
   0   8  -5  890.82    5.22
  -8  -5   0  910.05    5.56
   0   8   5  879.35    3.57
   8   5   0  900.59    6.16
  -8   5   0  873.49    6.34
  -5   0   8  923.68    4.07
   5   0  -8  897.45    4.19
   8  -5  -1  272.18    3.51
  -5  -1   8  289.35    2.43
  -1   8  -5  281.16    2.99
   5   1   8  270.75    3.00
  -8  -5   1  271.56    3.04
   8   5   1  278.24    3.50
  -5   1  -8  292.16    3.14
   8  -5  -2  168.79    2.68
   5   2   8  171.11    2.28
  -5   2  -8  182.45    2.54
  -8   5  -2  161.54    2.87
   8   5   2  169.50    2.82
   2  -8  -5  170.32    1.80
  -2   8  -5  172.38    2.36
   2   8   5  174.59    1.79
  -5  -2   8  177.10    2.04
  -3   8  -5  377.92    3.53
  -8  -5   3  380.57    3.57
  -8   5  -3  375.96    4.30
   3  -8  -5  386.09    2.89
   3   8   5  378.41    2.82
  -5  -3   8  393.12    3.16
   8  -5  -3  391.42    3.91
   8   5   3  388.38    4.24
  -5   3  -8  378.53    3.67
  -3  -8   5  376.84    3.47
   4   8   5  508.87    3.56
   8  -5  -4  498.89    4.16
   4  -8  -5  508.87    3.53
  -8  -5   4  504.70    4.13
  -4  -8   5  495.18    4.03
  -5   4  -8  514.96    4.32
  -5  -4   8  518.90    3.79
  -5  -5   8  101.22    1.77
   5  -8  -5   92.81    1.63
  -5   8  -5   98.79    1.99
   5   8   5  103.14    1.77
  -5  -8   5   98.11    1.93
   8  -5  -5  102.99    1.86
  -5   5  -8  104.93    2.06
  -8  -5   5  103.52    1.95
  -8   5  -5   97.39    2.23
  -5  -6   8  234.61    2.76
   6  -8  -5  203.04    2.45
  -8   5  -6  220.04    3.30
  -6  -8   5  233.43    2.90
  -6   8  -5  214.40    3.00
   6   8   5  219.28    2.72
   8  -5  -6  222.27    2.51
  -8  -5   6  232.54    2.83
   7  -8  -5  264.44    2.94
  -8  -5   7  295.10    3.18
  -5  -7   8  293.51    3.17
   5  -7  -8  285.78    2.04
  -8   5  -7  284.93    3.76
  -7   8  -5  273.22    3.54
   7   8   5  289.66    3.35
  -5   7  -8  273.39    3.22
  -7  -8   5  283.12    3.21
   7  -8   6   13.92    1.30
   6   7  -8   14.22    0.80
  -8  -6  -7   14.36    0.81
  -6  -7  -8   16.36    0.79
  -7  -8  -6   15.08    0.73
   6  -7   8   11.86    1.15
  -6  -7  -8   16.82    0.69
   8  -6   7   12.67    1.11
  -7   8   6   16.11    0.82
  -8   6   7   16.07    0.86
   7   8  -6   13.05    0.95
  -6   7   8   14.42    0.65
  -8  -6  -7   14.96    0.90
   8   6  -7   15.20    0.91
   6   6  -8  113.85    1.91
  -6   8   6  114.45    1.72
  -6  -6  -8  117.67    1.83
  -6  -8  -6  122.03    1.69
  -6   6   8  114.03    1.56
  -8   6   6  115.35    2.04
   6  -6   8  114.26    2.57
   8  -6   6  105.04    2.65
  -6   6   8  112.40    1.55
   6   8  -6  111.05    1.99
  -6  -6  -8  111.79    1.61
  -8  -6  -6  111.52    2.04
   8   6  -6  115.84    2.12
  -8  -6  -6  112.46    1.91
   6  -8   6  108.95    2.53
   5   8  -6  319.95    3.28
  -6   5   8  319.33    2.63
   5  -8   6  320.29    4.14
  -8  -6  -5  310.08    3.37
  -6  -5  -8  309.79    2.71
   8  -6   5  316.95    4.34
  -5   8   6  332.52    2.59
  -6   5   8  319.44    2.43
  -8   6   5  306.00    3.37
   6  -5   8  323.46    4.19
   8   6  -5  334.40    3.61
  -5  -8  -6  318.63    2.54
  -8  -6  -5  327.34    3.25
   4   8  -6   99.07    1.89
   6   4  -8   98.42    1.69
  -6  -4  -8  105.41    1.76
   4  -8   6   98.38    2.24
  -8  -6  -4   96.28    1.84
  -8   6   4  104.47    2.11
   6  -4   8   99.73    2.36
  -6   4   8   97.99    1.31
   8   6  -4   96.16    2.00
  -4   8   6  103.89    1.33
  -6   4   8  101.16    1.57
   8  -6   4  101.31    2.52
  -4  -8  -6  102.74    1.39
  -3   8   6  131.81    1.34
   6   3  -8  129.64    1.92
  -6   3   8  131.11    1.52
   6  -3   8  126.13    2.54
   8  -6   3  127.19    2.78
  -3  -8  -6  130.58    1.46
   3  -8   6  124.91    2.46
  -8  -6  -3  131.14    2.11
  -8   6   2  120.28    2.34
  -2   8   6  123.01    1.25
   6   2  -8  120.48    1.79
  -6   2   8  121.47    1.49
   8   6  -2  120.39    2.21
  -8  -6  -2  119.62    2.06
   8  -6   2  123.10    2.65
  -2  -8  -6  124.10    1.33
  -6   2   8  123.61    1.73
   2  -8   6  126.36    2.31
   8  -6   1  310.08    4.02
  -8   6   1  297.10    3.68
  -8  -6  -1  304.67    3.20
  -6   1   8  297.33    2.35
   1   8  -6  302.04    3.11
  -1  -8  -6  308.39    1.97
   8   6  -1  300.42    3.50
   1  -8   6  293.32    3.30
  -6  -1  -8  308.19    3.31
  -1   8   6  310.63    1.95
   6   0  -8  154.25    1.97
   8  -6   0  142.91    2.65
   6   0   8  144.84    2.46
  -6   0  -8  145.95    2.35
  -8   6   0  144.37    2.63
   0  -8  -6  149.80    1.37
  -8  -6   0  160.44    2.36
   0   8  -6  151.69    2.24
   8   6   0  151.51    2.52
   0  -8   6  153.36    2.38
   0   8   6  155.16    1.44
  -6   1  -8  317.29    3.46
  -8  -6   1  294.92    3.15
   6   1   8  300.65    3.35
   1  -8  -6  292.70    2.01
   8   6   1  303.26    3.58
  -1  -8   6  302.58    3.20
   1   8   6  312.29    2.11
  -8   6  -1  300.64    3.80
   8  -6  -1  303.03    3.74
  -1   8  -6  303.51    3.11
  -6  -1   8  308.05    2.63
   6  -1  -8  301.49    2.71
   8  -6  -2  125.93    2.36
  -2  -8   6  126.14    2.11
   2   8   6  123.17    1.48
  -6   2  -8  125.10    2.29
   6   2   8  118.41    2.05
   8   6   2  117.35    2.33
  -8   6  -2  113.15    2.42
  -6  -2   8  125.62    1.79
  -8  -6   2  116.26    2.03
   2  -8  -6  118.28    1.42
   8  -6  -3  127.82    2.30
   3   8   6  137.93    1.71
  -3  -8   6  131.74    2.11
  -8   6  -3  127.35    2.59
  -6  -3   8  134.68    1.95
   8   6   3  136.93    2.53
  -6   3  -8  133.58    2.36
  -6  -4   8   99.06    1.76
   4  -8  -6  100.37    1.52
   8   6   4   99.98    2.27
   4   8   6   98.66    1.59
  -8   6  -4   99.48    2.29
  -4  -8   6   99.85    1.89
  -6   4  -8  102.42    2.14
   8  -6  -4  101.04    2.01
  -4   8  -6  100.37    2.00
   8  -6  -5  317.12    3.20
   5  -8  -6  317.99    2.77
  -8   6  -5  318.04    3.97
  -5  -8   6  306.86    3.27
  -5   8  -6  301.95    3.42
  -6  -5   8  331.32    3.23
  -6   5  -8  313.41    3.59
   5   8   6  315.07    3.04
  -8  -6   5  332.27    3.42
  -6  -8   6  114.46    2.08
   8  -6  -6  122.72    1.94
   6  -8  -6  115.27    1.81
   6   8   6  118.12    2.05
  -6  -6   8  110.77    1.95
  -8   6  -6  111.88    2.36
  -6   6  -8   98.39    2.10
  -6   8  -6   96.99    2.13
  -8  -6   6  118.46    2.07
  -8  -6   7   14.53    0.87
  -7  -8   6   15.27    0.94
  -6  -7   8   14.30    0.90
   6  -7  -8   15.29    0.62
   7   8   6   12.98    0.91
   7  -8  -6   13.58    0.80
  -7   8  -6   13.84    0.92
  -8   6  -7   15.61    1.03
   8  -6  -7   17.14    0.80
   7   7  -8   22.20    1.06
   8   7  -7   19.65    1.01
   7  -7   8   16.70    1.19
   8  -7   7   22.46    1.50
  -8   7   7   18.55    0.89
  -8  -7  -7   19.11    0.92
  -7  -7  -8   20.87    0.80
   7  -8   7   21.49    1.33
  -7  -7  -8   19.30    0.90
  -7   7   8   19.18    0.78
  -8  -7  -7   20.58    0.89
  -7   8   7   18.26    0.81
   6   8  -7  251.97    2.97
  -6  -8  -7  251.25    2.29
  -8   7   6  249.26    2.89
  -8  -7  -6  249.84    2.70
  -7  -6  -8  247.79    2.78
   7   6  -8  252.66    2.92
   6  -8   7  238.14    3.74
  -7   6   8  250.62    2.50
   8  -7   6  247.03    3.99
  -6   8   7  248.26    2.32
   8   7  -6  246.04    3.07
   7  -6   8  244.82    3.84
  -7   6   8  240.98    2.40
  -7  -6  -8  248.96    2.53
   5   8  -7  327.19    3.39
   8  -7   5  306.70    4.30
  -7  -5  -8  311.45    3.16
  -7   5   8  306.41    2.78
   7   5  -8  305.82    3.14
  -8   7   5  309.93    3.35
   5  -8   7  313.21    4.14
   8   7  -5  306.11    3.39
   7  -5   8  331.79    4.48
  -8  -7  -5  334.38    3.18
  -7   5   8  321.27    2.67
   7   4  -8   30.07    1.07
  -7   4   8   29.44    0.99
   4  -8   7   31.21    1.41
  -8  -7  -4   30.56    1.04
   8  -7   4   30.43    1.60
   7  -4   8   29.36    1.51
   8   7  -4   27.46    1.24
  -4   8   7   30.26    0.69
  -8   7   4   29.37    1.18
  -7   4   8   31.02    0.87
  -7  -4  -8   29.01    1.07
  -7  -4  -8   30.62    1.15
   4   8  -7   31.12    1.10
  -4  -8  -7   30.37    0.77
  -8  -7  -3  116.23    1.96
  -7   3   8  111.31    1.80
   7   3  -8  119.08    1.94
  -3   8   7  118.50    1.16
   7  -3   8  121.96    2.67
   8   7  -3  116.31    2.23
  -7  -3  -8  115.11    2.07
  -7  -3  -8  115.08    2.06
   8  -7   3  114.80    2.69
  -8   7   3  118.79    2.26
  -3  -8  -7  111.68    1.28
   3   8  -7  115.28    2.01
   3  -8   7  112.29    2.33
  -7   3   8  120.15    1.62
   8  -7   2  454.33    4.95
  -2   8   7  457.27    2.14
   7  -2   8  438.75    4.65
  -7  -2  -8  469.73    4.20
  -2  -8  -7  448.91    2.33
  -7   2   8  445.99    3.48
   7   2  -8  471.38    3.65
  -8   7   2  450.34    4.39
   2   8  -7  446.83    3.80
  -7   2   8  454.91    3.10
   2  -8   7  438.45    4.32
   8   7  -2  451.85    4.29
  -8  -7  -1  336.68    3.31
  -8   7   1  340.29    3.85
   8   7  -1  352.97    3.80
   8  -7   1  347.07    4.29
   1  -8   7  345.12    3.68
  -7   1   8  357.74    2.77
  -7  -1  -8  336.97    3.58
  -1   8   7  343.39    1.80
   7  -1   8  349.38    4.04
   7   0  -8    0.38    0.49
  -7   0   8   -0.43    0.42
  -8  -7   0    1.01    0.52
  -7   0  -8    0.43    0.68
  -8   7   0    0.82    0.81
   0  -8  -7   -0.24    0.24
   8   7   0    1.12    0.59
   7   0   8    1.21    0.73
   1  -8  -7  347.53    2.03
  -7   1  -8  350.76    3.83
  -1  -8   7  342.32    3.45
   7  -1  -8  349.77    3.18
  -8   7  -1  347.07    4.09
  -1   8  -7  344.20    3.31
   1   8   7  344.16    2.12
  -8  -7   1  348.48    3.45
   7   1   8  346.38    3.72
   8  -7  -1  351.76    4.07
  -2  -8   7  436.54    3.79
  -7  -2   8  456.50    3.47
  -7   2  -8  455.83    4.36
  -2   8  -7  444.12    3.80
  -8   7  -2  427.27    4.55
   2  -8  -7  445.69    2.46
   7   2   8  445.68    4.04
   8   7   2  454.47    4.40
   2   8   7  451.57    2.69
  -3  -8   7  123.76    2.07
   8  -7  -3  119.97    2.29
  -3   8  -7  113.17    2.04
   3   8   7  114.50    1.57
   8   7   3  116.57    2.28
  -8   7  -3  104.97    2.35
   3  -8  -7  112.00    1.36
  -7   3  -8  116.18    2.29
  -7  -3   8  119.97    1.90
  -8  -7   3  117.01    2.11
  -4  -8   7   29.53    1.16
   4  -8  -7   27.73    0.77
   4   8   7   29.15    0.96
   8  -7  -4   28.54    1.16
  -7   4  -8   28.75    1.22
  -7  -4   8   29.09    1.08
  -8  -7   4   31.09    1.18
  -8   7  -4   27.67    1.37
  -4   8  -7   27.19    1.12
   5  -8  -7  322.50    2.57
  -5   8  -7  316.34    3.52
  -8   7  -5  300.97    3.82
   8   7   5  299.23    3.65
   8  -7  -5  322.52    3.32
  -7  -5   8  327.57    3.27
  -7   5  -8  315.17    3.77
  -5  -8   7  315.74    3.33
   5   8   7  299.73    2.94
  -8  -7   5  322.32    3.44
  -8   7  -6  242.61    3.48
   8  -7  -6  239.61    2.68
  -6  -8   7  246.35    3.00
   6   8   7  248.53    2.90
  -8  -7   6  251.54    3.04
  -7   6  -8  240.59    3.26
  -6   8  -7  233.37    3.12
  -7  -6   8  247.82    2.89
   6  -8  -7  242.38    2.34
  -7   8  -7   19.20    1.16
   7  -8  -7   21.69    0.86
  -7  -8   7   20.55    1.07
  -7  -7   8   19.26    1.05
  -8   7  -7   19.74    1.22
  -8  -7   7   20.53    1.04
  -7   7  -8   22.57    1.15
   8  -7  -7   20.30    0.86
   7   8   7   17.89    1.01
  -8  -8  -8   81.47    1.47
  -8  -8  -8   81.66    1.64
  -8   8   8   77.79    1.49
   8  -8   8   75.61    2.28
   8  -8   7   66.35    2.19
   7   8  -8   64.11    1.56
   8   8  -7   56.94    1.53
  -8  -8  -7   61.54    1.32
  -7  -8  -8   58.68    1.34
  -8  -7  -8   61.16    1.34
   8   7  -8   58.92    1.52
   7  -8   8   65.51    2.10
  -8   7   8   61.96    1.35
  -8  -8  -7   60.22    1.45
  -7  -8  -8   63.47    1.23
  -8   8   7   60.66    1.41
  -7   8   8   60.05    1.23
   8  -7   8   57.70    2.04
  -8   6   8   40.27    1.13
  -6  -8  -8   39.43    0.93
   6  -8   8   38.38    1.66
   8   8  -6   37.67    1.29
  -8   8   6   34.53    1.19
  -8  -6  -8   41.44    1.15
   6   8  -8   33.44    1.24
   8  -6   8   39.28    1.79
  -8  -6  -8   41.17    1.27
  -6   8   8   40.19    0.91
  -8  -8  -6   39.92    1.14
   8   6  -8   33.89    1.25
  -8   6   8   38.35    1.16
   8  -8   6   33.71    1.75
   8  -5   8  112.09    2.71
  -8  -5  -8  108.80    2.02
   5  -8   8  105.12    2.53
  -8   5   8  106.85    1.70
   5   8  -8  110.08    2.03
  -8   8   5  109.45    2.04
   8   8  -5  108.61    2.11
   8   5  -8  110.21    2.00
   8  -8   5  103.16    2.58
  -5   8   8  108.51    1.24
  -8   5   8  108.46    1.87
  -8   4   8  209.61    2.57
  -8  -4  -8  205.79    2.78
   8  -8   4  211.18    3.59
   8   4  -8  208.17    2.67
  -8  -4  -8  211.76    2.74
  -4  -8  -8  198.39    1.69
  -8   4   8  204.81    2.24
  -4   8   8  217.55    1.51
   4  -8   8  203.37    3.29
  -8  -8  -4  213.14    2.55
  -8   8   4  207.48    2.83
   4   8  -8  214.48    2.71
   8   8  -4  210.22    2.94
   3   8  -8  107.37    1.96
  -8  -8  -3  104.50    1.85
  -8   3   8  103.11    1.86
  -3   8   8  106.36    0.95
   8   8  -3  104.49    2.06
   8  -8   3  109.70    2.63
  -8  -3  -8  104.81    2.10
  -3  -8  -8  109.72    1.19
   8  -3   8  107.91    2.50
   3  -8   8  107.40    2.39
  -8   3   8  104.45    1.62
   8   3  -8  110.37    1.95
  -8   8   3  103.56    2.14
   8  -2   8    8.39    1.07
  -8   8   2    6.46    0.90
  -2  -8  -8    6.60    0.35
   8   2  -8    7.03    0.64
  -8   2   8    7.43    0.69
  -8   2   8    5.45    0.57
  -8  -8  -2    4.98    0.72
   8   8  -2    5.89    0.84
   2  -8   8    5.59    0.91
   2   8  -8    7.08    0.74
   8  -8   2    5.62    0.95
  -2   8   8    6.21    0.26
   1  -8   8  138.46    2.44
   8  -1   8  139.16    2.71
  -1  -8  -8  143.15    1.11
  -1   8   8  138.38    1.01
  -8   1   8  145.14    1.93
   1   8  -8  142.77    2.19
   8  -8   1  138.47    2.81
  -8  -1  -8  143.37    2.52
  -8   1   8  147.94    2.18
   8   8  -1  140.37    2.46
  -8  -8  -1  145.13    2.24
  -8   8   1  136.04    2.53
   8   1  -8  139.68    2.15
   0   8  -8  272.36    3.00
   8   8   0  288.44    3.44
   8   0   8  268.11    3.55
   8  -8   0  268.33    3.68
  -8   8   0  269.06    3.50
   0   8   8  270.15    1.58
   0  -8  -8  262.65    1.47
  -8   0  -8  284.94    3.58
   0  -8   8  274.63    3.22
  -1  -8   8  134.41    2.21
   8  -8  -1  146.86    2.76
   8   8   1  149.87    2.54
   1  -8  -8  140.21    1.15
  -1   8  -8  134.44    2.12
   1   8   8  136.59    1.29
  -8  -1   8  140.28    1.95
  -8  -8   1  150.56    2.38
  -8   8  -1  136.21    2.59
   8   2   8    4.47    0.77
   2   8   8    5.63    0.44
  -8  -8   2    5.51    0.76
  -2   8  -8    5.18    0.70
   8   8   2    5.85    0.87
   2  -8  -8    5.51    0.32
   8  -8  -2    6.93    0.93
  -3   8  -8  106.24    2.01
   8  -8  -3  114.10    2.26
   8   8   3  104.04    2.17
   3   8   8  103.66    1.48
  -8   3  -8   98.49    2.18
  -8   8  -3   95.08    2.22
  -8  -8   3   97.54    1.97
  -8  -3   8  105.48    1.84
  -4   8  -8  201.47    2.73
   4   8   8  205.92    2.28
   8   8   4  211.70    3.02
   4  -8  -8  210.41    1.73
   8  -8  -4  213.71    2.91
  -8  -8   4  202.48    2.76
  -8   4  -8  198.81    3.07
  -8   8  -4  202.82    3.17
  -8  -4   8  206.63    2.59
  -8  -8   5  104.71    2.02
  -5  -8   8  105.38    2.00
   8  -8  -5  104.99    1.97
   5  -8  -8  107.97    1.36
  -8   8  -5  108.46    2.38
  -8  -5   8  110.20    1.95
  -8   5  -8  109.04    2.36
  -5   8  -8  100.75    2.01
   8   8   5  108.59    2.20
   8   8   6   37.02    1.41
  -8   6  -8   36.43    1.41
  -8  -8   6   37.22    1.31
  -8  -6   8   40.58    1.32
   6  -8  -8   39.92    0.93
   8  -8  -6   40.42    1.23
  -8   8  -6   33.63    1.36
  -6  -8   8   38.06    1.33
  -6   8  -8   38.90    1.42
   7  -8  -8   64.38    1.22
   8  -7  -8   62.86    1.24
   8  -8  -7   61.35    1.35
  -7  -8   8   60.53    1.54
  -8  -7   8   59.64    1.59
  -8  -8   8   81.48    1.81
   8  -8  -8   81.49    1.41
   0   0   9   -0.54    0.38
   0   0  -9    0.02    0.27
  -9   0   0   -0.15    0.84
   0   1   9  144.05    1.53
   0  -1   9  143.07    1.78
   0   1  -9  146.69    1.53
  -1   9   0  142.18    1.98
   0  -1  -9  139.57    1.16
  -9   0  -1  143.10    2.68
  -9   0   1  136.84    2.54
   1   9   0  137.96    1.96
   1  -9   0  143.29    2.09
  -1  -9   0  144.38    1.99
  -9   0   1  141.75    2.62
  -2   9   0 1738.79    6.83
  -9   0   2 1799.19    8.73
   2  -9   0 1819.40    7.55
  -2  -9   0 1809.21    6.92
   0   2   9 1766.77    4.48
  -9   0   2 1765.16    8.73
   2   9   0 1776.35    6.93
   0  -2  -9 1808.96    3.40
   0   2  -9 1776.58    5.67
   0  -2   9 1725.77    6.39
  -9   0  -2 1803.19    9.25
  -3   9   0   18.46    0.85
   3  -9   0   19.21    1.04
   9   0   3   21.95    1.21
  -9   0  -3   21.79    1.18
  -9   0   3   17.91    1.03
   3   9   0   17.23    0.88
  -3  -9   0   20.11    0.90
   0  -3   9   20.66    0.88
  -9   0   3   21.43    1.19
  -9   0   4  201.57    2.92
  -9   0  -4  206.69    3.23
  -9   0   4  207.97    2.80
  -4  -9   0  213.29    2.53
   0   4  -9  202.66    2.21
   9   0   4  212.07    3.21
   4  -9   0  204.57    2.87
   0  -4   9  203.75    2.47
  -4   9   0  205.74    2.55
   5   9   0  119.55    1.98
   0   5  -9  118.85    1.80
  -9   0  -5  115.02    2.43
   5  -9   0  118.11    2.32
  -9   0   5  119.63    2.07
  -5  -9   0  119.02    1.93
  -5   9   0  122.07    2.11
   0  -5   9  114.82    1.96
   9   0   5  116.41    2.44
  -9   0  -6  705.35    5.87
   6  -9   0  701.03    5.69
  -9   0   6  700.05    5.13
  -6   9   0  697.59    5.11
  -9   0   6  709.22    4.82
  -6  -9   0  703.74    4.70
   0  -6   9  701.52    4.89
   0   7  -9    3.81    0.68
   7  -9   0    4.46    0.87
  -9   0   7    4.41    0.66
   9   0  -7    2.38    0.74
   9   0   7    3.78    0.85
  -7   9   0    4.42    0.70
   0  -7   9    2.13    0.72
   7   9   0    2.76    0.76
  -7  -9   0    2.11    0.63
  -9   0  -8  282.99    3.74
   9   0   8  279.23    3.71
  -9   0   8  284.10    2.83
   9   0  -8  279.35    3.21
   0   8  -9  268.17    2.96
   0   8   9  265.24    1.40
   0  -8  -9  273.97    1.27
  -8   9   0  278.62    3.58
   8  -9   0  283.89    3.84
   8   9   0  273.98    3.40
   0  -8   9  275.08    3.32
  -8  -9   0  291.04    3.18
  -8   9   1  148.72    2.56
  -8  -9  -1  160.37    2.40
  -9   1   8  146.13    2.05
   9   1  -8  153.23    2.40
   1   8  -9  149.95    2.26
   8  -9   1  160.29    3.10
  -1  -8  -9  151.01    1.00
   8   9  -1  157.74    2.63
   9  -1   8  144.35    2.81
   1  -8   9  144.88    2.54
  -9   1   8  144.83    2.27
   9   1  -7   51.13    1.50
  -1  -7  -9   52.61    0.52
  -7  -9  -1   54.31    1.44
   7   9  -1   48.72    1.52
   1   7  -9   55.80    1.39
   9  -1   7   52.40    1.84
  -1  -7  -9   52.82    0.64
  -7   9   1   53.88    1.61
   7  -9   1   52.37    1.80
  -9   1   7   49.47    1.30
   1  -7   9   54.76    1.54
  -9   1   7   53.59    1.49
   1   6  -9   20.11    0.93
   9  -1   6   24.77    1.39
   9   1  -6   25.56    1.20
  -9  -1  -6   23.52    1.19
   6   9  -1   22.46    1.05
   1  -6   9   19.41    0.99
  -9   1   6   25.77    1.04
   6  -9   1   21.81    1.28
  -6  -9  -1   21.84    0.92
  -6   9   1   20.51    1.06
  -9   1   6   22.33    1.10
   1  -5   9  229.70    2.86
   5   9  -1  229.49    2.74
  -9   1   5  232.55    3.10
   1   5  -9  229.65    2.48
  -5  -9  -1  237.00    2.66
  -9  -1  -5  230.47    3.37
   5  -9   1  239.90    3.32
  -9   1   5  228.94    2.85
   9  -1   5  225.97    3.38
  -5   9   1  230.32    2.79
   9   1  -5  242.26    3.29
   4   9  -1  295.24    3.05
   9  -1   4  286.75    3.75
   1   4  -9  313.13    2.73
   1  -4   9  283.07    3.06
  -4  -9  -1  305.65    2.91
  -9  -1  -4  296.72    3.75
   4  -9   1  303.15    3.56
   9   1  -4  310.31    3.75
  -9   1   4  303.24    3.49
  -4   9   1  296.46    2.95
  -3   9   1  159.44    2.11
  -1  -3  -9  153.95    1.01
  -3  -9  -1  155.04    2.03
   3  -9   1  153.63    2.45
  -9  -1  -3  154.56    2.76
  -9   1   3  158.04    2.70
   3   9  -1  152.50    2.19
   1  -3   9  157.09    2.24
  -2   9   1   25.39    0.91
  -9  -1  -2   25.54    1.37
  -2  -9  -1   27.75    0.95
   1   2  -9   27.10    0.78
  -9  -1  -2   23.56    1.28
   9  -1   2   24.58    1.28
  -9   1   2   21.46    1.27
   2   9  -1   26.64    0.97
   1  -2   9   27.20    1.01
  -9   1   2   25.40    1.25
   2  -9   1   25.90    1.08
  -1   2   9   27.25    0.54
  -1  -2  -9   25.66    0.52
  -9   1   1  201.97    3.14
   9  -1   1  195.58    2.96
  -9   1   1  212.12    3.18
  -9  -1  -1  202.35    3.09
   1   9  -1  201.73    2.43
   1   1  -9  212.03    1.81
   1  -1   9  207.79    2.31
  -1   1   9  210.80    1.64
  -9  -1  -1  198.40    3.04
   1  -9   1  209.40    2.59
  -1   9   1  205.48    2.29
   0  -9   1  339.92    3.11
   0  -9  -1  331.14    2.86
  -9  -1   0  330.89    3.86
  -9   1   0  336.96    4.02
   1   0   9  341.28    2.79
   0   9  -1  338.46    3.09
   0   9   1  331.58    2.88
  -1   0  -9  345.92    2.20
  -9  -1   0  330.94    3.85
  -1   0   9  342.19    2.30
  -1   1  -9  211.83    1.90
  -1   9  -1  204.03    2.42
   1   9   1  204.93    2.29
  -1  -9   1  200.43    2.40
   1   1   9  213.21    2.04
  -9  -1   1  202.74    3.02
  -9   1  -1  201.42    3.20
   1  -1  -9  205.76    1.37
  -1  -1   9  196.29    1.91
   1  -9  -1  202.28    2.36
  -9  -1   1  203.29    2.99
  -1   2  -9   23.74    0.77
   2   9   1   24.19    0.92
   1  -2  -9   25.42    0.40
  -2  -9   1   21.62    0.96
   2  -9  -1   24.74    1.01
  -9  -1   2   22.40    1.22
  -2   9  -1   27.13    1.01
  -9   1  -2   23.58    1.31
   1   2   9   25.82    0.69
  -1  -2   9   24.69    0.82
   3   9   1  161.88    2.15
  -3   9  -1  152.63    2.20
  -9  -1   3  152.73    2.54
  -9   1  -3  156.64    2.85
  -9  -1   3  151.04    2.41
   3  -9  -1  160.71    2.37
   1   3   9  154.57    1.21
  -3  -9   1  159.91    2.20
  -1  -3   9  164.29    2.02
  -9  -1   4  290.09    3.24
  -1   4  -9  300.47    2.73
  -4   9  -1  284.56    3.06
   9   1   4  285.97    3.61
  -4  -9   1  296.70    3.02
  -9   1  -4  286.29    3.88
   4  -9  -1  295.72    3.34
   4   9   1  289.60    2.87
  -1  -4   9  296.35    2.83
  -1  -5   9  230.25    2.64
  -5  -9   1  226.60    2.72
   5   9   1  239.75    2.75
  -9   1  -5  223.88    3.41
   9   1   5  218.09    3.18
  -9  -1   5  224.54    2.82
   5  -9  -1  233.62    3.10
  -5   9  -1  228.58    2.88
  -1  -6   9   21.68    0.97
  -1   6  -9   23.05    0.99
   9   1   6   21.29    1.10
   6   9   1   21.96    1.06
  -9  -1   6   22.84    0.98
  -6   9  -1   23.67    1.14
  -6  -9   1   23.24    1.07
  -1  -7   9   52.42    1.47
  -9   1  -7   54.59    1.81
  -1   7  -9   52.77    1.34
  -7  -9   1   50.24    1.36
  -9  -1   7   49.59    1.29
   7  -9  -1   56.63    1.75
   9   1   7   55.42    1.74
  -7   9  -1   48.89    1.55
   7   9   1   49.58    1.48
  -1  -8   9  152.90    2.43
   1   8   9  141.41    1.27
  -1   8  -9  149.04    2.25
   8  -9  -1  152.08    2.76
  -9  -1   8  155.94    2.16
  -9   1  -8  147.76    2.69
   9   1   8  151.93    2.72
  -8   9  -1  144.16    2.65
  -8  -9   1  152.80    2.35
   8   9   1  148.79    2.52
  -8  -9  -2   17.27    0.88
  -2  -8  -9   18.38    0.44
   2  -8   9   18.31    1.16
  -8   9   2   15.20    1.04
   8  -9   2   15.89    1.20
   2   8  -9   16.82    0.97
   9  -2   8   16.94    1.14
   8   9  -2   16.36    1.06
  -9   2   8   18.81    0.87
  -9   2   7  702.08    4.55
   9  -2   7  682.71    6.05
   7   9  -2  717.11    5.19
   2   7  -9  714.12    4.67
  -2  -7  -9  684.18    2.26
  -9   2   7  700.57    5.05
   9   2  -7  688.23    5.09
   2  -7   9  695.55    5.47
  -7   9   2  698.19    5.11
  -7  -9  -2  693.96    4.58
  -2  -7  -9  683.49    2.77
   9   2  -6   65.72    1.73
  -9   2   6   65.10    1.66
  -2  -6  -9   63.00    0.87
  -9  -2  -6   71.75    1.93
   6  -9   2   70.91    2.05
   2   6  -9   71.19    1.52
  -6   9   2   68.37    1.62
   2  -6   9   64.23    1.76
  -6  -9  -2   64.30    1.46
  -2  -6  -9   63.75    0.68
   9  -2   6   60.27    1.86
  -9   2   5  112.93    2.14
  -9   2   5  110.83    2.19
  -2  -5  -9  112.19    0.91
  -9  -2  -5  108.75    2.39
  -2  -5  -9  109.91    1.11
   9   2  -5  123.84    2.38
   5  -9   2  110.04    2.37
   5   9  -2  112.30    1.99
  -5  -9  -2  114.44    1.82
   2  -5   9  113.68    2.18
  -9  -2  -5  114.66    2.40
  -5   9   2  117.85    1.97
   9  -2   5  107.27    2.46
   2   5  -9  114.11    1.79
   9  -2   4   90.11    2.23
  -9   2   4   96.88    2.12
  -2  -4  -9   93.10    1.04
  -4  -9  -2   94.06    1.61
   4  -9   2   89.47    2.10
  -9  -2  -4   98.94    2.20
   2  -4   9   89.70    1.91
  -9  -2  -4   94.30    2.22
  -9   2   4   92.65    1.99
   2   4  -9   90.93    1.50
  -4   9   2   94.69    1.67
   4   9  -2   92.72    1.81
   9   2  -4   90.16    2.11
   9  -2   3 1111.91    7.39
  -9   2   3 1116.10    6.94
  -3  -9  -2 1149.17    5.27
  -3   9   2 1157.87    5.33
  -9  -2  -3 1183.83    7.34
  -9   2   3 1180.05    7.29
  -2  -3  -9 1169.20    3.74
   2  -3   9 1148.97    6.25
   3  -9   2 1167.75    6.81
   3   9  -2 1164.03    5.96
   9   2  -3 1180.43    7.31
  -9  -2  -3 1162.02    7.22
   2  -2   9   75.17    1.66
   2   9  -2   76.11    1.62
  -9   2   2   77.14    2.02
   2  -9   2   78.59    1.74
   9   2  -2   71.49    1.99
  -9  -2  -2   73.15    1.88
   9  -2   2   78.11    2.00
   2   2  -9   76.58    1.23
  -2  -9  -2   69.67    1.33
  -2   2   9   72.96    0.76
  -2   1   9  684.94    2.67
  -9  -2  -1  707.99    5.54
  -1   9   2  710.35    4.03
   2  -1   9  722.52    4.60
   1   9  -2  703.98    4.55
  -9  -2  -1  735.86    5.75
  -9   2   1  742.11    5.94
   2   1  -9  696.64    3.22
   1  -9   2  709.45    4.82
   0  -9   2  178.30    2.33
  -9  -2   0  176.78    2.81
  -2   0   9  193.21    1.65
  -9   2   0  184.93    3.07
   0   9  -2  181.24    2.32
   2   0   9  186.76    2.25
  -9  -2   0  186.28    2.87
   0   9   2  181.86    2.06
  -2   0  -9  185.14    1.81
   9  -2   0  184.64    2.95
   0  -9  -2  184.97    2.06
   2   1   9  738.54    4.09
   9  -2  -1  709.02    5.44
  -9  -2   1  718.64    5.31
  -9   2  -1  713.03    5.90
   1  -9  -2  740.34    4.24
  -9  -2   1  709.62    5.46
   1   9   2  732.12    4.15
   2  -1  -9  707.33    2.56
  -1  -9   2  690.99    4.48
  -2   1  -9  729.77    3.76
  -1   9  -2  726.09    4.64
  -2  -9   2   75.06    1.55
  -2  -2   9   76.94    1.28
  -9  -2   2   72.11    1.71
  -2   9  -2   69.86    1.56
   2   2   9   74.79    1.21
   2  -2  -9   71.83    0.74
   9  -2  -2   75.69    1.79
   2  -9  -2   72.44    1.48
   2   9   2   73.75    1.40
  -9   2  -2   75.69    2.10
  -2   2  -9   76.78    1.35
  -3   9  -2 1150.62    5.99
   2   3   9 1118.35    3.92
  -3  -9   2 1156.26    5.89
   3  -9  -2 1198.58    6.05
  -2   3  -9 1186.26    5.26
  -9  -2   3 1162.45    6.58
  -2  -3   9 1181.19    5.15
  -2   4  -9   94.30    1.60
  -4  -9   2   91.51    1.74
   4   9   2   91.45    1.64
  -9   2  -4   91.63    2.29
   4  -9  -2   96.57    1.93
  -9  -2   4   92.51    1.87
  -4   9  -2   86.82    1.83
   5   9   2  109.60    1.91
   5  -9  -2  108.31    2.09
  -5  -9   2  113.34    2.00
  -2   5  -9  110.18    1.79
  -9  -2   5  112.64    2.05
  -5   9  -2  113.37    2.09
   6  -9  -2   67.60    1.75
  -6  -9   2   67.55    1.63
  -9   2  -6   62.60    1.85
  -9  -2   6   67.13    1.57
  -2   6  -9   64.50    1.45
   6   9   2   66.06    1.61
  -6   9  -2   63.68    1.71
  -2   7  -9  696.28    4.69
   9   2   7  719.02    5.55
  -9   2  -7  683.83    5.76
  -9  -2   7  718.31    4.71
  -7  -9   2  695.95    4.91
  -2  -7   9  684.41    4.74
   7   9   2  698.13    5.12
  -7   9  -2  698.67    5.48
  -9  -2   8   16.57    0.84
   8  -9  -2   19.42    1.17
  -9   2  -8   20.92    1.18
  -2  -8   9   17.06    0.97
  -8   9  -2   14.13    1.14
  -8  -9   2   16.57    0.93
  -2   8  -9   20.58    1.03
   8   9   2   18.57    1.01
  -9  -3  -8  204.06    2.95
  -9   3   8  205.12    2.37
   9   3  -8  213.54    2.76
  -8   9   3  215.49    2.92
  -3  -8  -9  219.83    1.55
  -9   3   8  213.43    2.76
  -3  -8  -9  213.30    1.79
   9  -3   8  204.80    3.43
   3  -8   9  207.99    3.26
   8  -9   3  199.04    3.46
  -3   8   9  199.97    1.02
   3   8  -9  214.37    2.70
   8   9  -3  202.03    2.87
   3   7  -9   21.32    0.91
   7   9  -3   18.70    1.03
  -9  -3  -7   20.26    1.18
   7  -9   3   20.49    1.37
  -3  -7  -9   20.63    0.63
   3  -7   9   20.39    1.25
  -7   9   3   22.65    1.08
   9  -3   7   19.33    1.35
  -3  -7  -9   21.25    0.52
  -9   3   7   23.74    1.12
  -9  -3  -7   22.56    1.14
  -7  -9  -3   20.31    0.96
  -3  -6  -9   21.87    0.52
  -3  -6  -9   20.41    0.63
   9  -3   6   18.66    1.32
  -6   9   3   20.55    0.95
  -6  -9  -3   20.40    0.84
  -9  -3  -6   18.60    1.13
  -9   3   6   19.89    0.98
   6  -9   3   16.76    1.26
   6   9  -3   24.06    1.03
   3  -6   9   18.63    1.14
   3   6  -9   21.81    0.94
  -9   3   6   21.82    1.06
  -9  -3  -6   19.03    1.15
  -9   3   5  155.54    2.51
  -9   3   5  169.14    2.70
  -9  -3  -5  164.81    2.78
   9   3  -5  152.48    2.54
   3   5  -9  159.51    2.08
  -9  -3  -5  156.33    2.65
   5  -9   3  154.86    2.87
   3  -5   9  158.23    2.66
  -5  -9  -3  149.91    2.00
  -3  -5  -9  150.05    1.34
   9  -3   5  148.83    2.89
  -5   9   3  164.24    2.19
  -3  -5  -9  165.55    1.65
  -3  -4  -9  391.98    2.56
  -9  -3  -4  380.35    4.05
  -4  -9  -3  375.35    3.00
  -9   3   4  384.78    4.14
  -9  -3  -4  383.69    4.11
   9   3  -4  377.03    4.01
  -4   9   3  379.86    3.08
   9  -3   4  383.02    4.55
   3  -4   9  365.80    3.90
   4  -9   3  370.09    4.09
   3   4  -9  380.43    3.01
   4   9  -3  389.74    3.55
  -3  -4  -9  381.74    2.35
  -9  -3  -3  109.61    2.31
  -3   9   3  107.10    1.60
   9  -3   3   96.73    2.32
  -3   3   9  103.22    0.77
   9   3  -3  104.69    2.23
  -9   3   3   89.90    2.15
  -3  -9  -3  106.36    1.60
   3   3  -9  103.28    1.53
   3  -3   9  101.16    2.04
  -3  -3  -9   97.14    1.33
   3  -9   3  105.18    2.17
   3   9  -3  100.68    1.86
  -9  -3  -3   95.61    2.12
  -9  -3  -2    1.63    0.64
   9  -3   2    2.21    0.84
   2   9  -3    2.00    0.65
  -9  -3  -2    2.19    0.78
   3  -2   9    3.99    0.68
  -3  -2  -9    1.54    0.41
  -3   2   9    1.64    0.23
  -2   9   3    2.01    0.42
   3   2  -9    1.51    0.42
   9   3  -2    0.95    0.87
   2  -9   3    0.89    0.57
  -2  -9  -3    0.54    0.40
   3  -1   9  160.86    2.36
  -9  -3  -1  158.96    2.57
   9  -3   1  155.24    2.81
  -9   3   1  150.77    2.69
   9   3  -1  153.34    2.75
  -3   1   9  154.96    1.34
   1   9  -3  154.64    2.25
   1  -9   3  154.30    2.33
   9   3   0  425.81    4.57
   0  -9   3  411.37    3.63
  -9   3   0  419.54    4.61
  -9  -3   0  417.53    4.02
  -3   0   9  417.75    2.45
   3   0  -9  419.04    2.38
   0   9  -3  404.48    3.52
   3   0   9  428.65    3.60
   9  -3   0  407.35    4.35
   0   9   3  423.37    2.99
   0  -9  -3  431.30    2.98
  -3   0  -9  433.95    3.09
  -9   3  -1  153.43    2.89
  -1  -9   3  157.57    2.25
  -3  -1   9  160.42    1.69
  -9  -3   1  153.18    2.45
   1   9   3  156.66    1.86
  -1   9  -3  155.75    2.21
  -3   1  -9  156.62    1.95
   1  -9  -3  163.91    1.95
  -2   9  -3    1.30    0.63
   3  -2  -9    1.74    0.27
  -3  -2   9    2.20    0.41
  -2  -9   3    1.96    0.49
  -9  -3   2    0.18    0.52
   9  -3  -2    1.16    0.70
  -9   3  -2    1.59    0.66
   2  -9  -3    1.26    0.45
   3   2   9    0.60    0.43
   2   9   3    2.26    0.50
  -3  -3   9   96.53    1.51
   3   3   9   99.41    1.37
  -3   9  -3   98.80    1.83
   3  -9  -3   99.04    1.73
  -9  -3   3   98.89    1.96
  -9   3  -3   97.76    2.36
  -3  -9   3  102.90    1.87
   3   9   3  103.32    1.63
  -3   3  -9  100.66    1.69
  -3   4  -9  387.27    3.32
  -9  -3   4  382.29    3.69
  -3  -4   9  376.32    3.11
  -4  -9   3  364.82    3.47
   4  -9  -3  365.80    3.36
   4   9   3  390.53    3.25
  -4   9  -3  362.77    3.56
   5   9   3  156.07    2.17
  -3   5  -9  151.95    2.19
  -9  -3   5  156.67    2.31
  -5   9  -3  150.56    2.43
  -9   3  -5  155.05    2.88
   5  -9  -3  155.60    2.36
  -5  -9   3  161.54    2.40
   6   9   3   19.85    0.97
  -6  -9   3   22.20    1.06
  -9  -3   6   20.98    1.04
  -6   9  -3   18.97    1.12
   6  -9  -3   19.26    1.01
  -3   7  -9   20.96    1.04
  -3  -7   9   18.23    0.88
   7   9   3   18.69    0.96
  -9  -3   7   18.56    0.88
   7  -9  -3   19.48    1.10
  -9   3  -7   18.03    1.13
  -7  -9   3   19.14    0.99
   3  -8  -9  208.14    1.22
  -9  -3   8  216.05    2.65
  -9   3  -8  209.69    3.24
   8  -9  -3  214.18    3.05
  -8   9  -3  200.48    3.14
  -8  -9   3  206.38    2.80
   8   9   3  215.26    2.97
  -3  -8   9  203.90    2.68
   4  -8   9  175.84    3.04
   9  -4   8  177.19    3.25
  -9  -4  -8  180.13    2.65
   8  -9   4  174.48    3.28
  -8  -9  -4  171.23    2.27
  -9   4   8  182.66    2.54
   9   4  -8  170.76    2.50
   8   9  -4  168.48    2.68
  -8   9   4  174.94    2.57
   4   8  -9  171.66    2.44
  -4  -8  -9  161.54    1.44
  -4  -8  -9  172.70    1.78
   7   9  -4   75.95    1.79
  -7  -9  -4   80.06    1.53
  -4   7   9   78.78    0.72
  -7   9   4   81.58    1.73
  -4   7   9   78.41    0.85
  -4  -7  -9   78.03    1.03
   4   7  -9   80.70    1.68
  -9  -4  -7   76.29    1.79
  -9  -4  -7   76.56    1.82
  -9   4   7   79.86    1.78
   9   4  -7   76.02    1.77
   9  -4   7   71.89    2.13
   4  -7   9   80.22    2.18
  -9   4   7   75.33    1.62
  -4  -7  -9   81.36    1.27
   6   9  -4  487.22    4.13
  -9   4   6  482.65    4.33
  -4  -6  -9  499.63    3.06
  -4  -6  -9  501.74    2.63
   6  -9   4  483.07    5.11
  -4   6   9  493.05    1.79
   4  -6   9  487.97    4.93
  -9   4   6  488.16    4.23
  -9  -4  -6  498.18    4.57
  -6   9   4  500.31    3.82
  -6  -9  -4  475.32    3.47
   9   4  -6  502.03    4.41
  -4   6   9  478.46    1.75
  -9  -4  -6  506.13    4.46
  -5  -9  -4   67.51    1.31
   9  -4   5   62.74    1.99
  -4  -5  -9   62.06    1.02
  -9   4   5   66.13    1.76
   9   4  -5   63.46    1.66
   4  -5   9   61.35    1.81
   5  -9   4   60.88    1.86
  -9  -4  -5   62.66    1.63
  -9  -4  -5   64.27    1.75
   4   5  -9   61.19    1.33
  -4   5   9   62.03    0.74
  -5   9   4   64.93    1.35
   4   4  -9  140.16    1.93
  -9  -4  -4  145.73    2.60
   4   9  -4  139.59    2.19
  -4  -9  -4  143.53    1.83
  -4  -4  -9  143.14    1.68
  -4  -4  -9  144.65    1.75
  -4   4   9  136.17    1.25
   9  -4   4  138.27    2.88
   4  -4   9  142.19    2.59
   4  -9   4  134.86    2.62
  -9   4   4  134.37    2.43
  -4   4   9  142.31    0.99
  -4   9   4  143.16    1.83
  -4   3   9  148.93    1.41
  -3   9   4  155.48    1.80
  -4  -3  -9  130.74    1.73
  -3  -9  -4  143.23    1.75
  -9   4   3  150.86    2.68
  -9  -4  -3  149.05    2.42
  -4   3   9  143.51    1.12
   3   9  -4  141.85    2.20
   3  -9   4  150.23    2.61
   9  -4   3  140.77    2.81
  -9  -4  -3  140.15    2.48
   4  -3   9  152.96    2.64
  -9  -4  -2 1147.41    6.61
   4  -2   9 1096.50    6.60
   9   4  -2 1063.18    6.89
   2   9  -4 1094.93    5.88
  -2   9   4 1099.96    4.58
  -2  -9  -4 1145.66    4.66
  -4  -2  -9 1099.46    5.03
  -4   2   9 1118.93    3.47
   9  -4   2 1101.15    7.51
  -9   4   2 1149.78    7.38
   2  -9   4 1110.80    6.62
   9   4  -1  152.49    2.76
   4   1  -9  144.10    1.61
   4  -1   9  144.88    2.39
  -1   9   4  147.15    1.69
   1   9  -4  145.47    2.22
  -4   1   9  142.11    1.40
   1  -9   4  138.44    2.34
  -9   4   1  134.67    2.58
   9  -4   1  144.69    2.70
  -9  -4  -1  146.72    2.43
   0  -9   4   44.67    1.37
   0   9   4   47.62    1.02
   9  -4   0   46.91    1.70
   0  -9  -4   45.94    0.96
   4   0   9   42.80    1.35
   0   9  -4   44.35    1.25
   9   4   0   41.36    1.63
  -4   0   9   43.71    0.88
   4   0  -9   43.33    0.88
  -9   4   0   44.69    1.59
  -4   0  -9   47.20    1.19
  -9  -4   0   46.92    1.49
   4   1   9  141.04    2.10
   4  -1  -9  137.60    1.44
  -4  -1   9  147.94    1.68
   9   4   1  147.30    2.84
  -9   4  -1  134.52    2.63
   9  -4  -1  141.86    2.61
  -1   9  -4  137.28    2.11
  -9  -4   1  139.17    2.31
   1   9   4  146.63    1.73
   1  -9  -4  138.70    1.69
   4   2   9 1115.60    5.36
  -2   9  -4 1145.29    6.07
  -4  -2   9 1121.60    4.87
  -9   4  -2 1099.40    7.57
   9  -4  -2 1085.03    6.75
   2   9   4 1138.33    4.86
  -9  -4   2 1113.57    6.36
   2  -9  -4 1118.31    5.04
  -4   2  -9 1138.65    5.75
  -9   4  -3  146.84    2.87
  -9  -4   3  143.64    2.30
   9  -4  -3  152.01    2.52
  -3  -9   4  148.39    2.27
   3  -9  -4  148.88    2.01
  -4  -3   9  147.93    1.89
  -4   3  -9  147.14    2.13
   4   3   9  144.31    1.82
   9  -4  -4  137.15    2.30
   4  -9  -4  141.61    2.05
  -4  -4   9  140.81    1.98
  -4  -9   4  139.17    2.23
   4   9   4  147.16    2.01
  -9  -4   4  140.58    2.24
  -4   4  -9  140.13    2.16
  -4   9  -4  141.35    2.32
  -5  -9   4   60.08    1.54
  -9  -4   5   59.86    1.49
   5  -9  -4   62.60    1.48
  -4  -5   9   65.84    1.44
  -9   4  -5   54.88    1.86
   5   9   4   66.88    1.48
  -4   5  -9   66.31    1.56
  -5   9  -4   59.18    1.64
  -6  -9   4  502.46    4.23
   6   9   4  514.37    4.11
  -9   4  -6  489.02    5.00
   6  -9  -4  479.13    4.05
  -4  -6   9  488.62    3.89
  -9  -4   6  520.62    4.22
  -4   6  -9  484.09    4.05
  -9  -4   7   81.83    1.76
  -7  -9   4   71.51    1.70
  -9   4  -7   73.63    1.99
   7   9   4   79.90    1.80
  -7   9  -4   75.18    1.92
  -4  -7   9   80.07    1.71
  -4   7  -9   80.06    1.76
   4  -8  -9  172.17    1.30
  -4  -8   9  173.56    2.51
   8  -9  -4  176.35    2.63
  -9   4  -8  170.90    3.00
  -8  -9   4  171.15    2.60
  -4   8  -9  170.92    2.53
   8   9   4  170.40    2.67
  -8   9  -4  169.15    2.89
  -9  -4   8  177.12    2.43
  -5  -8  -9   46.87    1.05
  -5  -8  -9   49.79    0.92
  -9   5   8   44.96    1.34
  -8  -9  -5   51.20    1.28
   8  -9   5   49.97    1.91
  -9   5   8   47.65    1.26
   5  -8   9   43.00    1.81
  -9  -5  -8   49.35    1.39
   8   9  -5   49.20    1.54
  -5   8   9   47.82    0.75
  -8   9   5   43.14    1.33
   5   8  -9   46.66    1.39
   9   5  -8   48.51    1.41
   5   7  -9   55.25    1.44
   7  -9   5   46.79    1.78
   9  -5   7   51.14    1.98
  -5  -7  -9   56.26    0.98
   5  -7   9   55.27    1.89
  -5   7   9   52.07    0.79
  -5   7   9   51.51    0.86
  -9   5   7   51.94    1.43
  -5  -7  -9   52.06    1.12
  -9  -5  -7   54.54    1.47
   9   5  -7   55.15    1.51
  -7   9   5   57.44    1.41
  -9  -5  -6   21.92    1.14
  -9   5   6   23.13    1.12
   9  -5   6   21.67    1.50
  -5   6   9   21.84    0.54
   6   9  -5   23.73    1.11
  -9  -5  -6   21.81    0.96
   5  -6   9   20.98    1.36
  -5  -6  -9   24.24    0.84
   6  -9   5   24.30    1.46
  -5   6   9   21.66    0.58
  -5  -6  -9   22.68    0.71
  -6   9   5   23.01    0.90
  -6  -9  -5   26.53    0.92
   9   5  -6   22.88    1.13
   5   9  -5  253.97    3.01
  -9  -5  -5  254.08    3.28
  -9   5   5  250.32    3.24
   5   5  -9  250.17    2.63
  -5  -5  -9  245.47    2.44
   5  -9   5  241.03    3.64
  -5  -5  -9  255.42    2.22
  -5   5   9  248.05    1.89
   5  -5   9  246.52    3.53
   9  -5   5  250.20    3.90
   9   5  -5  255.11    3.23
  -5   5   9  242.28    1.58
  -9  -5  -5  248.66    3.01
  -5  -9  -5  247.91    2.36
  -5   9   5  242.87    2.35
  -4   9   5  134.90    1.66
   4   9  -5  135.05    2.20
  -9   5   4  132.32    2.45
  -9  -5  -4  128.24    2.23
   5   4  -9  126.75    1.84
   9  -5   4  119.86    2.73
  -5  -4  -9  137.66    1.92
   9   5  -4  129.70    2.36
  -5  -4  -9  129.27    1.76
  -5   4   9  129.86    1.18
  -4  -9  -5  132.91    1.69
   4  -9   5  120.92    2.54
  -9  -5  -4  125.70    2.30
  -9  -5  -3  154.74    2.47
  -5   3   9  162.74    1.39
  -9   5   3  156.62    2.74
  -5   3   9  159.06    1.68
   5  -3   9  153.21    2.70
  -5  -3  -9  156.53    2.07
   9   5  -3  154.66    2.61
   3   9  -5  159.28    2.38
   3  -9   5  158.20    2.75
  -3  -9  -5  162.70    1.78
  -3   9   5  157.06    1.69
   2  -9   5   20.70    1.09
   5  -2   9   23.42    1.22
   9  -5   2   17.89    1.22
  -2  -9  -5   19.40    0.65
  -5  -2  -9   20.11    0.88
   2   9  -5   19.91    0.93
  -2   9   5   21.84    0.69
  -9   5   2   22.12    1.17
   5   2  -9   18.99    0.75
   9   5  -2   21.45    1.24
  -5   2   9   21.87    0.61
  -9  -5  -2   20.00    1.09
   9  -5   1  228.80    3.48
  -9   5   1  233.07    3.45
  -1   9   5  209.53    1.89
  -9  -5  -1  218.19    2.86
  -5   1   9  231.53    1.89
   1  -9   5  227.59    2.99
   9   5  -1  238.53    3.36
   0  -9  -5  164.60    1.66
   5   0  -9  166.81    1.80
   9  -5   0  169.15    2.94
   5   0   9  174.10    2.60
   9   5   0  175.11    2.96
  -5   0  -9  166.78    2.29
  -9   5   0  180.76    3.07
  -9  -5   0  167.97    2.52
  -5   0   9  174.38    1.79
   0   9   5  170.94    1.71
   0  -9   5  161.80    2.46
   1   9   5  237.67    2.07
   9  -5  -1  230.19    3.26
  -9   5  -1  221.44    3.43
  -9  -5   1  226.66    2.90
  -1  -9   5  236.78    2.89
  -1   9  -5  216.78    2.66
   9   5   1  225.33    3.33
  -5  -1   9  240.07    2.21
  -5   1  -9  235.03    2.75
   5   1   9  232.00    2.79
   5  -1  -9  225.90    2.07
   9   5   2   21.15    1.29
   9  -5  -2   21.31    1.11
  -9  -5   2   20.04    1.07
  -5  -2   9   21.97    0.83
   2   9   5   20.75    0.73
   5  -2  -9   21.53    0.75
   2  -9  -5   19.44    0.74
  -2   9  -5   21.19    0.95
  -5   2  -9   19.11    0.95
  -2  -9   5   21.22    0.96
   5   2   9   22.21    0.94
   3  -9  -5  151.09    1.90
  -3   9  -5  154.26    2.33
   3   9   5  163.60    1.94
  -9   5  -3  156.17    2.96
  -5  -3   9  152.30    1.98
   9  -5  -3  149.37    2.55
  -5   3  -9  160.34    2.39
  -3  -9   5  152.15    2.30
  -4   9  -5  126.52    2.22
  -5  -4   9  128.85    1.91
  -9  -5   4  125.80    2.13
  -4  -9   5  126.91    2.15
   4   9   5  131.63    1.89
   4  -9  -5  124.69    1.84
  -9   5  -4  121.42    2.62
   9  -5  -4  132.48    2.29
  -5   4  -9  125.93    2.17
   9  -5  -5  248.70    2.92
  -5  -9   5  241.14    2.94
  -5  -5   9  254.63    2.77
  -9   5  -5  246.63    3.64
   5  -9  -5  257.88    2.79
   5   9   5  253.39    2.72
  -9  -5   5  246.07    2.95
  -5   9  -5  232.93    3.04
  -9  -5   6   23.07    1.00
  -6  -9   5   23.62    1.11
  -5  -6   9   20.83    0.92
   6  -9  -5   20.75    0.96
  -9   5  -6   21.38    1.34
   6   9   5   22.25    1.00
  -6   9  -5   19.72    1.14
  -5   6  -9   20.97    1.07
  -5  -7   9   51.72    1.40
   7  -9  -5   49.26    1.36
  -7  -9   5   50.76    1.47
  -9   5  -7   53.14    1.78
   7   9   5   53.54    1.51
  -7   9  -5   50.78    1.57
  -5   7  -9   53.12    1.48
  -9  -5   7   51.02    1.40
  -5  -8   9   48.57    1.43
  -9   5  -8   44.48    1.59
   8   9   5   51.31    1.59
   8  -9  -5   44.87    1.38
  -9  -5   8   46.71    1.33
  -8  -9   5   48.97    1.48
   5  -8  -9   46.33    0.78
  -8   9  -5   42.72    1.50
  -5   8  -9   43.85    1.46
  -8  -9  -6   51.97    1.24
   6  -8   9   45.27    1.73
  -6  -8  -9   52.47    1.01
  -9   6   8   51.60    1.36
   9  -6   8   44.62    1.86
  -8   9   6   49.86    1.34
   8  -9   6   46.20    1.92
   6   8  -9   47.93    1.34
  -9  -6  -8   52.85    1.33
  -6   8   9   50.14    0.91
   9   6  -8   47.69    1.51
  -6  -8  -9   48.73    1.16
  -9   6   8   49.45    1.32
  -6  -7  -9  306.88    2.79
   7  -9   6  313.23    4.41
   6  -7   9  296.15    4.11
   7   9  -6  299.98    3.34
   9  -6   7  290.36    4.29
  -9   6   7  299.83    3.21
   6   7  -9  312.95    3.21
  -6  -7  -9  311.05    2.43
  -9  -6  -7  317.54    3.19
  -6   7   9  300.50    2.20
  -7   9   6  308.84    2.92
  -6   7   9  298.26    2.26
   9   6  -7  310.65    3.52
  -9  -6  -6  101.99    1.92
   6  -6   9  101.52    2.45
   6   6  -9   95.26    1.76
  -6  -6  -9  107.38    1.54
  -9   6   6  108.01    2.12
  -6   6   9   99.52    1.36
   9  -6   6  102.77    2.67
  -6   6   9  100.37    1.26
   6   9  -6  104.59    2.03
  -6   9   6  107.11    1.63
   9   6  -6  101.55    2.12
   6  -9   6  106.07    2.54
  -6  -9  -6  107.47    1.63
   5   9  -6   89.71    1.84
  -6   5   9   90.76    1.16
   9   6  -5   93.42    2.04
   9  -6   5   91.16    2.52
  -5  -9  -6   92.35    1.42
  -5   9   6   93.88    1.41
  -9   6   5   86.76    1.95
  -6   5   9   90.41    1.35
   6  -5   9   91.29    2.34
   5  -9   6   97.36    2.45
  -9  -6  -5   89.07    1.83
  -4   9   6   57.49    1.04
   6  -4   9   54.87    1.81
   6   4  -9   53.21    1.27
  -6   4   9   53.65    0.91
  -6   4   9   58.17    1.14
   9   6  -4   57.18    1.67
  -9   6   4   53.32    1.61
  -4  -9  -6   60.05    1.11
   4  -9   6   52.86    1.80
  -6  -4  -9   55.64    1.30
  -9  -6  -4   59.03    1.52
   4   9  -6   54.20    1.43
  -9   6   3  458.25    4.54
  -6   3   9  464.10    2.61
   9  -6   3  453.65    5.11
   6  -3   9  449.49    4.76
   3   9  -6  462.09    3.96
  -3  -9  -6  469.21    2.82
   6   3  -9  471.23    3.50
  -9  -6  -3  450.95    3.97
  -6   3   9  468.05    3.17
   3  -9   6  449.97    4.61
   9   6  -3  463.30    4.39
  -2   9   6  259.39    1.95
   6  -2   9  265.66    3.60
  -2  -9  -6  261.18    2.00
   9  -6   2  242.89    3.64
  -6  -2  -9  258.28    2.91
   9   6  -2  258.44    3.34
  -9   6   2  256.21    3.50
  -9  -6  -2  247.30    3.01
   6   2  -9  253.39    2.50
  -6   2   9  260.87    2.06
   2   9  -6  264.43    3.04
   2  -9   6  248.23    3.30
  -6   1   9  343.32    2.52
   6   1  -9  319.96    2.73
  -1  -9  -6  330.04    2.18
   6  -1   9  323.40    3.78
   1   9  -6  317.75    3.27
  -1   9   6  331.34    2.18
  -9  -6  -1  307.61    3.35
   1  -9   6  322.80    3.54
   0  -9  -6   34.09    0.75
  -9   6   0   38.31    1.58
   9  -6   0   38.39    1.60
   0   9  -6   39.05    1.23
  -6   0  -9   37.36    1.24
   9   6   0   36.64    1.47
  -6   0   9   38.84    0.95
   0   9   6   37.74    0.80
  -9  -6   0   38.61    1.25
   6   0   9   35.77    1.36
   0  -9   6   37.08    1.29
  -1  -9   6  323.29    3.40
  -9  -6   1  322.15    3.44
   6   1   9  324.77    3.49
   9  -6  -1  311.88    3.89
   6  -1  -9  330.24    2.74
  -9   6  -1  310.24    3.98
   9   6   1  319.64    3.95
   1   9   6  314.00    2.22
  -6   1  -9  290.19    3.26
  -1   9  -6  323.16    3.32
  -6  -1   9  292.89    2.55
   1  -9  -6  317.20    2.24
  -2  -9   6  247.03    2.94
   6   2   9  261.01    2.97
   9  -6  -2  253.72    3.39
  -9  -6   2  246.41    2.96
   2   9   6  262.48    2.20
  -2   9  -6  252.27    3.00
  -9   6  -2  240.46    3.52
  -6   2  -9  259.68    3.12
   2  -9  -6  252.58    2.14
  -6  -2   9  264.92    2.57
   9   6   2  254.43    3.56
   9  -6  -3  460.71    4.41
   3  -9  -6  456.55    3.04
  -9   6  -3  449.68    4.82
  -6  -3   9  459.20    3.47
  -6   3  -9  477.18    4.27
   9   6   3  474.94    4.84
  -3  -9   6  456.84    4.00
   3   9   6  452.40    3.12
  -3   9  -6  450.27    3.99
   6   3   9  476.31    3.80
  -9  -6   3  468.34    4.09
  -4   9  -6   52.87    1.54
   9  -6  -4   54.67    1.57
  -4  -9   6   57.74    1.52
   4   9   6   57.51    1.25
   4  -9  -6   54.88    1.19
  -6  -4   9   54.14    1.33
  -9   6  -4   55.76    1.88
  -9  -6   5   95.18    1.99
   9  -6  -5   89.69    1.82
  -9   6  -5   88.47    2.29
  -6   5  -9   94.81    2.02
   5  -9  -6   86.35    1.51
  -5  -9   6   92.84    1.88
  -6  -5   9   91.92    1.75
   5   9   6   90.98    1.64
  -5   9  -6   81.12    1.87
  -9   6  -6  104.70    2.47
   9  -6  -6  102.78    1.84
  -6  -6   9  100.72    1.87
  -6  -9   6  103.09    2.05
   6  -9  -6   97.96    1.66
  -6   6  -9  103.22    2.11
   6   9   6   99.69    1.86
  -6   9  -6   98.73    2.09
  -9  -6   6  100.93    1.99
  -6  -7   9  309.06    3.27
  -9   6  -7  296.42    3.88
  -7  -9   6  303.31    3.38
   7   9   6  315.92    3.44
   7  -9  -6  307.41    3.04
  -9  -6   7  313.80    3.37
  -7   9  -6  294.77    3.64
  -6   7  -9  301.12    3.50
   8  -9  -6   49.19    1.34
  -8  -9   6   48.51    1.43
  -9  -6   8   49.05    1.42
  -8   9  -6   45.29    1.60
   8   9   6   50.30    1.59
   8  -9   7  158.26    3.26
  -7  -8  -9  160.14    1.81
  -7  -8  -9  155.19    2.06
  -9  -7  -8  158.35    2.38
   7  -8   9  157.79    3.15
  -7   8   9  161.38    1.78
   8   9  -7  155.80    2.51
   9  -7   8  153.83    3.20
  -9   7   8  161.49    2.29
  -8   9   7  160.00    2.13
  -9  -7  -8  155.91    2.16
  -8  -9  -7  160.40    2.02
  -7  -9  -7    1.39    0.47
   7  -7   9    0.54    0.70
   9  -7   7    0.43    0.94
  -7  -7  -9    1.11    0.52
   9   7  -7    1.33    0.56
  -7   7   9    0.97    0.43
   7  -9   7   -0.90    0.94
  -7   9   7    1.41    0.49
  -7  -7  -9    0.93    0.44
  -7   7   9    1.07    0.41
  -9  -7  -7    1.28    0.52
  -9  -7  -7    1.49    0.62
  -6  -9  -7   29.20    0.86
  -7  -6  -9   27.89    0.91
   6   9  -7   25.57    1.06
   9  -7   6   28.62    1.57
  -7  -6  -9   28.01    1.01
   7   6  -9   30.42    1.06
  -7   6   9   23.35    0.81
  -9   7   6   27.09    1.14
   9   7  -6   26.97    1.16
   7  -6   9   26.56    1.51
   6  -9   7   24.67    1.38
  -9  -7  -6   27.51    1.03
  -7   6   9   27.74    0.81
  -6   9   7   28.72    0.86
   9  -7   5   48.88    1.93
  -7   5   9   50.33    1.16
  -7  -5  -9   52.70    1.38
  -5  -9  -7   54.09    1.06
  -7   5   9   51.19    1.00
   7  -5   9   58.64    2.00
   9   7  -5   49.01    1.57
   7   5  -9   52.52    1.39
  -9   7   5   55.25    1.61
  -9  -7  -5   51.67    1.42
   5  -9   7   46.15    1.81
  -7  -5  -9   50.62    1.24
  -5   9   7   54.89    1.01
   5   9  -7   49.92    1.46
  -9   7   4  318.81    3.69
  -7   4   9  321.37    2.82
  -7  -4  -9  311.31    3.18
   7  -4   9  328.26    4.30
  -9  -7  -4  317.14    3.27
   4  -9   7  308.77    3.98
   9   7  -4  333.82    3.79
   4   9  -7  312.90    3.32
  -7  -4  -9  330.33    3.16
  -4  -9  -7  317.73    2.32
  -7   4   9  324.11    2.42
   9  -7   3   23.15    1.47
   9   7  -3   20.48    1.17
  -7  -3  -9   22.95    1.04
  -9   7   3   21.33    1.14
  -3   9   7   21.98    0.59
  -3  -9  -7   20.87    0.63
  -9  -7  -3   22.01    1.03
  -7   3   9   19.50    0.84
  -7   3   9   19.87    0.69
   7  -3   9   20.38    1.21
   3   9  -7   18.04    1.02
   3  -9   7   22.45    1.21
   7   3  -9   20.23    0.90
  -7   2   9   12.62    0.72
   9   7  -2   11.83    0.96
   2  -9   7   12.00    0.95
  -7  -2  -9   12.79    0.86
  -2   9   7   12.51    0.46
  -9   7   2   10.20    0.99
   2   9  -7   12.28    0.90
  -2  -9  -7   12.96    0.50
  -9  -7  -2   10.55    0.88
   7  -2   9   12.81    1.07
  -7   1   9   45.86    1.01
   9  -7   1   51.34    1.83
   7  -1   9   50.21    1.68
   9   7  -1   53.94    1.65
   1   9  -7   51.17    1.42
  -7  -1  -9   51.66    1.46
   7   1  -9   51.34    1.24
  -1  -9  -7   50.43    0.81
  -9   7   1   48.33    1.69
  -1   9   7   49.94    0.81
   1  -9   7   53.67    1.55
   7   0  -9  385.82    3.20
  -7   0   9  383.62    2.91
   7   0   9  363.87    3.96
   0   9   7  398.75    2.23
  -9  -7   0  382.34    3.67
  -7   0  -9  395.20    3.92
   9  -7   0  378.25    4.43
  -9   7   0  383.60    4.36
   0   9  -7  366.85    3.50
   0  -9  -7  382.89    2.15
   0  -9   7  372.90    3.77
   7   1   9   50.76    1.54
  -1  -9   7   49.35    1.39
  -1   9  -7   53.58    1.40
   1   9   7   52.22    0.91
   9  -7  -1   53.10    1.77
  -7   1  -9   53.70    1.52
  -9   7  -1   49.87    1.67
  -9  -7   1   50.95    1.46
   1  -9  -7   49.32    0.86
   9   7   1   51.37    1.67
  -7  -1   9   50.89    1.17
   9   7   2   13.05    0.97
  -2   9  -7   11.65    0.86
   9  -7  -2   10.61    0.96
  -9  -7   2   14.57    0.86
   2  -9  -7   11.96    0.54
  -9   7  -2   11.05    1.13
  -7   2  -9   11.50    0.92
   7   2   9   11.39    0.90
  -2  -9   7   13.13    0.86
   2   9   7   11.21    0.56
  -7  -2   9   12.69    0.70
   3   9   7   19.51    0.72
  -9   7  -3   17.96    1.14
   9   7   3   21.02    1.20
   3  -9  -7   20.61    0.68
  -7  -3   9   20.02    0.87
  -9   7  -4  306.24    4.04
  -4   9  -7  307.91    3.39
   9   7   4  319.66    3.93
   9  -7  -4  318.07    3.53
   4  -9  -7  315.33    2.49
   4   9   7  329.05    2.84
  -7  -4   9  319.23    3.10
  -7   4  -9  317.19    3.69
  -4  -9   7  319.05    3.40
  -9  -7   4  318.65    3.49
   5   9   7   51.01    1.27
  -7  -5   9   51.17    1.41
   5  -9  -7   54.00    1.13
   9  -7  -5   53.32    1.49
  -9   7  -5   46.81    1.73
  -7   5  -9   48.97    1.54
  -5  -9   7   48.83    1.41
  -9  -7   5   53.24    1.46
  -5   9  -7   51.71    1.59
  -7  -6   9   28.69    1.06
   9  -7  -6   28.83    1.09
   6   9   7   24.38    1.02
  -9   7  -6   26.02    1.29
  -7   6  -9   30.73    1.25
  -6  -9   7   31.21    1.24
  -9  -7   6   26.01    1.18
   6  -9  -7   28.66    0.92
  -6   9  -7   27.35    1.24
   7  -9  -7    0.46    0.50
   9  -7  -7    1.43    0.51
   7   9   7    2.02    0.63
  -7  -7   9    1.30    0.61
  -7  -9   7    0.71    0.51
  -9  -7   7    1.16    0.54
   8  -9  -7  162.61    2.16
  -7  -8   9  163.09    2.50
  -8  -9   7  151.40    2.44
  -9  -7   8  160.50    2.51
  -9   7  -8  155.54    2.83
   8   9   7  157.55    2.58
  -8   9  -7  158.30    2.76
  -7   8  -9  148.83    2.57
   8  -9   8   46.50    1.91
  -9   8   8   42.16    1.20
   9   8  -8   41.29    1.39
  -8   9   8   42.04    1.11
  -8  -9  -8   40.83    1.02
   8  -8   9   41.73    1.75
   8   9  -8   44.35    1.40
  -9  -8  -8   42.13    1.28
   8   8  -9   42.03    1.37
  -8  -8  -9   44.47    1.09
  -9  -8  -8   43.08    1.17
   9  -8   8   40.85    1.86
  -8   8   9   43.62    1.08
  -8   7   9  114.54    1.71
   7   9  -8  113.19    2.09
  -9  -8  -7  119.98    1.89
   7  -9   8  115.87    2.77
   8  -7   9  114.47    2.75
   8   7  -9  114.73    2.09
   9  -8   7  105.28    2.64
  -9   8   7  105.91    1.90
  -8  -7  -9  106.98    1.88
  -8  -7  -9  119.40    1.77
  -8   7   9  112.35    1.66
  -7   9   8  116.23    1.60
   9   8  -7  106.12    2.07
  -7  -9  -8  114.83    1.59
  -9  -8  -7  108.87    1.98
  -6  -9  -8  168.14    1.82
  -9  -8  -6  177.64    2.33
  -9   8   6  158.30    2.39
   9  -8   6  153.19    3.24
   8  -6   9  160.05    3.19
   8   6  -9  164.86    2.44
  -8  -6  -9  164.53    2.33
  -8   6   9  161.45    2.10
  -8   6   9  164.10    1.94
  -6   9   8  170.29    1.74
   6  -9   8  167.82    3.22
  -8  -6  -9  164.18    2.10
   9  -8   5   15.79    1.29
  -8  -5  -9   16.73    0.92
  -9  -8  -5   18.60    0.91
   8  -5   9   17.28    1.25
   5   9  -8   16.59    0.92
  -9   8   5   17.36    1.04
   5  -9   8   14.08    1.13
  -8  -5  -9   15.90    0.85
   9   8  -5   16.78    1.00
   8   5  -9   15.93    0.85
  -5  -9  -8   15.65    0.61
  -5   9   8   15.80    0.55
  -8   5   9   18.28    0.73
  -8   4   9   45.54    1.23
  -9  -8  -4   46.23    1.28
   8  -4   9   43.76    1.80
   9   8  -4   44.57    1.56
   9  -8   4   45.48    1.79
   4   9  -8   44.37    1.34
  -9   8   4   42.36    1.39
  -8  -4  -9   47.90    1.34
   4  -9   8   43.19    1.72
  -4  -9  -8   47.70    0.90
  -4   9   8   46.66    0.77
   8   4  -9   45.89    1.30
  -8   4   9   46.32    1.05
  -3   9   8  186.04    1.38
  -8   3   9  185.58    2.34
  -9  -8  -3  189.29    2.56
  -3  -9  -8  188.40    1.60
   9  -8   3  180.96    3.31
  -8   3   9  191.44    2.02
   3  -9   8  172.92    2.98
  -8  -3  -9  186.94    2.67
   8  -3   9  174.20    3.06
  -9   8   3  180.98    2.85
   3   9  -8  192.30    2.64
   9   8  -3  180.52    2.82
   9   8  -2  311.86    3.69
  -9  -8  -2  302.96    3.19
  -8   2   9  313.18    2.62
  -8   2   9  309.63    3.03
   8  -2   9  305.35    3.99
   9  -8   2  287.62    4.06
   2   9  -8  306.37    3.27
  -9   8   2  311.39    3.78
  -2   9   8  307.05    1.69
  -2  -9  -8  300.44    1.84
  -8  -2  -9  300.19    3.42
   2  -9   8  296.11    3.66
  -9  -8  -1  111.42    2.00
  -1   9   8  115.04    1.05
   1   9  -8  115.63    2.08
  -8   1   9  124.05    1.72
  -8  -1  -9  117.41    2.27
   9  -8   1  114.05    2.60
   9   8  -1  118.82    2.35
   8  -1   9  110.56    2.43
   8   1  -9  107.31    1.86
   1  -9   8  113.93    2.24
  -9   8   1  107.58    2.38
  -9  -8   0   43.97    1.37
  -8   0  -9   39.08    1.36
   8   0   9   46.80    1.62
   9  -8   0   43.90    1.72
   0   9  -8   38.37    1.29
  -9   8   0   42.91    1.65
   8   0  -9   44.57    1.27
  -8   0   9   46.34    1.13
   9   8   0   42.35    1.43
   0  -9  -8   43.00    0.70
   0  -9   8   44.89    1.47
   0   9   8   41.35    0.70
  -1  -9   8  104.76    2.07
  -8  -1   9  119.29    1.81
   9   8   1  117.51    2.36
  -1   9  -8  114.02    2.06
   8   1   9  113.00    2.28
  -9   8  -1  109.70    2.47
   1  -9  -8  104.61    1.10
   1   9   8  113.32    1.24
   9  -8  -1  102.57    2.28
  -9  -8   2  313.50    3.48
   2   9   8  298.39    2.18
   2  -9  -8  301.88    1.97
  -8   2  -9  298.57    3.64
  -9   8  -2  301.00    3.89
   9   8   2  298.47    3.69
  -2  -9   8  304.52    3.36
   8   2   9  314.69    3.53
  -8  -2   9  315.97    2.95
  -8  -3   9  184.65    2.38
   3  -9  -8  179.18    1.62
   9   8   3  182.50    2.92
  -8   3  -9  183.92    2.90
  -9   8  -3  175.87    3.00
  -3   9  -8  180.88    2.60
   3   9   8  184.00    1.92
   9  -8  -3  194.48    2.99
  -3  -9   8  190.06    2.69
  -9  -8   3  183.48    2.65
  -4   9  -8   42.38    1.38
  -9   8  -4   43.10    1.70
   9  -8  -4   44.27    1.48
   4  -9  -8   43.04    0.88
   4   9   8   43.65    1.09
   9   8   4   42.97    1.56
  -8   4  -9   48.26    1.65
  -8  -4   9   45.41    1.31
  -9  -8   4   45.66    1.39
  -4  -9   8   39.56    1.27
  -8  -5   9   17.54    0.88
   9  -8  -5   16.84    0.98
   5  -9  -8   16.72    0.65
   5   9   8   16.47    0.82
  -5  -9   8   17.74    0.95
   9   8   5   16.51    1.15
  -8   5  -9   14.81    1.04
  -9   8  -5   15.53    1.06
  -9  -8   5   19.36    1.04
  -5   9  -8   15.55    1.05
   6  -9  -8  168.97    1.85
   9  -8  -6  159.40    2.32
  -6  -9   8  163.13    2.52
   6   9   8  156.65    2.27
  -8  -6   9  172.51    2.48
  -9   8  -6  162.03    2.95
  -8   6  -9  156.50    2.69
  -9  -8   6  166.10    2.57
   7  -9  -8  118.24    1.65
   9  -8  -7  120.19    1.89
  -7  -9   8  114.94    2.15
  -8  -7   9  118.60    2.09
  -9  -8   7  111.28    2.15
  -9   8  -7  108.42    2.37
  -8   7  -9  105.16    2.21
  -7   9  -8  110.69    2.22
   8  -9  -8   44.68    1.10
  -8  -8   9   42.97    1.40
  -9  -8   8   42.15    1.36
   9  -8  -8   41.92    1.10
  -8  -9   8   44.98    1.44
  -9   8  -8   42.12    1.59
  -8   8  -9   39.69    1.45
  -8   9  -8   41.27    1.45
  -9  -9  -9  107.44    1.62
  -9   9   9  108.11    1.65
  -8  -9  -9    2.89    0.45
  -9   8   9    2.07    0.55
  -9  -9  -8    3.24    0.54
   9  -9   8    3.35    0.89
  -9  -8  -9    3.08    0.56
   8   9  -9    3.31    0.71
   9  -8   9    4.14    1.05
   8  -9   9    3.16    0.92
  -9   8   9    1.78    0.49
  -9   9   8    2.20    0.53
  -9  -8  -9    0.82    0.49
   9   8  -9    1.23    0.71
  -8   9   9    1.95    0.46
   9  -7   9   22.74    1.54
   7   9  -9   22.57    1.06
   9  -9   7   22.32    1.47
   7  -9   9   23.93    1.51
  -7  -9  -9   26.33    0.91
  -7  -9  -9   25.17    0.77
  -9  -7  -9   24.35    1.04
  -9   9   7   24.85    1.02
  -9   7   9   21.95    0.88
   9   7  -9   20.45    1.08
  -7   9   9   23.31    0.72
  -9  -7  -9   24.21    0.91
   9   9  -7   25.92    1.25
  -9  -6  -9    7.47    0.64
  -9   6   9    8.24    0.68
   9  -6   9   10.12    1.02
   9  -9   6   11.68    1.39
   9   9  -6    7.33    0.87
   6  -9   9    4.81    1.10
  -9   9   6    7.15    0.74
  -9  -9  -6    8.31    0.69
  -6  -9  -9    9.18    0.60
   9   6  -9    7.20    0.84
  -9   6   9    9.55    0.66
  -6   9   9    8.24    0.46
  -5   9   9  176.29    1.39
  -9  -9  -5  177.07    2.31
   9  -9   5  170.87    3.42
  -9   5   9  175.83    2.37
  -9  -5  -9  170.25    2.37
  -9   5   9  177.38    2.07
   5  -9   9  167.99    3.17
  -9   9   5  170.72    2.55
   9   9  -5  161.83    2.64
  -5  -9  -9  170.07    1.61
   9   5  -9  169.68    2.51
   9   4  -9   16.25    0.93
  -9  -9  -4   14.84    0.86
  -9   4   9   14.81    0.86
   9  -4   9   14.98    1.14
  -9  -4  -9   15.80    0.95
   9  -9   4   15.01    1.21
  -4   9   9   16.11    0.42
   4   9  -9   16.62    0.87
  -9   9   4   15.66    1.05
   4  -9   9   16.79    1.13
  -4  -9  -9   17.77    0.56
  -9   4   9   16.99    0.75
  -3   9   9   92.92    0.82
   9  -3   9  102.72    2.57
   9  -9   3   92.09    2.46
  -9   9   3   94.92    2.07
  -3  -9  -9   99.78    1.09
  -9   3   9   95.68    1.83
   3   9  -9   94.94    1.90
   3  -9   9   99.71    2.35
  -9  -3  -9   93.83    2.04
  -9   3   9   98.25    1.60
   9   9  -3   94.40    2.08
   9   3  -9  100.83    1.89
  -9  -9  -3   95.78    1.81
  -9  -9  -2    1.19    0.65
   2   9  -9    0.97    0.69
  -9   2   9    2.36    0.59
   9  -2   9    2.00    0.89
   9  -9   2    3.30    0.79
  -9   9   2    0.16    0.71
  -9   2   9    1.57    0.50
   2  -9   9    2.48    0.70
   9   9  -2    4.46    0.88
  -2  -9  -9    2.56    0.27
  -1  -9  -9  166.84    1.15
   9   9  -1  170.16    2.79
  -9   9   1  161.57    2.74
  -9   1   9  168.01    2.06
   9  -9   1  167.06    3.15
  -9  -1  -9  166.35    2.68
   9   1  -9  168.81    2.45
  -1   9   9  161.19    1.06
   9  -1   9  166.20    2.99
   1   9  -9  171.16    2.48
  -9  -9   0   29.03    1.21
  -9   0  -9   25.78    1.22
   9   0   9   27.75    1.36
   0   9   9   26.42    0.52
   0   9  -9   25.01    1.02
   9  -9   0   27.64    1.41
   9   9   0   31.60    1.37
  -9   9   0   27.19    1.34
   0  -9  -9   25.83    0.49
   9   0  -9   27.36    1.11
  -9   0   9   31.98    0.98
   0  -9   9   27.34    1.28
  -9   1  -9  165.51    2.78
   9   9   1  160.30    2.64
  -1   9  -9  169.75    2.48
   1  -9  -9  162.58    1.18
  -9   9  -1  166.17    2.90
   1   9   9  170.81    1.45
  -9  -1   9  176.86    2.24
   9   1   9  174.29    2.86
  -9  -9   1  175.45    2.62
  -1  -9   9  162.78    2.52
  -9  -2   9    2.16    0.51
  -9   9  -2    2.65    0.88
   2  -9  -9    2.43    0.26
   2   9   9    1.97    0.37
   9   2   9    1.34    0.70
  -2  -9   9    0.19    0.68
  -9   2  -9    3.30    0.77
   9   9   2    1.52    0.78
  -9  -9   2    3.35    0.68
   9  -9  -2    2.13    0.85
  -3  -9   9   94.73    1.91
  -3   9  -9   95.01    1.90
   3   9   9   93.45    1.38
  -9   9  -3   92.03    2.23
   3  -9  -9   94.92    1.02
   9   9   3   92.50    2.14
  -9  -9   3  100.19    2.02
  -9   3  -9   83.41    2.10
  -9  -3   9  103.72    1.84
  -4   9  -9   14.97    1.00
   9  -9  -4   15.89    1.00
   4  -9  -9   15.36    0.49
   9   9   4   16.37    1.12
  -9   4  -9   18.06    1.10
  -9  -9   4   14.93    0.93
  -9  -4   9   15.19    0.89
   5  -9  -9  176.59    1.59
   9  -9  -5  175.92    2.58
   9   9   5  162.08    2.76
  -9   5  -9  166.84    2.89
  -9  -9   5  170.57    2.61
  -9   9  -5  162.18    2.91
  -9  -5   9  174.39    2.44
  -5  -9   9  167.20    2.52
  -9  -6   9    9.43    0.84
  -6  -9   9    9.67    0.89
   9  -9  -6   10.27    0.81
  -9   6  -9    7.44    1.03
  -9  -9   6    8.28    0.86
   6  -9  -9    9.79    0.51
  -9   9  -6    8.97    1.02
   9   9   6    8.43    0.94
  -6   9  -9    8.25    0.92
  -9  -7   9   25.05    1.08
   9  -9  -7   25.85    1.01
  -7  -9   9   21.90    1.13
  -9  -9   7   22.31    1.15
  -9   7  -9   27.16    1.36
  -9   9  -7   27.09    1.26
  -7   9  -9   21.03    1.14
   7  -9  -9   27.00    0.78
   9  -9  -8    3.91    0.55
   8  -9  -9    3.17    0.47
  -8  -9   9    2.03    0.72
  -9  -8   9    3.21    0.77
  -9  -9   9  110.51    2.16
   0 -10   0  980.52    5.24
   0   0 -10 1010.66    3.60
   0  10   0  995.78    5.31
 -10   0   0 1042.96    7.26
   0   0  10 1014.17    4.49
 -10   0   0 1011.51    7.18
  -1 -10   0  265.98    2.73
 -10   0  -1  266.66    3.72
 -10   0   1  269.00    3.65
   0   1  10  273.50    2.17
   0   1 -10  271.69    2.06
   1  10   0  279.40    2.88
  -1  10   0  271.98    2.77
   0  -1  10  270.30    2.51
 -10   0  -1  270.06    3.86
 -10   0   1  274.36    3.69
   1 -10   0  277.24    2.94
  10   0   2   43.57    1.59
 -10   0   2   41.57    1.58
  -2 -10   0   42.38    1.17
   0   2  10   45.52    0.79
 -10   0   2   42.36    1.58
   0   2 -10   45.07    0.97
   0  -2 -10   46.01    0.59
   2 -10   0   45.76    1.38
   2  10   0   45.83    1.25
   0  -2  10   47.81    1.17
  -3 -10   0  424.26    3.51
 -10   0   3  412.89    4.38
   0   3 -10  412.50    2.94
  10   0   3  425.69    4.50
   3 -10   0  414.88    3.94
 -10   0   3  403.54    4.16
   3  10   0  423.00    3.53
  10   0   4  575.32    5.27
 -10   0  -4  590.95    5.54
  -4 -10   0  581.92    4.18
   0   4 -10  592.81    3.73
   4 -10   0  565.15    4.75
 -10   0   4  574.35    5.05
 -10   0   4  601.45    4.87
  10   0   5   60.07    1.91
   0   5 -10   61.12    1.35
 -10   0  -5   53.99    1.73
 -10   0   5   55.10    1.66
  -5 -10   0   49.48    1.37
 -10   0   5   57.32    1.53
   5 -10   0   56.70    1.73
   5  10   0   52.66    1.43
   0  -5  10   61.15    1.53
  -5  10   0   58.45    1.54
 -10   0   6  176.30    2.71
   6 -10   0  180.19    2.94
   6  10   0  177.77    2.53
  -6 -10   0  174.92    2.46
  10   0   6  173.05    3.02
  -6  10   0  172.68    2.57
   0  -6  10  176.56    2.53
 -10   0   6  179.14    2.54
  10   0   7  278.62    3.80
 -10   0  -7  271.74    3.67
  -7  10   0  284.71    3.41
   0   7 -10  277.26    2.92
   7 -10   0  294.22    3.82
 -10   0   7  279.13    3.01
   7  10   0  294.46    3.37
  -7 -10   0  280.82    3.08
 -10   0   7  286.74    3.37
   0  -7  10  290.39    3.28
 -10   0  -8  125.73    2.58
  -8 -10   0  123.21    2.11
   0   8 -10  125.03    2.06
   8 -10   0  130.32    2.78
 -10   0   8  124.73    2.20
 -10   0   8  133.87    2.07
   0  -8  10  115.59    2.14
  -8  10   0  125.46    2.40
   8  10   0  124.82    2.34
  -9 -10   0    0.93    0.66
   9  10   0    1.58    0.74
  10   0   9    0.70    0.75
   9 -10   0   -0.88    0.72
   0   9 -10   -0.26    0.63
 -10   0  -9    2.26    0.83
   0  -9 -10    0.21    0.13
  -9  10   0   -0.35    0.64
   0  -9  10    0.88    0.50
  -1  -9 -10   69.39    0.76
 -10   1   9   62.29    1.58
  10  -1   9   74.38    2.15
 -10   1   9   70.17    1.45
   9 -10   1   72.45    2.17
 -10  -1  -9   67.65    1.87
   1   9 -10   69.83    1.65
  -9  10   1   67.37    1.86
   1  -9  10   69.39    1.89
   9  10  -1   66.21    1.84
  -1  -9 -10   69.33    0.66
  -9 -10  -1   72.20    1.65
  10   1  -9   70.23    1.68
  -1  -8 -10   68.55    0.67
 -10   1   8   70.38    1.72
  -1  -8 -10   69.78    0.56
 -10  -1  -8   72.26    2.01
   8 -10   1   69.76    2.04
   1   8 -10   76.27    1.67
  10  -1   8   69.86    2.03
 -10   1   8   70.83    1.53
   8  10  -1   69.97    1.77
  -8  10   1   66.45    1.78
   1  -8  10   74.17    1.87
  -8 -10  -1   69.61    1.64
 -10   1   7   45.12    1.45
   7  10  -1   46.33    1.48
   1   7 -10   45.60    1.31
 -10  -1  -7   46.30    1.62
  -7 -10  -1   42.38    1.31
  -7  10   1   47.22    1.47
   1  -7  10   42.69    1.48
  10  -1   7   42.03    1.60
 -10   1   7   45.63    1.34
 -10   1   6   79.15    1.93
  10  -1   6   77.61    2.15
 -10   1   6   73.16    1.70
   6 -10   1   83.39    2.13
  -6 -10  -1   81.43    1.64
   1  -6  10   85.81    1.91
  -6  10   1   79.24    1.76
 -10  -1  -6   85.07    2.19
  10  -1   5  138.68    2.78
  -5 -10  -1  139.19    2.09
   1   5 -10  138.99    1.95
   5  10  -1  139.72    2.25
   5 -10   1  135.40    2.62
 -10  -1  -5  140.61    2.79
   1  -5  10  134.59    2.28
  -5  10   1  136.29    2.17
   4  10  -1  169.71    2.43
  -4  10   1  172.29    2.30
  -4 -10  -1  162.46    2.20
 -10   1   4  168.44    2.79
 -10  -1  -4  162.69    2.95
 -10   1   4  169.01    2.74
   4 -10   1  163.52    2.67
   1  -4  10  166.03    2.43
 -10  -1  -3   73.10    2.05
  -1  -3 -10   70.84    0.68
   1   3 -10   72.55    1.29
  -3 -10  -1   70.57    1.45
   1  -3  10   70.13    1.56
 -10   1   3   66.58    1.83
   3 -10   1   70.08    1.74
 -10   1   3   68.64    1.87
   3  10  -1   70.60    1.57
  10  -1   3   71.65    2.01
 -10   1   2   67.86    1.97
  -2  10   1   67.45    1.43
  -2 -10  -1   64.38    1.36
 -10   1   2   68.01    1.94
   2  10  -1   67.83    1.50
  -1  -2 -10   67.69    0.80
   1  -2  10   65.72    1.45
 -10  -1  -2   68.79    2.05
   2 -10   1   68.69    1.62
  10  -1   2   62.88    1.90
  -1   2  10   66.80    0.87
  -1 -10  -1  132.02    1.92
 -10   1   1  117.53    2.54
 -10  -1  -1  125.66    2.57
  -1  10   1  123.18    1.87
   1  -1  10  123.37    1.87
   1  10  -1  121.29    1.95
   1   1 -10  129.20    1.44
  -1   1  10  121.12    1.33
  10  -1   1  118.85    2.45
   1 -10   1  122.35    2.06
 -10   1   1  132.68    2.75
   0  10  -1  214.64    2.55
   0  10   1  227.80    2.50
   0 -10   1  224.30    2.66
   0 -10  -1  220.12    2.43
 -10   1   0  216.18    3.35
 -10  -1   0  217.00    3.32
   1   0  10  224.51    2.32
   1   0 -10  219.47    1.66
  -1   0 -10  216.79    1.76
  10  -1   0  220.58    3.23
  -1   0  10  218.45    1.93
 -10  -1   0  228.02    3.40
 -10   1  -1  120.07    2.63
  -1  10  -1  124.74    1.96
  -1 -10   1  119.05    1.95
   1   1  10  119.81    1.58
  -1   1 -10  123.49    1.46
 -10  -1   1  121.85    2.46
  -1  -1  10  126.06    1.60
   1 -10  -1  118.78    1.89
 -10  -1   1  124.21    2.49
  -1   2 -10   67.29    1.19
 -10  -1   2   68.43    1.87
  -2 -10   1   65.66    1.48
   1   2  10   65.00    1.03
 -10  -1   2   67.25    1.90
   2  10   1   66.28    1.41
   2 -10  -1   69.33    1.52
  -1  -2  10   65.98    1.28
   1  -2 -10   64.90    0.67
  -3 -10   1   70.94    1.57
 -10  -1   3   70.21    1.78
 -10   1  -3   75.51    2.11
  -1   3 -10   74.75    1.35
 -10  -1   3   71.95    1.92
   3 -10  -1   70.14    1.65
   1   3  10   70.24    0.87
  -1  -3  10   72.75    1.41
   3  10   1   71.70    1.48
  -4  10  -1  165.68    2.41
 -10  -1   4  162.41    2.72
 -10   1  -4  166.91    3.11
  -4 -10   1  167.12    2.36
 -10  -1   4  162.81    2.53
   4 -10  -1  160.11    2.50
  -1  -4  10  162.03    2.14
  -1   5 -10  139.92    2.00
  -5 -10   1  135.37    2.14
   5 -10  -1  136.76    2.40
 -10  -1   5  136.44    2.33
  -5  10  -1  135.55    2.26
  -1  -5  10  141.99    2.13
  10   1   6   76.07    2.03
 -10   1  -6   80.37    2.19
   6 -10  -1   78.53    1.99
  -6 -10   1   74.54    1.62
 -10  -1   6   79.67    1.75
  -6  10  -1   74.52    1.82
   6  10   1   85.12    1.81
  -1  -6  10   78.31    1.67
  -1   7 -10   48.04    1.30
 -10   1  -7   46.34    1.71
   7 -10  -1   44.53    1.59
 -10  -1   7   49.36    1.37
   7  10   1   46.57    1.41
  -7 -10   1   48.97    1.45
  -7  10  -1   48.22    1.54
  10   1   7   47.39    1.67
  -1  -7  10   45.03    1.35
  -1   8 -10   68.77    1.55
 -10  -1   8   71.65    1.54
   8 -10  -1   69.67    1.97
 -10   1  -8   66.91    1.96
  -8 -10   1   72.15    1.73
  -8  10  -1   68.65    1.88
  10   1   8   76.53    2.03
   8  10   1   70.35    1.78
  -1  -8  10   69.66    1.71
 -10  -1   9   71.84    1.50
  10   1   9   74.05    2.01
   9  10   1   65.68    1.78
  -1   9 -10   66.76    1.59
   9 -10  -1   68.30    2.00
 -10   1  -9   70.76    1.97
  -9  10  -1   72.28    1.98
  -9 -10   1   72.76    1.70
  -1  -9  10   71.45    1.80
   9 -10   2  184.28    3.29
 -10  -2  -9  179.67    2.85
  10  -2   9  182.78    3.22
 -10   2   9  176.71    2.54
  -2  -9 -10  175.59    1.16
  -2  -9 -10  183.04    1.41
 -10   2   9  177.73    2.19
  10   2  -9  172.05    2.59
   2   9 -10  189.50    2.57
  -9  10   2  190.38    2.91
   2  -9  10  181.28    2.96
   9  10  -2  182.12    2.86
  -9 -10  -2  191.77    2.64
   8 -10   2   79.56    2.21
  -2  -8 -10   81.88    0.94
   2   8 -10   85.06    1.75
  10   2  -8   82.54    1.92
 -10  -2  -8   84.52    2.08
 -10   2   8   89.59    1.92
   8  10  -2   84.06    1.90
  -8  10   2   88.77    1.95
   2  -8  10   88.79    2.13
  10  -2   8   81.66    2.19
 -10   2   8   89.34    1.70
  -8 -10  -2   85.12    1.69
  -2  -8 -10   83.13    0.75
 -10   2   7    7.72    0.82
  10  -2   7    5.06    0.94
   7  10  -2    7.06    0.73
   7 -10   2    5.40    1.07
  -2  -7 -10    7.58    0.25
  10   2  -7    4.95    0.84
   2   7 -10    7.72    0.72
   2  -7  10    5.70    0.92
 -10   2   7    8.99    0.77
  -7  10   2    7.92    0.82
  -7 -10  -2    8.12    0.67
 -10  -2  -6  280.43    3.76
 -10   2   6  268.72    3.39
   2  -6  10  260.76    3.35
   6  10  -2  282.54    3.19
 -10  -2  -6  277.89    3.73
  -2  -6 -10  276.00    1.59
   6 -10   2  271.90    3.79
  -6 -10  -2  275.90    2.90
  -2  -6 -10  266.52    1.23
  -6  10   2  277.53    3.07
  10   2  -6  267.68    3.43
  10  -2   6  262.06    3.86
  10   2  -5  497.22    4.77
 -10   2   5  494.73    4.48
  10  -2   5  500.47    5.26
  -5  10   2  506.54    3.93
 -10  -2  -5  494.54    5.01
 -10   2   5  506.30    4.75
 -10  -2  -5  499.52    4.93
  -2  -5 -10  493.56    1.78
   2   5 -10  501.02    3.60
  -5 -10  -2  502.58    3.74
   5 -10   2  509.46    5.00
   2  -5  10  499.45    4.50
   5  10  -2  504.36    4.17
  -2  -5 -10  492.52    2.10
 -10   2   4   72.01    1.93
  10  -2   4   67.51    2.03
   4 -10   2   73.11    1.94
 -10  -2  -4   79.64    2.10
 -10  -2  -4   75.38    2.05
  -4  10   2   75.35    1.51
  -4 -10  -2   71.85    1.47
   2   4 -10   72.22    1.38
  -2  -4 -10   73.19    0.86
 -10   2   4   73.61    1.93
   2  -4  10   68.66    1.72
  -2  -4 -10   72.05    0.86
   4  10  -2   74.57    1.69
 -10   2   3  154.05    2.78
  -3  10   2  157.95    2.07
  -3 -10  -2  147.69    2.00
   2  -3  10  152.79    2.40
   2   3 -10  156.13    1.84
   3 -10   2  152.35    2.59
 -10  -2  -3  152.31    2.79
   3  10  -2  145.16    2.21
  10  -2   3  145.01    2.84
 -10   2   3  151.91    2.74
   2 -10   2  557.62    4.59
   2  10  -2  566.63    4.26
  -2  10   2  542.50    3.63
 -10  -2  -2  572.96    5.27
  -2 -10  -2  564.67    3.74
   2  -2  10  564.43    4.32
 -10   2   2  572.03    5.32
  -2   2  10  549.41    2.22
  -2  -2 -10  563.77    2.68
 -10  -2  -1  517.10    4.90
  -2  -1 -10  520.01    2.73
   2  -1  10  533.55    4.02
  -1  10   2  532.37    3.62
 -10   2   1  530.69    5.20
   1  10  -2  530.69    4.09
  10  -2   1  513.97    5.01
  -1 -10  -2  549.46    3.65
   2   1 -10  512.16    2.79
   1 -10   2  519.05    4.23
  -2   1  10  517.12    2.48
   0 -10   2   42.79    1.25
   0 -10  -2   48.21    1.17
  10  -2   0   43.73    1.60
 -10  -2   0   45.24    1.58
 -10   2   0   41.63    1.65
   0  10  -2   41.10    1.23
   2   0  10   44.87    1.19
 -10  -2   0   44.59    1.59
   0  10   2   44.87    1.14
   2   0 -10   44.95    0.80
  -2   0 -10   46.10    0.94
  -2   0  10   43.95    0.87
  -1 -10   2  508.60    4.02
  -2  -1  10  513.95    2.98
  -1  10  -2  536.01    4.11
 -10  -2   1  527.60    4.73
  10  -2  -1  533.74    4.88
 -10  -2   1  513.22    4.85
 -10   2  -1  535.49    5.34
   2   1  10  531.97    3.53
   1  10   2  538.20    3.71
   1 -10  -2  543.40    3.80
  -2  -2  10  552.74    3.36
 -10  -2   2  555.49    4.99
 -10  -2   2  550.11    4.74
 -10   2  -2  545.95    5.40
   2  -2 -10  542.77    1.97
   2   2  10  562.50    3.26
   2 -10  -2  557.62    4.01
   2  10   2  561.55    3.85
 -10  -2   3  149.37    2.49
  -2   3 -10  154.20    1.93
  -2  -3  10  149.14    1.90
   2   3  10  151.89    1.51
  -3 -10   2  148.04    2.23
   3 -10  -2  155.13    2.29
 -10   2  -3  150.08    2.97
  -4  10  -2   72.72    1.68
  -2   4 -10   71.11    1.40
   4  10   2   74.08    1.54
  -4 -10   2   69.94    1.59
   4 -10  -2   69.87    1.66
 -10  -2   4   74.22    1.82
  -2  -4  10   72.69    1.44
  -2  -5  10  503.26    3.81
   5  10   2  497.91    3.95
 -10   2  -5  489.00    5.11
   5 -10  -2  497.79    4.36
  -2   5 -10  499.99    3.73
 -10  -2   5  481.20    4.13
  -5  10  -2  480.16    4.20
 -10  -2   6  247.50    2.98
  -6 -10   2  271.29    3.12
   6  10   2  281.62    3.14
 -10   2  -6  278.55    3.93
  -2  -6  10  257.89    2.86
  -6  10  -2  263.94    3.24
  -2  -7  10    9.54    0.74
  -2   7 -10    8.71    0.71
 -10  -2   7    9.47    0.74
   7 -10  -2    6.93    0.81
 -10   2  -7    9.10    1.08
  -7 -10   2    9.19    0.80
   7  10   2    6.15    0.82
  -7  10  -2    8.61    0.92
  -2  -8  10   87.87    1.84
   8 -10  -2   87.67    2.12
 -10  -2   8   89.76    1.75
   8  10   2   88.60    1.98
  10   2   8   88.94    2.10
  -8 -10   2   85.86    1.86
  -2  -9  10  181.26    2.62
   9  10   2  173.63    2.75
  -2   9 -10  178.47    2.52
 -10   2  -9  176.37    2.94
  -9  10  -2  180.37    3.01
  -9 -10   2  182.68    2.68
 -10  -2   9  174.68    2.35
  -9 -10  -3   79.62    1.68
   3   9 -10   80.66    1.77
  -3   9  10   77.81    0.54
  -3  -9 -10   80.94    1.08
   9  10  -3   78.31    1.93
 -10   3   9   79.03    1.75
 -10  -3  -9   79.62    1.90
 -10   3   9   77.71    1.52
   9 -10   3   79.21    2.34
  -3  -9 -10   79.01    0.90
 -10  -3  -9   80.91    1.98
  -9  10   3   76.93    1.86
   3  -9  10   80.07    2.16
  10  -3   9   79.83    2.33
 -10   3   8   31.16    1.07
  -3  -8 -10   32.35    0.72
   8  10  -3   29.47    1.32
  10  -3   8   29.91    1.54
   8 -10   3   32.44    1.56
  -3  -8 -10   32.53    0.58
 -10  -3  -8   33.68    1.40
   3   8 -10   30.58    1.15
   3  -8  10   34.66    1.49
  -8  10   3   32.92    1.28
  10   3  -8   33.60    1.33
 -10  -3  -8   31.01    1.37
 -10   3   8   33.37    1.25
  -8 -10  -3   34.39    1.16
  -3  -7 -10   51.16    0.69
 -10  -3  -7   46.65    1.60
   7  10  -3   51.88    1.55
  10  -3   7   50.45    1.82
  -3  -7 -10   47.28    0.85
 -10   3   7   47.12    1.48
 -10  -3  -7   51.44    1.70
   7 -10   3   54.32    1.97
   3  -7  10   51.27    1.74
   3   7 -10   47.86    1.31
  -7  10   3   48.58    1.41
  -7 -10  -3   51.75    1.33
  10   3  -7   49.56    1.58
 -10   3   6   85.64    1.88
  10  -3   6   85.14    2.28
  10   3  -6   85.66    1.97
   6  10  -3   89.39    1.84
 -10  -3  -6   87.56    2.07
 -10   3   6   78.11    1.92
   6 -10   3   82.59    2.17
   3  -6  10   82.16    2.00
  -6 -10  -3   91.06    1.67
 -10  -3  -6   87.76    2.05
  -6  10   3   86.58    1.70
 -10  -3  -5  163.42    2.90
  10  -3   5  143.93    2.89
  10   3  -5  152.95    2.73
 -10  -3  -5  152.48    2.74
   5 -10   3  157.66    2.87
  -5 -10  -3  150.70    2.05
   3  -5  10  153.47    2.66
 -10   3   5  155.61    2.66
   3   5 -10  157.07    2.05
 -10   3   5  154.05    2.59
  -3  -5 -10  149.46    1.29
  -5  10   3  153.59    2.13
  -4  10   3   77.07    1.44
 -10  -3  -4   81.16    2.07
 -10   3   4   81.28    2.08
 -10   3   4   80.39    2.04
  -4 -10  -3   78.25    1.48
  -3  -4 -10   79.41    1.13
   3  -4  10   73.26    1.87
  -3  -4 -10   79.02    1.10
  10   3  -4   80.21    2.07
   4 -10   3   82.44    2.03
 -10  -3  -4   77.97    2.06
   3   4 -10   84.67    1.48
   4  10  -3   75.71    1.67
  10  -3   4   78.54    2.25
  10   3  -3  108.05    2.41
  -3  10   3  115.13    1.71
 -10   3   3  110.12    2.45
  -3 -10  -3  107.54    1.66
  -3   3  10  106.40    0.78
  -3   3  10  110.51    0.95
   3  -3  10  106.55    2.09
  -3  -3 -10  107.60    1.35
  10  -3   3  106.72    2.54
   3  10  -3  107.79    1.93
   3 -10   3   98.89    2.18
   3   3 -10  111.58    1.58
 -10  -3  -3  110.81    2.36
  10  -3   2   64.88    1.97
  -2  10   3   65.70    1.30
 -10   3   2   59.56    1.91
 -10  -3  -2   66.68    1.85
  -3   2  10   64.20    0.77
  10   3  -2   62.65    1.98
   2  10  -3   60.43    1.54
   3  -2  10   71.18    1.70
 -10  -3  -2   70.90    1.93
  -2 -10  -3   63.12    1.25
  -3  -2 -10   64.30    1.11
   2 -10   3   61.83    1.63
  -1 -10  -3  165.27    1.94
  10  -3   1  171.58    3.03
  -3   1  10  170.04    1.43
 -10   3   1  161.67    2.97
  -3  -1 -10  165.35    1.81
  -1  10   3  172.69    2.02
   3  -1  10  163.46    2.41
   1  10  -3  164.49    2.33
 -10  -3  -1  168.89    2.70
  10   3  -1  164.05    2.99
   1 -10   3  173.53    2.59
   0 -10   3  110.76    2.04
   0 -10  -3  108.07    1.60
 -10  -3   0  111.82    2.24
   0  10  -3  102.68    1.92
   3   0  10  108.78    1.89
   0  10   3   97.07    1.55
   3   0 -10  107.31    1.22
  -3   0 -10  105.32    1.52
 -10  -3   0  108.60    2.33
 -10   3   0  104.99    2.53
  10  -3  -1  163.67    2.83
   3   1  10  166.15    2.14
 -10  -3   1  162.31    2.62
  -1  10  -3  160.76    2.31
 -10   3  -1  164.05    3.08
   3  -1 -10  165.35    1.40
   1  10   3  166.91    2.01
   1 -10  -3  164.57    2.01
  10  -3  -2   60.15    1.73
 -10   3  -2   60.49    1.87
   3  -2 -10   65.33    0.82
   3   2  10   60.39    1.22
   2 -10  -3   62.15    1.36
  -3   2 -10   64.70    1.32
 -10  -3   2   63.83    1.68
   2  10   3   62.94    1.32
   3  10   3  109.76    1.73
  -3 -10   3  105.92    1.91
 -10   3  -3  106.16    2.56
  10  -3  -3  108.36    2.18
   3   3  10  107.47    1.44
   3 -10  -3  104.41    1.81
  -3   3 -10  110.46    1.76
  -4  10  -3   76.69    1.69
  -4 -10   3   77.86    1.72
 -10   3  -4   85.31    2.32
 -10  -3   4   82.16    1.81
   4 -10  -3   77.77    1.68
   4  10   3   87.39    1.62
  -3  -4  10   82.16    1.50
  -3   4 -10   80.81    1.55
  -3   5 -10  150.21    2.14
  -5 -10   3  153.36    2.34
  -3  -5  10  155.71    2.14
 -10  -3   5  150.94    2.40
 -10   3  -5  145.16    2.89
   5 -10  -3  157.33    2.41
   5  10   3  151.42    2.21
  -5  10  -3  147.26    2.43
  -3  -6  10   88.49    1.73
 -10  -3   6   94.38    1.91
 -10   3  -6   84.81    2.24
  -3   6 -10   89.08    1.74
   6  10   3   84.22    1.78
   6 -10  -3   90.16    1.93
  -6  10  -3   85.14    1.92
  -6 -10   3   90.65    1.90
   7  10   3   52.71    1.51
  -3  -7  10   52.26    1.39
  -3   7 -10   47.67    1.35
 -10   3  -7   46.61    1.77
  -7 -10   3   44.75    1.35
   7 -10  -3   45.99    1.50
 -10  -3   7   46.16    1.35
  -7  10  -3   46.11    1.55
 -10  -3   8   35.71    1.19
  -3  -8  10   32.21    1.17
   8  10   3   34.41    1.33
  -3   8 -10   30.07    1.09
   8 -10  -3   29.17    1.28
 -10   3  -8   33.81    1.44
  -8 -10   3   32.03    1.20
  -8  10  -3   33.71    1.35
   9 -10  -3   76.81    1.95
   3  -9 -10   77.41    0.61
 -10   3  -9   78.41    2.12
  -9 -10   3   79.03    1.84
  -9  10  -3   77.90    2.07
  -4  -9 -10   23.04    0.71
 -10  -4  -9   20.91    1.09
 -10  -4  -9   22.12    1.09
  10  -4   9   24.98    1.50
 -10   4   9   23.46    0.90
   9 -10   4   24.82    1.42
  10   4  -9   23.02    1.05
  -4   9  10   22.66    0.38
 -10   4   9   23.69    1.05
   9  10  -4   20.20    1.05
   4  -9  10   21.76    1.38
  -4  -9 -10   23.63    0.59
  -9  10   4   22.31    1.10
 -10  -4  -8   93.61    2.00
   8  10  -4   89.80    1.95
 -10  -4  -8   93.40    2.08
  10  -4   8   94.58    2.53
  -4   8  10   90.05    0.61
   8 -10   4   83.96    2.33
  10   4  -8   93.35    1.93
  -4   8  10   91.36    0.71
   4  -8  10   88.83    2.30
  -4  -8 -10   96.30    1.31
  -8  10   4   93.19    1.89
   4   8 -10   89.22    1.80
  -4  -8 -10   96.40    1.07
 -10   4   8   93.79    1.95
  -8 -10  -4   97.47    1.78
  -4  -7 -10  208.65    1.55
 -10  -4  -7  209.19    3.06
  10  -4   7  207.99    3.61
  -4  -7 -10  203.90    1.90
 -10  -4  -7  205.56    2.91
 -10   4   7  208.85    2.90
   7 -10   4  194.25    3.38
   4  -7  10  208.66    3.33
 -10   4   7  204.98    2.70
  -7  10   4  208.39    2.61
   4   7 -10  207.03    2.58
  -7 -10  -4  203.51    2.43
   6  10  -4  121.52    2.17
 -10  -4  -6  129.56    2.48
  10  -4   6  120.96    2.83
  -4  -6 -10  121.98    1.51
  -4  -6 -10  117.23    1.24
   6 -10   4  122.52    2.69
   4  -6  10  127.14    2.58
  10   4  -6  128.35    2.44
  -6 -10  -4  124.27    1.85
 -10   4   6  122.88    2.34
  -6  10   4  125.06    1.95
   4   6 -10  120.89    1.93
 -10   4   6  116.61    2.23
 -10  -4  -6  130.49    2.42
   5  10  -4  116.58    2.08
  10  -4   5  112.64    2.71
  -4  -5 -10  116.57    1.31
 -10  -4  -5  118.89    2.42
   4  -5  10  116.13    2.42
  -4  -5 -10  107.92    1.43
   5 -10   4  113.69    2.57
  -5 -10  -4  114.02    1.73
 -10  -4  -5  120.14    2.29
  10   4  -5  118.01    2.37
   4   5 -10  116.61    1.78
  -5  10   4  114.00    1.76
 -10   4   5  126.31    2.47
   4   4 -10  380.33    3.08
  10   4  -4  369.92    4.17
  -4  10   4  367.47    2.92
  -4  -4 -10  369.29    2.59
  10  -4   4  354.63    4.54
  -4   4  10  360.33    1.43
 -10   4   4  358.11    4.03
 -10  -4  -4  356.18    4.04
  -4   4  10  358.42    1.83
  -4  -4 -10  366.78    2.69
   4  -4  10  370.44    4.12
  -4 -10  -4  364.36    2.92
   4 -10   4  356.79    4.19
   4  10  -4  351.48    3.50
  -4   3  10  308.05    1.94
  10  -4   3  303.90    4.15
  10   4  -3  312.70    3.92
  -3 -10  -4  310.73    2.62
 -10   4   3  304.71    3.89
  -4   3  10  309.85    1.58
 -10  -4  -3  310.88    3.61
   4  -3  10  319.81    3.74
  -4  -3 -10  313.33    2.56
  -3  10   4  324.96    2.68
   3  10  -4  300.72    3.21
   3 -10   4  304.19    3.76
 -10  -4  -3  306.82    3.76
 -10  -4  -2   72.45    1.91
  -2 -10  -4   69.94    1.26
  10  -4   2   72.74    2.04
  -2  10   4   72.79    1.28
 -10  -4  -2   71.77    1.83
  -4   2  10   71.47    0.89
   4  -2  10   73.27    1.81
   2  10  -4   70.69    1.63
  -4  -2 -10   69.57    1.30
  10   4  -2   76.67    2.10
   2 -10   4   70.86    1.81
   4  -1  10  255.08    3.14
 -10  -4  -1  277.46    3.37
  -1 -10  -4  272.02    2.35
 -10   4   1  259.57    3.71
   1  10  -4  266.24    3.05
   4   1 -10  267.05    2.16
  10   4  -1  281.78    3.83
  -1  10   4  273.31    2.40
  -4  -1 -10  278.06    2.56
  -4   1  10  269.78    1.89
  10  -4   1  265.99    3.79
   1 -10   4  263.89    3.22
   0 -10   4  597.69    4.67
   0 -10  -4  605.76    3.51
  10  -4   0  577.26    5.36
  -4   0  10  575.27    3.00
   4   0  10  607.08    4.58
   0  10  -4  562.68    4.31
 -10   4   0  583.92    5.56
   4   0 -10  566.94    2.97
  10   4   0  587.05    5.60
   0  10   4  584.00    3.49
 -10  -4   0  593.58    4.95
   4  -1 -10  260.40    1.91
   4   1  10  263.12    2.84
  10  -4  -1  261.59    3.55
  -4  -1  10  266.64    2.22
 -10   4  -1  271.30    3.86
 -10  -4   1  260.26    3.28
  -1 -10   4  267.28    3.09
   1  10   4  263.25    2.40
   1 -10  -4  264.09    2.41
  -1  10  -4  272.36    3.04
  -4  -2  10   70.24    1.27
 -10   4  -2   74.13    2.16
  10  -4  -2   74.64    1.94
  -2 -10   4   75.04    1.68
   2 -10  -4   69.58    1.36
  -4   2 -10   73.94    1.51
   4   2  10   75.98    1.48
  10  -4  -3  313.81    3.63
 -10   4  -3  292.87    4.00
  -3 -10   4  328.88    3.41
   3  10   4  316.35    2.78
   4   3  10  305.02    2.61
 -10  -4   3  318.80    3.54
  -4  -3  10  309.11    2.72
   3 -10  -4  307.93    2.89
  -4   3 -10  321.12    3.10
  -4  10  -4  346.35    3.57
  -4  -4  10  367.38    3.11
  -4 -10   4  352.90    3.53
   4  10   4  366.15    3.14
 -10   4  -4  338.15    4.33
   4 -10  -4  364.01    3.31
  -4   4 -10  379.45    3.44
 -10  -4   4  357.98    3.66
  -4  -5  10  113.69    1.86
  -5 -10   4  110.19    2.06
   5 -10  -4  116.32    2.00
   5  10   4  112.64    1.88
  -5  10  -4  106.82    2.13
  -4  -6  10  121.08    1.97
   6 -10  -4  124.75    2.16
  -6 -10   4  121.16    2.14
 -10   4  -6  119.84    2.60
 -10  -4   6  121.34    2.11
  -6  10  -4  119.46    2.31
   6  10   4  124.85    2.08
  -4   6 -10  129.19    2.14
  -4   7 -10  200.98    2.66
   7 -10  -4  196.97    2.74
 -10   4  -7  194.31    3.23
  -7 -10   4  206.53    2.83
   7  10   4  206.10    2.73
 -10  -4   7  208.84    2.74
 -10  -4   8   97.20    1.92
  -4   8 -10   89.41    1.83
   8 -10  -4   88.24    1.95
 -10   4  -8   89.84    2.30
  -8 -10   4   90.23    1.95
  -8  10  -4   90.40    2.09
  -4  -9  10   24.49    1.06
  -9 -10   4   22.08    1.06
  -9  10  -4   22.66    1.31
   9  10   4   21.70    1.16
 -10  -4   9   23.26    1.05
  -4   9 -10   23.35    1.08
  10   5  -9   32.77    1.22
   5  -9  10   31.24    1.58
 -10  -5  -9   35.68    1.33
  10  -5   9   29.92    1.57
   9 -10   5   36.20    1.75
 -10   5   9   35.09    1.05
   9  10  -5   31.12    1.30
 -10   5   9   34.28    1.19
  -5   9  10   34.66    0.55
  -9  10   5   33.81    1.23
 -10  -5  -9   34.04    1.19
  -5  -9 -10   33.52    0.72
   5   9 -10   34.07    1.26
 -10   5   8   80.15    1.66
  -8 -10  -5   84.45    1.61
  -5   8  10   81.27    0.78
  10  -5   8   76.28    2.37
  -5  -8 -10   81.31    1.32
 -10   5   8   77.86    1.75
  10   5  -8   78.46    1.80
 -10  -5  -8   78.80    1.89
   8  10  -5   75.64    1.79
   5  -8  10   75.07    2.14
  -5  -8 -10   81.12    1.09
 -10  -5  -8   82.76    1.79
  -8  10   5   79.95    1.68
  -5   8  10   81.31    0.91
   5   8 -10   81.76    1.73
   5   7 -10   46.72    1.35
 -10  -5  -7   45.61    1.55
  -5  -7 -10   43.98    1.02
  10  -5   7   46.09    1.87
 -10   5   7   43.71    1.45
  10   5  -7   45.62    1.42
  -5  -7 -10   45.16    0.85
  -5   7  10   42.68    0.59
   7 -10   5   42.40    1.81
   5  -7  10   45.83    1.75
  -7  10   5   44.05    1.22
 -10   5   7   41.93    1.36
  -7 -10  -5   44.97    1.17
  -5   7  10   42.75    0.59
  -5  -6 -10   52.57    1.13
  -5   6  10   50.45    0.62
 -10   5   6   50.09    1.57
  10   5  -6   50.45    1.54
 -10  -5  -6   50.26    1.49
   5  -6  10   51.82    1.79
   6 -10   5   48.75    1.75
   6  10  -5   49.34    1.51
  -5   6  10   50.68    0.71
  -5  -6 -10   50.19    0.96
  -6 -10  -5   51.74    1.21
  -6  10   5   50.86    1.21
   5  10  -5   69.90    1.67
  10  -5   5   74.16    2.20
   5 -10   5   69.85    2.14
  -5   5  10   73.21    0.75
 -10  -5  -5   73.92    1.93
 -10   5   5   73.33    1.94
 -10  -5  -5   71.06    1.70
  -5   5  10   71.14    0.94
   5  -5  10   76.74    2.10
  -5  -5 -10   75.50    1.21
  10   5  -5   70.96    1.86
  -5 -10  -5   73.77    1.36
  -5  10   5   74.05    1.36
  -4  10   5  175.30    1.93
 -10  -5  -4  162.46    2.70
   5   4 -10  173.01    2.08
 -10  -5  -4  178.91    2.68
  10  -5   4  174.91    3.29
  -5   4  10  176.43    1.60
 -10   5   4  166.10    2.79
  -5  -4 -10  182.88    2.11
  -4 -10  -5  184.87    2.01
  10   5  -4  176.41    2.88
   4 -10   5  173.28    3.03
  -5  -4 -10  171.18    1.96
   4  10  -5  175.19    2.55
  -5   4  10  179.36    1.27
 -10  -5  -3   49.71    1.54
  -3  10   5   47.00    1.02
  -5  -3 -10   45.50    1.14
  10  -5   3   42.63    1.79
 -10   5   3   44.00    1.56
  -3 -10  -5   44.93    1.01
   5  -3  10   44.83    1.52
   3  10  -5   45.28    1.39
   3 -10   5   46.61    1.64
  -5   3  10   43.26    0.71
  10   5  -3   48.50    1.65
  10   5  -2   66.33    1.90
  -2 -10  -5   63.02    1.13
  10  -5   2   58.54    1.97
  -2  10   5   65.64    1.16
 -10   5   2   66.38    1.99
   5   2 -10   63.57    1.21
   5  -2  10   61.94    1.78
  -5  -2 -10   61.30    1.34
   2  10  -5   63.93    1.59
  -5   2  10   63.16    0.93
   2 -10   5   61.21    1.76
 -10  -5  -2   67.75    1.78
  -1 -10  -5   70.82    1.16
  10   5  -1   63.35    1.87
  10  -5   1   65.63    2.04
  -1  10   5   65.75    1.15
 -10   5   1   68.03    1.98
   1  10  -5   67.16    1.58
  -5   1  10   68.35    1.05
 -10  -5  -1   64.62    1.73
   1 -10   5   70.27    1.80
   5   0 -10  220.03    2.02
  10  -5   0  220.70    3.41
   5   0  10  223.37    2.93
   0  10  -5  218.08    2.73
 -10   5   0  228.21    3.53
  -5   0  10  230.72    2.02
  -5   0 -10  216.92    2.53
 -10  -5   0  232.65    3.02
   0  10   5  227.47    2.07
  10   5   0  220.75    3.43
   0 -10   5  226.03    2.96
   0 -10  -5  222.27    2.02
  -1  10  -5   65.71    1.56
  10  -5  -1   64.27    1.87
   5   1  10   67.43    1.57
 -10  -5   1   65.00    1.72
 -10   5  -1   67.94    2.05
  -5  -1  10   67.37    1.20
  -1 -10   5   66.91    1.66
   5  -1 -10   66.32    1.13
  10   5   1   66.05    1.95
   1  10   5   59.73    1.14
  10  -5  -2   63.66    1.79
   2  10   5   65.27    1.21
  -5  -2  10   66.99    1.28
 -10  -5   2   64.64    1.66
 -10   5  -2   60.90    2.00
   5  -2 -10   64.73    1.10
  -2 -10   5   65.86    1.64
   2 -10  -5   62.42    1.23
   5   2  10   66.46    1.47
  -5   2 -10   65.92    1.55
  10   5   2   64.77    1.97
  -5  -3  10   46.38    1.15
  -3 -10   5   43.17    1.35
 -10  -5   3   45.46    1.44
 -10   5  -3   42.70    1.75
   3 -10  -5   44.82    1.14
   5   3  10   48.01    1.20
  -5   3 -10   50.63    1.39
   3  10   5   47.62    1.11
  -4  10  -5  172.92    2.51
  10  -5  -4  183.38    2.73
  -4 -10   5  170.06    2.52
  -5  -4  10  180.21    2.24
 -10  -5   4  174.66    2.58
 -10   5  -4  155.17    2.98
   4 -10  -5  166.13    2.15
   4  10   5  156.57    2.02
  -5 -10   5   68.79    1.71
   5 -10  -5   68.57    1.49
 -10   5  -5   70.07    2.13
 -10  -5   5   69.02    1.65
  -5   5 -10   76.37    1.72
   5  10   5   75.65    1.56
  -5  -5  10   73.67    1.55
  -5  10  -5   67.04    1.68
  -5  -6  10   48.24    1.30
   6 -10  -5   50.02    1.36
  -6 -10   5   47.44    1.43
 -10   5  -6   49.71    1.82
   6  10   5   52.59    1.39
  -5   6 -10   49.18    1.47
  -6  10  -5   47.00    1.57
 -10  -5   7   44.50    1.44
  -5  -7  10   46.57    1.37
  -7 -10   5   42.03    1.44
 -10   5  -7   45.67    1.71
  -7  10  -5   42.03    1.44
  -5   7 -10   43.25    1.39
   8 -10  -5   83.80    1.81
  -5  -8  10   80.21    1.74
  -8 -10   5   84.53    1.94
   8  10   5   77.87    1.82
 -10  -5   8   82.94    1.79
  -5   9 -10   32.76    1.25
  -5  -9  10   33.46    1.24
   9 -10  -5   34.37    1.29
   9  10   5   31.56    1.27
 -10   5  -9   31.56    1.39
  -9 -10   5   29.43    1.18
  -9  10  -5   34.39    1.51
 -10  -5   9   33.85    1.25
  10   6  -9   76.37    1.82
  -6  -9 -10   71.02    1.30
  -9 -10  -6   76.65    1.50
 -10  -6  -9   75.23    1.60
  10  -6   9   71.64    2.39
   6  -9  10   74.96    2.24
 -10   6   9   76.31    1.64
   9 -10   6   73.82    2.30
 -10  -6  -9   74.29    1.73
  -9  10   6   69.09    1.58
 -10   6   9   76.14    1.52
  -6   9  10   81.76    0.96
 -10  -6  -8   52.46    1.55
  -8 -10  -6   57.02    1.32
  -6  -8 -10   54.71    1.18
  -6   8  10   57.16    0.92
 -10  -6  -8   60.09    1.49
   8  10  -6   56.08    1.54
   6  -8  10   55.20    1.97
  -6  -8 -10   55.42    1.00
  -8  10   6   55.31    1.36
 -10   6   8   53.26    1.41
  -6   8  10   56.17    0.83
 -10   6   8   56.10    1.49
   6   7 -10   42.86    1.28
 -10  -6  -7   38.39    1.27
 -10  -6  -7   42.49    1.40
  10  -6   7   40.80    1.94
  -6   7  10   41.21    0.73
 -10   6   7   36.79    1.31
   6  -7  10   41.04    1.66
   7 -10   6   38.15    1.64
  -6  -7 -10   41.88    0.91
  10   6  -7   38.91    1.39
  -6  -7 -10   39.02    1.03
  -6   7  10   41.37    0.77
   7  10  -6   36.44    1.26
  -7  10   6   40.06    1.10
  -7 -10  -6   41.92    1.11
 -10   6   7   42.76    1.41
  -6  -6 -10  169.10    1.83
 -10  -6  -6  174.62    2.53
 -10  -6  -6  164.06    2.66
  10   6  -6  167.55    2.71
  10  -6   6  173.24    3.33
 -10   6   6  168.22    2.65
   6  -6  10  173.42    3.20
  -6   6  10  166.71    1.58
   6 -10   6  162.55    3.09
  -6   6  10  169.89    1.39
  -6 -10  -6  161.21    1.96
  -6  10   6  163.17    1.94
   6   6 -10  169.90    2.26
  -5  10   6  193.44    2.01
   6   5 -10  187.09    2.30
  -6   5  10  194.10    1.82
  -6   5  10  186.81    1.45
 -10   6   5  185.49    2.86
   6  -5  10  185.98    3.21
 -10  -6  -5  182.06    2.81
  -6  -5 -10  183.26    2.05
   5 -10   6  187.94    3.34
  10   6  -5  183.09    2.85
  -5 -10  -6  191.63    2.03
 -10  -6  -5  195.37    2.73
   5  10  -6  190.73    2.69
  -6   4  10  124.58    1.55
   6   4 -10  122.87    1.84
  -6   4  10  123.90    1.22
  -4  10   6  126.10    1.53
 -10   6   4  114.33    2.44
   6  -4  10  124.83    2.62
  10   6  -4  121.51    2.36
  -4 -10  -6  119.85    1.56
   4 -10   6  116.61    2.54
  10  -6   4  121.65    2.77
   4  10  -6  120.06    2.16
 -10  -6  -4  122.45    2.36
 -10  -6  -4  116.77    2.17
  -6  -4 -10  118.21    1.79
  -3 -10  -6  118.97    1.49
  -3  10   6  117.97    1.44
 -10   6   3  109.22    2.37
   6  -3  10  119.68    2.54
  -6  -3 -10  114.11    1.88
   6   3 -10  112.25    1.71
   3  10  -6  107.29    2.03
 -10  -6  -3  109.01    2.13
   3 -10   6  110.46    2.36
  -6   3  10  116.30    1.54
  -2  10   6  275.80    2.12
   6   2 -10  270.15    2.51
  -2 -10  -6  284.36    2.18
   6  -2  10  280.80    3.68
 -10   6   2  267.65    3.65
   2  10  -6  276.50    3.15
 -10  -6  -2  273.84    3.25
  10   6  -2  282.58    3.71
   2 -10   6  275.48    3.51
  -6   2  10  278.55    2.05
  10  -6   2  265.01    3.89
  -1 -10  -6  207.31    1.81
  10  -6   1  202.81    3.41
   6  -1  10  209.32    3.04
   1  10  -6  207.82    2.73
 -10   6   1  212.62    3.37
  -6  -1 -10  214.89    2.63
 -10  -6  -1  215.31    2.94
  -1  10   6  217.01    1.89
  -6   1  10  220.63    1.95
   1 -10   6  210.95    2.96
  10   6  -1  216.70    3.32
   6   1 -10  211.61    2.20
  10   6   0  170.11    2.97
   6   0  10  170.78    2.67
 -10  -6   0  172.67    2.64
   0  10  -6  166.71    2.42
  10  -6   0  165.83    3.00
  -6   0 -10  173.26    2.42
  -6   0  10  174.79    1.86
   0  10   6  179.06    1.71
   0 -10  -6  179.10    1.70
   0 -10   6  174.69    2.67
   1  10   6  221.88    1.98
   6   1  10  221.20    2.90
  10  -6  -1  214.80    3.30
   6  -1 -10  212.66    2.13
  -1  10  -6  208.36    2.72
 -10  -6   1  213.47    2.88
 -10   6  -1  206.10    3.40
  -6  -1  10  217.63    2.19
  -6   1 -10  215.38    2.77
  10   6   1  219.53    3.43
 -10   6  -2  250.05    3.67
  10   6   2  267.68    3.78
  -6  -2  10  281.29    2.61
  10  -6  -2  272.44    3.61
  -2 -10   6  257.69    3.08
   2 -10  -6  268.58    2.30
  -6   2 -10  276.62    3.14
   2  10   6  274.47    2.28
 -10  -6   3  113.96    2.13
  -3  10  -6  107.94    2.01
  10   6   3  106.53    2.50
 -10   6  -3  111.39    2.55
   3 -10  -6  108.46    1.56
  10  -6  -3  115.59    2.29
   3  10   6  108.66    1.56
  -4  10  -6  119.36    2.16
 -10  -6   4  120.40    2.19
  -4 -10   6  117.80    2.13
  10  -6  -4  120.69    2.29
  -6  -4  10  124.09    1.93
 -10   6  -4  116.74    2.64
  -6   4 -10  119.06    2.18
   4  10   6  119.33    1.77
  -5 -10   6  184.61    2.66
   5  10   6  189.64    2.31
  10  -6  -5  196.67    2.75
  -6  -5  10  187.33    2.42
 -10   6  -5  174.59    3.13
   5 -10  -6  173.93    2.15
  -6   5 -10  188.77    2.72
  -5  10  -6  172.24    2.62
 -10  -6   6  168.27    2.57
  10  -6  -6  179.68    2.48
   6 -10  -6  163.70    2.21
  -6 -10   6  170.76    2.62
  -6  -6  10  168.34    2.37
  -6  10  -6  156.92    2.63
   7 -10  -6   41.42    1.23
  -6  -7  10   41.60    1.33
  -7 -10   6   39.07    1.39
 -10   6  -7   34.81    1.56
  -7  10  -6   39.34    1.42
   7  10   6   37.65    1.31
  -6   7 -10   39.73    1.30
 -10  -6   7   37.77    1.32
   8 -10  -6   51.61    1.39
  -6  -8  10   52.76    1.46
   8  10   6   55.76    1.62
  -8 -10   6   51.27    1.57
 -10   6  -8   50.40    1.74
 -10  -6   8   54.57    1.56
  -8  10  -6   52.10    1.68
  -6   8 -10   52.59    1.59
  -6  -9  10   71.41    1.70
   9 -10  -6   73.41    1.64
  -9 -10   6   72.09    1.76
 -10   6  -9   73.92    2.01
 -10  -6   9   76.63    1.72
   9  10   6   69.88    1.85
  -6   9 -10   75.54    1.80
  -7  -9 -10   57.02    1.24
  -7  -9 -10   58.50    1.06
  10  -7   9   57.21    2.08
 -10   7   9   54.54    1.39
   7  -9  10   62.05    2.16
 -10   7   9   59.01    1.40
  -9 -10  -7   56.71    1.28
 -10  -7  -9   60.42    1.57
  -9  10   7   57.73    1.39
  10   7  -9   56.11    1.62
   7   9 -10   57.08    1.46
 -10  -7  -9   60.38    1.39
 -10  -7  -8    7.02    0.73
  -7  -8 -10    9.08    0.64
  -7   8  10    8.20    0.51
  10  -7   8    5.91    1.21
 -10   7   8    8.60    0.80
 -10   7   8    7.33    0.73
   7  -8  10    6.50    1.14
   7   8 -10    6.94    0.72
   8  10  -7    5.63    0.77
  -7   8  10    8.70    0.50
  -8  10   7    8.29    0.66
 -10  -7  -8    7.13    0.71
  -7  -8 -10    7.63    0.52
  10   7  -8    7.16    0.75
 -10  -7  -7   30.19    1.23
  -7  -7 -10   30.65    1.00
  10  -7   7   28.14    1.59
 -10   7   7   29.48    1.17
   7  -7  10   30.81    1.55
   7 -10   7   27.21    1.46
   7  10  -7   30.10    1.19
  -7   7  10   30.52    0.82
  -7  -7 -10   28.92    0.84
 -10  -7  -7   30.58    1.15
  -7  10   7   31.67    0.95
  -7 -10  -7   31.27    0.93
  10   7  -7   32.76    1.31
  -7   6  10   68.48    1.03
 -10  -7  -6   69.05    1.73
  -7  -6 -10   71.69    1.49
  -7  -6 -10   71.94    1.31
   7   6 -10   72.08    1.58
  10  -7   6   62.14    2.23
   7  -6  10   72.30    2.23
  -7   6  10   68.09    1.19
 -10   7   6   73.21    1.78
   6 -10   7   62.89    2.03
 -10  -7  -6   68.17    1.59
  -6 -10  -7   71.22    1.28
  -6  10   7   68.18    1.22
  -5  10   7  103.35    1.35
  -7  -5 -10  103.90    1.79
 -10   7   5   95.72    2.09
  -7   5  10  104.35    1.52
   7  -5  10  113.98    2.69
   7   5 -10  106.31    1.83
   5 -10   7   99.82    2.53
  -7   5  10  101.17    1.23
 -10  -7  -5  107.28    1.98
  -7  -5 -10   99.29    1.62
  -5 -10  -7   99.86    1.43
 -10  -7  -5  104.00    2.13
  -7   4  10   14.97    0.70
  10   7  -4   14.26    1.07
  -7   4  10   13.67    0.54
   7  -4  10   14.87    1.20
   4 -10   7   12.92    1.04
  -4  10   7   15.46    0.57
  -4 -10  -7   15.37    0.62
  -7  -4 -10   13.76    0.82
 -10  -7  -4   12.31    0.92
  10  -7   4   15.36    1.30
   4  10  -7   12.76    0.83
  -7  -4 -10   14.73    0.82
  -7   3  10   82.35    1.44
  10   7  -3   85.93    2.01
  -7   3  10   84.38    1.18
  -3  10   7   81.69    1.11
   7  -3  10   86.34    2.25
  10  -7   3   77.87    2.34
  -3 -10  -7   87.54    1.21
  -7  -3 -10   85.40    1.72
 -10   7   3   83.20    2.05
 -10  -7  -3   86.28    1.86
   3  10  -7   83.33    1.84
   7   3 -10   75.92    1.50
   3 -10   7   79.80    2.12
  -2 -10  -7   75.95    1.08
  -7  -2 -10   75.24    1.67
  10  -7   2   72.84    2.15
   7  -2  10   75.62    1.96
 -10  -7  -2   78.39    1.75
 -10   7   2   80.84    2.09
  -2  10   7   80.49    1.08
  10   7  -2   79.37    1.98
   2  10  -7   77.17    1.77
   2 -10   7   75.06    1.95
  -7   2  10   74.71    1.39
   7   2 -10   76.87    1.49
 -10  -7  -1  116.00    2.13
  -1 -10  -7  118.82    1.29
   7   1 -10  116.69    1.72
  10  -7   1  120.81    2.73
   1  10  -7  120.40    2.11
  -7  -1 -10  117.54    2.09
 -10   7   1  118.43    2.53
  10   7  -1  122.66    2.52
   7  -1  10  125.17    2.51
  -1  10   7  119.17    1.29
   1 -10   7  119.58    2.31
  -7   1  10  118.53    1.55
   7   0  10   19.23    1.06
  10  -7   0   21.73    1.40
   0  10  -7   17.62    0.95
 -10   7   0   20.45    1.31
  -7   0 -10   17.26    1.00
   7   0 -10   19.49    0.83
  10   7   0   22.62    1.21
  -7   0  10   21.82    0.78
   0 -10  -7   18.84    0.59
   0 -10   7   18.98    1.12
  -1 -10   7  114.55    2.15
   7   1  10  117.63    2.20
  10   7   1  107.51    2.44
  10  -7  -1  107.55    2.43
 -10  -7   1  117.61    2.15
  -1  10  -7  105.90    2.03
   1  10   7  117.57    1.38
 -10   7  -1  108.99    2.45
  -7   1 -10  112.88    2.16
   1 -10  -7  114.49    1.35
  -7  -1  10  118.38    1.68
   7   2  10   81.17    1.81
 -10  -7   2   76.55    1.75
  10  -7  -2   76.03    2.05
 -10   7  -2   71.21    2.13
   2  10   7   75.44    1.19
   2 -10  -7   78.74    1.20
  10   7   2   75.51    2.06
  -7  -2  10   76.58    1.45
  -3  10  -7   78.20    1.77
  -3 -10   7   87.80    1.86
   7   3  10   86.52    1.76
  10   7   3   77.26    2.05
  -7  -3  10   88.09    1.60
   3 -10  -7   80.77    1.28
 -10   7  -3   84.56    2.22
 -10  -7   3   86.35    1.85
  -7   3 -10   88.26    1.94
  10  -7  -3   83.58    2.03
   3  10   7   81.60    1.35
  10  -7  -4   16.15    1.04
  -4 -10   7   12.50    0.83
  10   7   4   13.97    1.06
   4 -10  -7   14.31    0.68
   4  10   7   14.94    0.71
  -7  -4  10   15.62    0.87
  -4  10  -7   14.88    0.99
  -7   4 -10   16.81    0.98
  10  -7  -5  105.33    2.04
   5 -10  -7  104.26    1.59
  -5 -10   7  104.42    2.01
  -7  -5  10  108.35    1.91
   5  10   7  104.02    1.74
 -10   7  -5   99.14    2.39
  -7   5 -10  104.11    2.14
 -10  -7   5  107.37    2.13
   6  10   7   66.07    1.52
  10  -7  -6   69.98    1.63
   6 -10  -7   67.94    1.36
  -6 -10   7   70.45    1.77
  -7  -6  10   72.02    1.61
 -10   7  -6   67.56    2.00
  -7   6 -10   69.44    1.75
 -10  -7   6   65.15    1.63
  -6  10  -7   66.98    1.81
   7 -10  -7   27.85    0.97
  -7  -7  10   29.35    1.13
  -7 -10   7   29.77    1.26
   7  10   7   29.84    1.16
 -10   7  -7   26.56    1.46
  -7  10  -7   29.15    1.30
  -7  -8  10   10.86    0.85
   8 -10  -7    8.27    0.68
  -8 -10   7    6.68    0.90
 -10   7  -8    8.22    1.02
 -10  -7   8    8.55    0.75
  -7   8 -10    9.77    0.91
   8  10   7    5.41    0.79
  -7  -9  10   58.14    1.59
   9  10   7   55.50    1.62
  -9 -10   7   58.51    1.61
 -10  -7   9   60.71    1.61
   9 -10  -7   61.47    1.45
  -9 -10  -8   31.76    0.99
  -8  -9 -10   33.56    0.88
 -10  -8  -9   35.16    1.19
 -10   8   9   34.26    1.09
  -9 -10  -8   35.51    1.11
 -10  -8  -9   33.06    1.01
  -9  10   8   34.36    1.03
 -10   8   9   35.13    1.15
  -8  -9 -10   37.26    1.08
 -10  -8  -8   41.43    1.29
  -8   8  10   45.25    1.03
   8   8 -10   43.29    1.35
  10  -8   8   43.44    1.92
   8  -8  10   40.17    1.71
 -10   8   8   41.68    1.26
  -8  -8 -10   41.50    1.17
 -10  -8  -8   40.52    1.18
  -8   8  10   41.12    0.99
  -8  -8 -10   44.54    1.03
  -8  10   8   44.28    1.09
  -8  -7 -10   70.18    1.49
  10  -8   7   67.54    2.24
   8  -7  10   68.19    2.17
  -8   7  10   68.21    1.25
 -10   8   7   71.77    1.66
   7 -10   8   64.95    2.10
 -10  -8  -7   70.61    1.55
  -8   7  10   65.72    1.15
 -10  -8  -7   68.56    1.65
  -8  -7 -10   68.59    1.32
  10   8  -7   64.27    1.77
  -7  10   8   69.00    1.22
   7  10  -8   75.60    1.77
  -7 -10  -8   71.46    1.30
  -8   6  10   57.96    1.06
  -8  -6 -10   55.55    1.40
  10  -8   6   53.56    1.98
   8  -6  10   56.72    2.01
  -8   6  10   55.82    1.22
 -10  -8  -6   57.52    1.44
  -8  -6 -10   53.22    1.21
 -10   8   6   58.00    1.59
   8   6 -10   54.46    1.40
   6 -10   8   53.63    1.88
  -6 -10  -8   58.54    1.11
  10   8  -6   59.47    1.73
  -6  10   8   55.86    1.03
  -8   5  10  106.37    1.67
  10  -8   5  105.55    2.69
   8  -5  10  117.10    2.68
 -10  -8  -5  112.19    1.96
  -5  10   8  112.56    1.30
 -10   8   5  108.00    2.14
   5 -10   8  105.10    2.56
   8   5 -10  110.47    1.92
  -5 -10  -8  117.58    1.45
  -8  -5 -10   99.49    1.72
  -8   5  10  114.58    1.47
   5  10  -8  103.84    2.01
  10   8  -5  111.27    2.27
 -10  -8  -4   99.84    1.93
  -4  10   8   95.20    1.13
   8  -4  10   94.02    2.43
  10  -8   4   93.20    2.55
 -10   8   4   84.11    2.01
  -4 -10  -8   92.23    1.23
  -8   4  10   92.90    1.34
   4 -10   8   85.63    2.31
  -8  -4 -10   93.17    1.76
   8   4 -10   95.76    1.80
  -8   4  10   92.07    1.60
  -8   3  10  122.17    1.85
  -8   3  10  118.43    1.50
  -8  -3 -10  120.61    2.11
  -3 -10  -8  120.64    1.32
  -3  10   8  117.93    1.19
   8  -3  10  118.12    2.59
 -10  -8  -3  123.85    2.15
 -10   8   3  121.82    2.43
   3  10  -8  119.40    2.16
   3 -10   8  117.81    2.50
   8   2 -10   88.67    1.61
  -8   2  10   89.41    1.61
  -8   2  10   88.83    1.34
  10  -8   2   88.89    2.44
  -2 -10  -8   85.87    1.04
   8  -2  10   87.47    2.24
 -10   8   2   84.28    2.07
   2  10  -8   88.50    1.89
  10   8  -2   82.84    2.07
  -2  10   8   85.15    1.00
   2 -10   8   82.14    2.09
  -1  10   8  159.33    1.35
  -1 -10  -8  160.15    1.37
  -8   1  10  165.48    1.90
 -10  -8  -1  159.22    2.41
   8  -1  10  168.25    2.89
  10  -8   1  153.73    2.98
   1  10  -8  154.78    2.38
  -8  -1 -10  158.13    2.51
  10   8  -1  161.60    2.81
 -10   8   1  156.71    2.78
   8   1 -10  160.68    2.16
   1 -10   8  157.08    2.66
  -8   0  10  130.31    1.79
   0  10   8  125.80    1.25
   8   0  10  122.26    2.43
   8   0 -10  114.97    1.85
 -10  -8   0  121.70    2.18
 -10   8   0  116.24    2.48
   0 -10  -8  121.18    1.22
   0 -10   8  123.44    2.36
  -1 -10   8  156.91    2.54
 -10   8  -1  157.54    2.96
   8   1  10  153.56    2.60
  10  -8  -1  167.56    3.02
  -8   1 -10  166.16    2.67
   1  10   8  156.17    1.49
   1 -10  -8  157.43    1.45
  10   8   1  157.84    2.86
 -10  -8   1  160.65    2.53
  -8  -1  10  166.97    2.04
  -1  10  -8  156.46    2.38
   8  -1 -10  159.63    2.16
   2  10   8   82.93    1.21
  -2 -10   8   80.55    1.85
  10   8   2   88.27    2.20
  10  -8  -2   87.17    2.15
   2 -10  -8   89.49    1.17
  -8   2 -10   83.87    1.99
  -2  10  -8   87.98    1.89
 -10   8  -2   83.42    2.26
   8   2  10   90.65    1.95
  -8  -2  10   89.36    1.61
  -3  10  -8  113.39    2.13
  10  -8  -3  117.35    2.36
   3  10   8  112.42    1.50
   3 -10  -8  114.22    1.38
  -3 -10   8  113.01    2.12
 -10   8  -3  115.08    2.58
  10   8   3  121.71    2.51
  -8   3 -10  121.03    2.34
  -8  -3  10  119.99    1.89
  10  -8  -4   92.06    2.00
   4 -10  -8   92.20    1.32
  10   8   4   89.52    2.17
 -10   8  -4   86.76    2.23
  -8  -4  10   95.94    1.77
  -8   4 -10   94.23    2.07
   4  10   8   88.65    1.49
 -10  -8   4   92.98    1.99
  -5  10  -8  104.64    2.05
   5  10   8   99.47    1.69
  -5 -10   8  108.81    2.07
  10   8   5  102.90    2.36
  -8  -5  10  113.87    1.95
 -10   8  -5  111.14    2.52
  -8   5 -10  104.23    2.19
  10  -8  -5  122.37    2.23
 -10  -8   5  113.61    2.15
  -6 -10   8   54.63    1.58
  10  -8  -6   55.55    1.47
  -8  -6  10   58.61    1.52
 -10   8  -6   55.79    1.83
 -10  -8   6   55.15    1.53
   6 -10  -8   55.21    1.14
  -6  10  -8   51.35    1.61
  -7 -10   8   67.50    1.74
  -8  -7  10   70.30    1.68
  10  -8  -7   71.61    1.55
 -10  -8   7   72.36    1.79
  -8   7 -10   67.77    1.79
   7  10   8   64.05    1.56
   7 -10  -8   68.52    1.29
   8 -10  -8   43.59    1.13
  -8  -8  10   43.87    1.40
  -8 -10   8   44.10    1.48
 -10  -8   8   42.40    1.42
   8  10   8   40.99    1.35
   9 -10  -8   34.71    1.05
  -8  -9  10   34.69    1.30
 -10  -8   9   35.98    1.26
  -9 -10  -9    7.61    0.54
  -9  -9 -10    4.26    0.56
  -9  -9 -10    6.64    0.54
 -10  -9  -9    4.90    0.53
 -10   9   9    5.26    0.65
  -9 -10  -9    5.93    0.57
  -8 -10  -9   46.29    1.17
 -10  -9  -8   44.30    1.30
 -10  -9  -8   46.43    1.19
  -9  -8 -10   46.46    1.11
 -10   9   8   46.30    1.31
  -9  -8 -10   45.37    1.26
  -8  10   9   47.66    1.04
  -7 -10  -9   38.15    0.94
  -7 -10  -9   35.11    1.01
 -10  -9  -7   36.52    1.13
  -9  -7 -10   35.90    1.15
   9  -7  10   39.03    1.83
  -9   7  10   40.55    1.09
   7 -10   9   36.18    1.62
 -10   9   7   35.78    1.22
   9   7 -10   34.16    1.17
  -9   7  10   38.07    0.98
  -7  10   9   39.21    0.86
  -9  -7 -10   38.34    1.06
 -10  -9  -6   19.85    0.93
  -9   6  10   17.50    0.70
  -9  -6 -10   16.00    0.78
   9  -6  10   14.70    1.17
  -9   6  10   15.87    0.78
   6 -10   9   14.67    1.21
 -10   9   6   14.66    0.92
  -6 -10  -9   18.07    0.67
  10  -9   6   13.72    1.28
  -6  10   9   16.92    0.57
  -9   5  10   20.89    0.90
 -10  -9  -5   21.47    0.99
 -10   9   5   21.42    1.12
   5 -10   9   21.30    1.36
  -5 -10  -9   23.24    0.67
  -9  -5 -10   20.81    0.95
  10  -9   5   19.29    1.41
  10   9  -5   18.84    1.08
   5  10  -9   20.99    0.98
  -9   5  10   23.14    0.79
  -5  10   9   21.81    0.56
   9   4 -10   98.99    1.87
 -10  -9  -4  104.55    1.91
   9  -4  10   96.48    2.46
  -9   4  10   97.34    1.73
  -4 -10  -9   98.13    1.19
 -10   9   4   97.99    2.13
  10  -9   4   90.13    2.50
   4 -10   9   96.35    2.35
  -9   4  10   95.62    1.43
  -9  -4 -10  101.78    1.93
   4  10  -9   98.35    1.96
  10   9  -4   91.74    2.14
  -4  10   9  100.26    1.01
  10   9  -3   43.21    1.56
 -10  -9  -3   41.20    1.25
   9   3 -10   39.99    1.19
  10  -9   3   44.17    1.87
  -9   3  10   39.42    1.00
  -9  -3 -10   36.67    1.34
  -3  10   9   41.51    0.64
 -10   9   3   39.42    1.47
   3 -10   9   40.07    1.59
   9  -3  10   40.86    1.64
  -3 -10  -9   41.58    0.75
  -9   3  10   41.82    1.21
   9   2 -10   23.77    0.98
  -9   2  10   23.76    0.98
 -10  -9  -2   27.07    1.17
  10   9  -2   25.11    1.27
   9  -2  10   20.48    1.27
  -9   2  10   24.06    0.83
  10  -9   2   22.75    1.41
  -9  -2 -10   23.42    1.12
 -10   9   2   20.37    1.24
   2 -10   9   20.65    1.27
  -2  10   9   23.98    0.50
   9  -1  10   38.05    1.50
  10   9  -1   32.50    1.33
  -1  10   9   35.85    0.60
  -9  -1 -10   39.80    1.42
   9   1 -10   35.88    1.19
 -10  -9  -1   35.71    1.23
 -10   9   1   33.43    1.50
  -9   1  10   36.31    0.99
  -9   1  10   37.97    1.18
  -1 -10  -9   38.04    0.64
   9   0  10  123.52    2.50
  10  -9   0  119.70    2.61
   9   0 -10  123.52    2.01
  10   9   0  119.55    2.40
  -9   0 -10  128.49    2.43
 -10   9   0  120.72    2.56
   0  10   9  118.45    1.14
   0 -10  -9  121.30    1.11
   0 -10   9  120.77    2.34
  -9  -1  10   39.84    1.12
 -10  -9   1   38.68    1.36
   9   1  10   31.76    1.36
  10  -9  -1   35.60    1.47
  -9   1 -10   37.21    1.42
   1  10   9   33.89    0.69
   1 -10  -9   34.28    0.65
 -10   9  -1   34.54    1.52
  -1 -10   9   31.76    1.33
  -2 -10   9   23.02    1.14
  10  -9  -2   23.71    1.30
   2 -10  -9   23.66    0.57
  -9   2 -10   23.29    1.20
   2  10   9   23.51    0.68
 -10   9  -2   21.08    1.31
   9   2  10   25.94    1.16
  10   9   2   20.86    1.24
  -9  -2  10   22.77    0.89
 -10  -9   2   26.10    1.10
  -3 -10   9   40.05    1.38
  -3  10  -9   39.29    1.36
  10   9   3   42.88    1.65
   3  10   9   39.22    0.93
  10  -9  -3   37.29    1.45
   3 -10  -9   40.81    0.77
  -9   3 -10   37.10    1.45
 -10   9  -3   34.57    1.57
  -9  -3  10   42.16    1.20
 -10  -9   3   39.81    1.31
  10  -9  -4   91.07    2.04
   4 -10  -9   99.27    1.21
  -9   4 -10   93.17    2.17
  10   9   4   99.51    2.30
 -10   9  -4  100.70    2.40
  -9  -4  10  101.51    1.85
 -10  -9   4   97.59    2.03
   4  10   9   99.63    1.54
  -5  10  -9   20.24    1.00
  -5 -10   9   19.90    1.02
   5 -10  -9   22.90    0.67
  10   9   5   23.76    1.31
  -9  -5  10   21.84    0.98
 -10   9  -5   21.66    1.21
 -10  -9   5   21.46    1.07
  10  -9  -5   24.18    1.10
   5  10   9   20.94    0.87
  10  -9  -6   16.51    0.93
  -6 -10   9   16.92    1.05
  -9  -6  10   14.86    0.96
  -9   6 -10   13.72    1.12
 -10  -9   6   16.73    0.95
   6 -10  -9   17.57    0.66
  10   9   6   13.19    1.12
   7 -10  -9   38.34    0.94
  -7 -10   9   37.54    1.35
  -9  -7  10   37.79    1.28
   8 -10  -9   49.50    1.08
  10  -9  -8   51.40    1.23
  -9  -8  10   47.57    1.41
   9 -10  -9    7.54    0.58
 -10 -10 -10   24.28    0.81
 -10 -10 -10   20.53    0.88
 -10 -10  -9   11.09    0.73
 -10  -9 -10   12.01    0.75
  -9 -10 -10   11.64    0.61
 -10 -10  -9   12.08    0.64
 -10  -9 -10   12.31    0.67
  -8 -10 -10   23.57    0.75
 -10  -8 -10   22.32    0.97
 -10 -10  -8   21.40    0.84
 -10 -10  -8   20.80    0.91
 -10  -8 -10   21.38    0.85
 -10  10   8   21.40    0.91
  -7 -10 -10   37.32    0.88
 -10  -7 -10   37.01    1.22
 -10 -10  -7   39.05    1.10
 -10   7  10   36.40    1.10
 -10   7  10   38.44    1.04
 -10  10   7   37.88    1.20
  10   7 -10   38.10    1.35
 -10  -7 -10   40.96    1.13
  -7 -10 -10   39.56    1.04
  -6 -10 -10   51.68    1.10
 -10 -10  -6   53.09    1.31
 -10  -6 -10   52.53    1.46
 -10   6  10   53.15    1.33
 -10  -6 -10   52.69    1.31
 -10   6  10   53.63    1.17
   6 -10  10   49.56    1.96
 -10  10   6   52.45    1.45
  -6 -10 -10   52.90    0.96
  10   6 -10   56.39    1.50
 -10   5  10   27.37    0.89
 -10 -10  -5   28.40    1.05
 -10  -5 -10   26.21    1.14
 -10   5  10   26.61    1.01
  10  -5  10   24.79    1.38
  10 -10   5   30.23    1.55
   5 -10  10   30.07    1.62
  -5 -10 -10   26.09    0.77
 -10  10   5   29.09    1.19
  -5 -10 -10   27.38    0.67
 -10  -5 -10   29.28    1.12
   5  10 -10   26.83    1.07
 -10   4  10   75.09    1.61
 -10 -10  -4   73.34    1.61
  10  -4  10   71.35    2.17
 -10  -4 -10   70.88    1.74
  10   4 -10   76.60    1.70
  10 -10   4   70.41    2.26
  -4 -10 -10   72.89    0.96
 -10  -4 -10   73.19    1.70
 -10  10   4   70.90    1.81
   4 -10  10   70.90    2.10
 -10   4  10   71.30    1.36
   4  10 -10   73.82    1.71
  -4 -10 -10   72.20    1.12
 -10   3  10   53.45    1.42
  -3 -10 -10   61.23    0.81
  10  -3  10   57.30    1.96
 -10  -3 -10   62.19    1.70
  10 -10   3   50.85    1.97
 -10   3  10   60.21    1.26
 -10  -3 -10   60.77    1.69
  10   3 -10   59.06    1.52
 -10  10   3   56.09    1.69
   3  10 -10   56.65    1.56
   3 -10  10   55.74    1.88
  10  10  -3   58.54    1.72
  -3  10  10   61.15    0.61
  10  10  -2   62.41    1.85
  10  -2  10   65.64    2.01
  -2 -10 -10   66.00    0.77
  10   2 -10   69.73    1.64
  10 -10   2   59.34    2.01
 -10  -2 -10   69.63    1.82
 -10   2  10   65.26    1.31
  -2  10  10   61.24    0.60
   2  10 -10   66.66    1.63
 -10  10   2   58.65    1.72
   2 -10  10   63.70    1.92
  10  10  -1   52.64    1.66
 -10   1  10   51.93    1.41
  -1  10  10   51.12    0.59
  10 -10   1   50.78    1.86
 -10  -1 -10   49.43    1.62
   1  10 -10   53.71    1.48
  10  -1  10   51.62    1.80
 -10  10   1   53.99    1.73
  10   1 -10   46.65    1.35
   1 -10  10   48.88    1.66
  -1 -10 -10   51.27    0.65
  10  10   0  110.22    2.29
  10   0  10  110.95    2.38
 -10   0  10  116.23    1.77
   0  10 -10  106.65    2.04
 -10   0 -10  118.54    2.36
   0 -10 -10  112.76    0.94
 -10  10   0  110.65    2.41
   0  10  10  106.27    0.98
   0 -10  10  114.08    2.23
 -10 -10   0  119.70    2.17
  10   1  10   52.93    1.73
  -1  10 -10   49.04    1.45
 -10   1 -10   49.82    1.68
  10 -10  -1   50.91    1.84
  10  10   1   52.06    1.67
   1 -10 -10   47.37    0.61
   1  10  10   50.41    0.80
 -10  10  -1   47.65    1.66
 -10 -10   1   53.23    1.52
  -1 -10  10   52.53    1.53
 -10  -2  10   69.64    1.53
  -2 -10  10   60.63    1.61
  -2  10 -10   60.58    1.56
  10 -10  -2   62.65    1.89
   2 -10 -10   63.92    0.71
   2  10  10   62.00    1.00
 -10   2 -10   65.60    1.88
  10  10   2   68.03    1.94
 -10  10  -2   62.46    1.86
 -10 -10   2   65.00    1.70
  -3  10 -10   57.22    1.59
   3 -10 -10   62.81    0.74
  10 -10  -3   57.26    1.71
  -3 -10  10   57.52    1.55
 -10  10  -3   56.72    1.77
 -10 -10   3   61.30    1.62
  10  10   3   55.64    1.71
 -10  -3  10   60.22    1.42
  10  10   4   72.08    1.94
   4 -10 -10   73.29    0.87
  -4  10 -10   74.83    1.77
  -4 -10  10   75.28    1.79
  10 -10  -4   74.21    1.85
 -10   4 -10   71.93    1.99
 -10 -10   4   70.74    1.76
 -10  -4  10   74.39    1.61
  10 -10  -5   28.79    1.16
 -10   5 -10   27.40    1.35
 -10 -10   5   28.96    1.27
 -10  -5  10   30.33    1.17
  10  10   5   27.08    1.30
  10 -10  -6   52.11    1.45
  -6 -10  10   53.90    1.57
   6 -10 -10   54.53    0.90
 -10  -6  10   54.54    1.47
  10  10   6   49.44    1.59
  10 -10  -7   37.15    1.18
 -10  -7  10   38.73    1.31
   7 -10 -10   39.33    0.83
  -7 -10  10   37.27    1.35
  10 -10  -8   20.79    0.89
  10 -10  -9   11.98    0.68
   0   0 -11   -0.30    0.29
   0  11   0   -0.82    0.60
 -11   0   0   -0.64    0.87
   0   0  11    0.23    0.39
 -11   0   1  300.70    4.01
 -11   0  -1  301.49    4.02
   0  -1 -11  300.99    1.77
 -11   0  -1  302.50    4.14
   0   1  11  311.52    2.36
   1  11   0  317.92    3.14
 -11   0   1  316.42    4.04
   0  -1  11  306.07    2.73
   0   1 -11  311.21    2.22
  -1  11   0  308.16    3.06
   1 -11   0  316.64    3.23
 -11   0   2   59.54    1.86
 -11   0  -2   73.21    2.16
   0   2  11   63.24    0.96
   0  -2 -11   66.27    0.72
  -2  11   0   60.82    1.39
   2  11   0   65.64    1.50
   0  -2  11   67.82    1.41
   2 -11   0   73.18    1.71
 -11   0   2   66.70    1.88
  11   0   3  160.89    2.93
  -3  11   0  167.59    2.34
   0   3  11  169.11    1.13
   0   3 -11  161.44    1.88
  -3 -11   0  164.90    2.27
   0  -3 -11  159.75    0.81
 -11   0   3  159.01    2.72
   3 -11   0  172.00    2.63
   0  -3  11  166.45    2.23
 -11   0  -3  159.71    3.07
   3  11   0  166.58    2.34
   4  11   0   20.97    1.02
  -4  11   0   22.70    1.05
 -11   0   4   20.64    1.25
  -4 -11   0   23.40    0.94
 -11   0  -4   23.44    1.31
  11   0   4   21.62    1.23
 -11   0   4   24.24    1.19
   4 -11   0   20.40    1.05
   0  -4  11   22.34    0.98
 -11   0  -5  319.98    4.13
  11   0   5  316.21    4.06
 -11   0   5  334.55    3.98
 -11   0   5  327.83    3.62
   0   5 -11  327.15    2.91
  -5 -11   0  327.18    3.28
   5  11   0  328.13    3.32
   5 -11   0  326.19    3.86
  -5  11   0  318.06    3.30
 -11   0   6   12.21    0.93
  11   0   6   11.37    1.03
   6  11   0   10.53    0.77
   0   6 -11    9.33    0.74
   6 -11   0   11.37    1.08
  -6 -11   0    9.84    0.77
  -6  11   0   10.12    0.86
 -11   0   6   12.87    0.91
 -11   0   7   33.78    1.33
  11   0   7   36.76    1.61
   7 -11   0   36.37    1.55
   7  11   0   35.18    1.31
  -7 -11   0   35.81    1.28
 -11   0   7   33.38    1.18
  -7  11   0   36.06    1.28
   0  -7  11   34.45    1.24
   0   7 -11   33.70    1.10
 -11   0  -7   32.19    1.53
   0   8 -11   22.61    1.05
  11   0   8   21.79    1.30
   8 -11   0   20.25    1.28
 -11   0  -8   20.17    1.34
 -11   0   8   21.29    1.00
   8  11   0   18.90    1.07
  -8 -11   0   22.51    1.10
  -8  11   0   21.73    1.16
   0  -8  11   22.63    1.13
 -11   0   8   20.21    1.10
  11   0   9  191.51    3.17
 -11   0   9  198.91    2.45
   9 -11   0  184.38    3.18
 -11   0  -9  180.91    3.15
  -9  11   0  191.01    2.95
  -9 -11   0  189.64    2.65
   0  -9  11  199.69    2.94
   9  11   0  186.07    2.88
  10 -11   0   -0.48    0.77
  10  11   0    2.41    0.78
   0  10 -11    0.05    0.60
 -10  11   0    2.68    0.70
 -11   0  10    1.36    0.47
   0 -10  11    0.68    0.76
 -11   0  10   -0.03    0.56
 -10 -11   0    0.32    0.68
  -1 -10 -11   45.32    0.57
  11  -1  10   45.60    1.72
 -11   1  10   45.69    1.20
  10 -11   1   45.84    1.80
 -11  -1 -10   43.01    1.57
   1  10 -11   43.37    1.38
 -11   1  10   43.21    1.32
 -10  11   1   43.13    1.56
  -1 -10 -11   43.85    0.51
  11   1 -10   43.08    1.38
 -10 -11  -1   44.24    1.38
  11  -1   9    5.57    0.90
 -11  -1  -9    3.36    0.75
  11   1  -9    3.45    0.68
   9 -11   1    2.15    0.97
 -11   1   9    3.43    0.70
 -11   1   9    3.42    0.62
   9  11  -1    3.73    0.67
  -9  11   1    0.47    0.69
   1  -9  11    2.99    0.78
  -9 -11  -1    2.37    0.73
 -11  -1  -8   71.96    2.04
  11  -1   8   65.49    2.07
 -11   1   8   68.91    1.78
   8 -11   1   69.67    2.11
   1   8 -11   63.26    1.55
  11   1  -8   68.22    1.79
   8  11  -1   68.95    1.81
 -11   1   8   69.02    1.55
  -8 -11  -1   66.95    1.57
   1  -8  11   68.52    1.80
  -8  11   1   72.70    1.82
  11  -1   7  149.62    2.98
 -11  -1  -7  158.05    2.97
   7  11  -1  148.37    2.45
   1   7 -11  152.03    2.20
   7 -11   1  152.65    2.88
  -7 -11  -1  158.93    2.34
   1  -7  11  142.34    2.46
 -11   1   7  151.45    2.57
  -7  11   1  153.71    2.46
 -11   1   7  150.58    2.34
 -11   1   6  207.28    2.81
   6  11  -1  212.26    2.78
   1   6 -11  208.85    2.45
 -11  -1  -6  213.63    3.41
   6 -11   1  215.18    3.33
  -6 -11  -1  220.09    2.70
   1  -6  11  201.88    2.83
  -6  11   1  208.82    2.74
  11  -1   5   46.86    1.68
 -11   1   5   50.24    1.68
   1   5 -11   50.19    1.23
  -5 -11  -1   47.97    1.32
   5 -11   1   46.71    1.69
   5  11  -1   45.02    1.40
 -11  -1  -5   49.80    1.84
   1  -5  11   52.62    1.49
  -5  11   1   44.59    1.30
   4  11  -1   51.24    1.46
  -4  11   1   49.79    1.29
 -11   1   4   45.88    1.69
 -11  -1  -4   43.58    1.75
  -4 -11  -1   48.72    1.27
  11  -1   4   51.91    1.87
   4 -11   1   48.73    1.58
   1  -4  11   48.51    1.38
 -11   1   4   47.87    1.59
 -11  -1  -4   50.22    1.89
  -3  11   1  219.67    2.57
 -11   1   3  216.70    3.35
 -11  -1  -3  218.06    3.42
  -3 -11  -1  220.77    2.51
 -11   1   3  216.63    3.29
   1   3 -11  224.80    2.18
   1  -3  11  226.09    2.76
   3 -11   1  227.32    3.10
   3  11  -1  224.27    2.76
  11  -1   3  216.22    3.41
 -11   1   2  455.61    4.87
  11  -1   2  435.71    4.70
 -11   1   2  457.20    4.92
  -2  11   1  449.18    3.58
  -2 -11  -1  453.49    3.58
 -11  -1  -2  451.03    4.93
  -1   2  11  449.43    2.29
   1  -2  11  448.20    3.65
   2  11  -1  434.13    3.76
 -11  -1  -2  443.99    4.92
   2 -11   1  457.20    4.13
  -1 -11  -1  168.22    2.20
 -11  -1  -1  165.52    3.05
 -11   1   1  161.31    3.07
 -11   1   1  159.27    2.97
  -1  11   1  166.63    2.20
  -1  -1 -11  168.49    1.42
   1   1 -11  164.91    1.62
   1  11  -1  158.06    2.29
   1  -1  11  167.29    2.19
 -11  -1  -1  162.98    3.01
  -1   1  11  162.92    1.60
   1 -11   1  169.12    2.48
   0 -11   1   14.83    0.92
   0 -11  -1   16.82    0.86
 -11  -1   0   16.03    1.07
 -11  -1   0   13.50    1.04
  -1   0 -11   14.44    0.54
   0  11  -1   15.41    0.88
   0  11   1   13.87    0.76
   1   0  11   12.98    0.69
   1   0 -11   15.98    0.53
 -11   1   0   12.10    1.20
  -1   0  11   16.19    0.63
 -11   1  -1  161.62    3.07
  -1  11  -1  166.83    2.34
   1   1  11  170.60    1.90
   1  11   1  160.13    2.17
   1  -1 -11  163.35    1.27
  -1  -1  11  168.15    1.90
   1 -11  -1  163.64    2.29
 -11  -1   1  167.57    2.94
   1   2  11  417.00    2.55
  -2  11  -1  430.92    3.73
 -11  -1   2  458.82    4.81
 -11   1  -2  428.74    4.89
 -11  -1   2  449.95    4.61
   2  11   1  435.28    3.55
   2 -11  -1  435.08    3.76
  -1  -2  11  425.70    3.15
   1  -2 -11  444.21    1.72
 -11  -1   3  223.31    3.34
  -3  11  -1  220.53    2.70
  -3 -11   1  223.55    2.71
 -11   1  -3  230.05    3.65
 -11  -1   3  229.11    3.20
   1   3  11  223.97    1.56
   3 -11  -1  224.63    2.88
  -1  -3  11  219.27    2.38
   3  11   1  224.71    2.63
  -4  11  -1   47.35    1.40
 -11  -1   4   51.34    1.70
 -11  -1   4   52.53    1.61
  -4 -11   1   50.96    1.37
 -11   1  -4   50.07    1.86
   4 -11  -1   48.11    1.47
   4  11   1   51.00    1.39
  -1  -4  11   49.58    1.29
  -1   5 -11   49.00    1.19
 -11   1  -5   50.73    1.80
  -5 -11   1   50.47    1.37
   5 -11  -1   45.39    1.52
   5  11   1   50.94    1.41
 -11  -1   5   48.20    1.50
  -1  -5  11   46.77    1.31
  11   1   5   45.95    1.68
  -5  11  -1   50.50    1.41
  -6 -11   1  207.84    2.72
 -11  -1   6  207.40    3.05
 -11   1  -6  203.96    3.41
   6  11   1  202.53    2.69
   6 -11  -1  202.51    3.02
  -1   6 -11  202.36    2.43
 -11  -1   6  210.59    2.83
  -6  11  -1  196.62    2.75
  -1  -6  11  205.16    2.65
 -11   1  -7  152.21    2.95
   7 -11  -1  148.94    2.69
 -11  -1   7  151.42    2.35
   7  11   1  158.04    2.51
  -7 -11   1  147.45    2.32
  -1   7 -11  149.67    2.17
  11   1   7  147.87    2.75
  -7  11  -1  146.69    2.51
  -1  -7  11  150.88    2.34
  11   1   8   70.51    1.95
  -1   8 -11   66.83    1.53
   8 -11  -1   69.27    2.00
 -11   1  -8   62.54    1.97
  -8 -11   1   65.23    1.63
   8  11   1   68.36    1.81
  -8  11  -1   58.37    1.67
 -11  -1   8   73.19    1.65
  -1  -8  11   67.08    1.64
   9  11   1    2.79    0.62
  11   1   9    2.51    0.80
 -11  -1   9    3.60    0.60
   9 -11  -1    1.60    0.86
  -9 -11   1    4.44    0.72
  -9  11  -1    0.29    0.71
  -1  -9  11    4.11    0.74
 -11   1  -9    2.30    0.70
 -11  -1  10   44.74    1.21
  10  11   1   46.32    1.61
  -1  10 -11   42.38    1.33
  10 -11  -1   43.41    1.72
 -10  11  -1   41.49    1.57
  11   1  10   45.19    1.63
 -10 -11   1   43.11    1.35
  -1 -10  11   41.20    1.49
  -2 -10 -11   54.67    0.62
 -11   2  10   55.01    1.49
 -11  -2 -10   57.42    1.73
  10 -11   2   57.03    1.95
 -11   2  10   54.85    1.27
   2  10 -11   56.70    1.53
  11   2 -10   49.47    1.43
 -10  11   2   50.01    1.60
   2 -10  11   59.24    1.88
  11  -2  10   54.49    1.96
 -10 -11  -2   55.64    1.45
  -2  -9 -11    9.66    0.27
 -11  -2  -9    9.21    1.01
  11  -2   9    9.15    0.96
  -2  -9 -11   10.46    0.35
   9 -11   2    8.38    1.12
 -11   2   9    8.81    0.74
   9  11  -2   10.38    1.01
 -11   2   9   11.62    0.88
   2  -9  11    8.98    0.86
  11   2  -9   12.31    0.97
  -9  11   2   10.33    0.83
  -9 -11  -2   11.32    0.84
  11   2  -8  187.53    2.87
  -2  -8 -11  180.26    0.93
 -11  -2  -8  176.17    2.95
  -2  -8 -11  187.41    1.23
   8 -11   2  193.78    3.39
   8  11  -2  186.50    2.83
   2   8 -11  178.10    2.45
   2  -8  11  178.46    2.93
  -8 -11  -2  183.00    2.46
  -8  11   2  176.87    2.63
 -11   2   8  171.81    2.67
 -11   2   8  191.09    2.52
  11  -2   8  174.63    3.27
 -11   2   7   22.69    1.17
  11  -2   7   23.11    1.48
 -11   2   7   24.22    1.05
   7  11  -2   22.38    1.15
  11   2  -7   25.45    1.27
  -2  -7 -11   21.99    0.32
 -11  -2  -7   23.77    1.36
  -2  -7 -11   22.48    0.41
   7 -11   2   21.22    1.23
   2   7 -11   23.64    1.03
  -7 -11  -2   21.75    0.94
   2  -7  11   22.65    1.24
  -7  11   2   23.00    1.08
  11  -2   6   44.32    1.81
 -11   2   6   46.99    1.64
   6  11  -2   44.98    1.41
 -11  -2  -6   47.63    1.78
 -11  -2  -6   46.41    1.66
   6 -11   2   45.56    1.73
   2   6 -11   47.17    1.24
  -2  -6 -11   45.64    0.55
  -6 -11  -2   46.27    1.32
   2  -6  11   46.85    1.50
  -2  -6 -11   45.97    0.46
  -6  11   2   47.91    1.35
  11   2  -6   46.14    1.61
  -5  11   2    3.76    0.66
  11  -2   5    3.05    0.86
 -11  -2  -5    4.14    0.96
  11   2  -5    3.61    0.95
  -5 -11  -2    3.49    0.65
 -11   2   5    3.98    0.71
 -11   2   5    2.46    0.63
  -2  -5 -11    3.90    0.20
   2   5 -11    3.28    0.56
 -11  -2  -5    4.28    0.98
   2  -5  11    5.18    0.80
  -2  -5 -11    3.98    0.22
 -11  -2  -4  432.44    4.73
  -4  11   2  424.50    3.51
 -11   2   4  411.46    4.49
  -2  -4 -11  402.84    1.95
  11  -2   4  404.62    4.73
 -11  -2  -4  402.01    4.58
  -4 -11  -2  418.73    3.42
 -11   2   4  438.57    4.57
   2   4 -11  419.62    3.13
   2  -4  11  413.85    3.96
   4 -11   2  440.59    4.53
  -2  -4 -11  407.55    1.82
   4  11  -2  404.56    3.72
 -11  -2  -3   53.31    1.87
  -3  11   2   53.38    1.31
  -3 -11  -2   54.26    1.30
 -11   2   3   55.68    1.77
   2  -3  11   55.52    1.51
 -11  -2  -3   55.53    1.77
   2   3 -11   53.67    1.14
   3 -11   2   49.98    1.61
 -11   2   3   48.87    1.75
   3  11  -2   54.41    1.42
 -11   2   2   12.83    1.13
  -2  11   2   13.06    0.77
 -11  -2  -2   15.56    1.06
 -11   2   2   12.06    1.05
  -2 -11  -2   15.07    0.72
  11  -2   2   13.35    1.04
   2  -2  11   10.72    0.83
   2  11  -2   14.63    0.83
  -2   2  11   13.81    0.43
 -11  -2  -2   13.49    1.09
   2 -11   2   14.10    0.89
  -2  -2 -11   13.10    0.47
  11  -2   1   24.71    1.26
  -1 -11  -2   24.36    0.90
 -11   2   1   21.60    1.31
  -1  11   2   25.06    0.97
   2  -1  11   25.35    1.01
   1  11  -2   25.86    1.10
   2   1 -11   26.86    0.71
  -2   1  11   25.35    0.64
   1 -11   2   21.91    1.12
  -2  -1 -11   24.57    0.66
 -11  -2  -1   24.21    1.32
  -2   0 -11  538.01    2.97
   0 -11   2  525.36    4.26
   0 -11  -2  551.10    3.83
  11  -2   0  556.88    5.21
 -11  -2   0  535.85    5.23
 -11   2   0  523.95    5.39
   0  11  -2  523.13    4.16
   2   0  11  549.42    3.88
   0  11   2  552.37    3.83
 -11  -2   0  539.63    5.09
  -2   0  11  538.35    2.91
   2   0 -11  529.86    2.57
  -2   1 -11   24.33    0.76
  11  -2  -1   25.22    1.21
  -1  11  -2   23.29    0.98
   2   1  11   26.69    0.90
 -11  -2   1   24.23    1.33
 -11  -2   1   24.72    1.21
  -1 -11   2   23.19    1.04
   1  11   2   25.28    0.92
   1 -11  -2   27.45    1.00
  -2  -1  11   26.30    0.79
   2  -1 -11   25.52    0.55
  -2 -11   2   17.39    0.96
 -11  -2   2   10.45    0.98
  -2   2 -11   14.39    0.68
   2   2  11   13.84    0.64
   2  -2 -11   12.81    0.36
 -11  -2   2   13.14    0.94
  -2  11  -2   14.73    0.82
 -11   2  -2   14.56    1.23
   2 -11  -2   13.95    0.81
   2  11   2   15.16    0.78
  -2  -2  11   12.60    0.66
  -2  -3  11   51.70    1.20
   3  11   2   54.55    1.33
 -11  -2   3   53.29    1.68
  -2   3 -11   53.52    1.20
  -3  11  -2   60.76    1.49
  -3 -11   2   54.70    1.44
   2   3  11   54.34    0.93
   3 -11  -2   60.13    1.52
 -11  -2   3   53.67    1.63
  -2  -4  11  415.85    3.31
  -2   4 -11  409.61    3.22
   4  11   2  416.23    3.50
  -4 -11   2  416.40    3.77
   4 -11  -2  417.79    3.94
  -2  -5  11    3.31    0.52
  -5 -11   2    4.28    0.71
   5  11   2    4.08    0.60
 -11   2  -5    5.53    0.86
   5 -11  -2    3.68    0.77
 -11  -2   5    4.54    0.71
  -5  11  -2    3.62    0.72
  -2  -6  11   44.91    1.24
  -2   6 -11   53.08    1.35
 -11   2  -6   48.57    1.92
  -6 -11   2   44.14    1.39
   6 -11  -2   49.19    1.55
   6  11   2   47.01    1.41
 -11  -2   6   44.97    1.40
  -6  11  -2   43.21    1.47
  -2  -7  11   20.63    0.99
 -11  -2   7   21.43    1.06
 -11   2  -7   22.57    1.33
   7 -11  -2   23.29    1.19
  -7 -11   2   24.58    1.14
   7  11   2   22.38    1.05
  -7  11  -2   22.89    1.12
  -2  -8  11  188.84    2.67
  -2   8 -11  184.64    2.52
   8 -11  -2  178.81    2.90
 -11   2  -8  176.42    3.12
 -11  -2   8  191.44    2.54
  -8 -11   2  188.54    2.72
  -8  11  -2  177.81    2.86
   8  11   2  176.91    2.72
  -2  -9  11    9.16    0.74
  -2   9 -11   10.65    0.75
 -11  -2   9    9.55    0.78
   9 -11  -2   10.79    1.03
  -9 -11   2   10.04    0.87
   9  11   2   10.08    0.91
  -9  11  -2   10.13    0.87
  11   2   9    7.47    0.90
  -2 -10  11   50.79    1.57
  11   2  10   54.44    1.65
  -2  10 -11   55.70    1.51
  10 -11  -2   51.82    1.78
  10  11   2   52.56    1.69
 -11   2 -10   54.44    1.74
 -10  11  -2   52.37    1.76
  11   3 -10   25.18    1.16
 -11   3  10   27.94    1.13
 -11  -3 -10   28.33    1.26
  10 -11   3   29.27    1.50
  -3 -10 -11   27.81    0.65
  11  -3  10   25.75    1.40
 -11   3  10   25.50    0.94
   3  10 -11   26.16    1.12
   3 -10  11   28.35    1.47
  -3 -10 -11   28.40    0.52
 -10  11   3   25.59    1.15
 -11  -3 -10   29.10    1.25
 -10 -11  -3   28.53    1.08
  -9 -11  -3    0.89    0.53
 -11  -3  -9    0.19    0.68
 -11   3   9    1.27    0.58
   9 -11   3    1.76    0.91
  -3  -9 -11    0.00    0.19
 -11  -3  -9    1.40    0.79
 -11   3   9    0.71    0.52
  11   3  -9    0.16    0.48
   3  -9  11    0.34    0.78
   3   9 -11   -0.14    0.55
   9  11  -3   -0.41    0.55
  -9  11   3   -0.35    0.62
  11  -3   9    1.58    1.02
 -11  -3  -8   20.90    1.21
 -11   3   8   20.06    1.05
  11  -3   8   21.18    1.33
 -11  -3  -8   25.73    1.29
 -11   3   8   24.89    1.00
  -3  -8 -11   23.53    0.60
   8  11  -3   22.93    1.15
  -3  -8 -11   22.06    0.44
   3  -8  11   25.04    1.32
   3   8 -11   22.15    0.96
  11   3  -8   26.16    1.20
  -8  11   3   23.24    1.04
  -8 -11  -3   24.00    1.02
  11  -3   7  218.91    3.62
 -11   3   7  229.30    3.12
 -11  -3  -7  241.26    3.45
  11   3  -7  238.36    3.27
   7 -11   3  248.31    3.78
   3  -7  11  236.43    3.41
   3   7 -11  237.73    2.70
  -7 -11  -3  240.23    2.70
  -7  11   3  236.74    2.83
  -3  -7 -11  230.75    1.30
 -11   3   6   98.27    2.10
  11  -3   6   96.11    2.46
 -11   3   6   97.15    2.16
  -3  -6 -11   97.29    0.89
   6 -11   3   96.13    2.37
  -6 -11  -3  101.41    1.78
   3  -6  11  101.03    2.19
 -11  -3  -6  104.29    2.31
  11   3  -6   99.50    2.26
   3   6 -11   98.30    1.72
   6  11  -3   95.55    1.91
  -6  11   3  101.53    1.83
 -11  -3  -6  102.32    2.36
  -5  11   3   41.76    1.19
  -3  -5 -11   42.01    0.68
  11   3  -5   41.66    1.63
   5  11  -3   35.60    1.32
  11  -3   5   40.12    1.67
 -11   3   5   41.72    1.59
 -11  -3  -5   39.28    1.55
  -5 -11  -3   39.64    1.16
   3  -5  11   42.45    1.49
   5 -11   3   40.07    1.56
 -11   3   5   40.42    1.52
 -11  -3  -5   40.96    1.63
 -11   3   4   30.77    1.37
 -11  -3  -4   29.61    1.34
 -11  -3  -4   30.16    1.48
  11  -3   4   29.41    1.58
  -4 -11  -3   31.15    1.02
  11   3  -4   31.87    1.49
   3  -4  11   27.44    1.29
  -3  -4 -11   30.89    0.71
  -3  -4 -11   29.78    0.69
   4 -11   3   32.01    1.41
   3   4 -11   28.88    0.93
 -11   3   4   26.59    1.32
   4  11  -3   28.23    1.12
 -11  -3  -3  358.07    4.28
 -11   3   3  354.92    4.31
  11   3  -3  354.24    4.36
  -3 -11  -3  348.75    2.96
   3  -3  11  351.67    3.74
  -3  -3 -11  352.64    2.29
   3  11  -3  350.55    3.48
   3 -11   3  354.91    3.99
  -3   3  11  355.49    1.64
   3   3 -11  360.42    2.75
  -3   3  11  347.70    1.43
 -11  -3  -3  350.07    4.13
  -3   2  11  172.73    1.26
  11   3  -2  164.52    3.03
  11  -3   2  163.13    3.01
  -2  11   3  172.14    2.07
 -11   3   2  168.77    3.10
  -2 -11  -3  169.98    2.05
   3  -2  11  174.77    2.59
   2  11  -3  170.32    2.45
 -11  -3  -2  171.77    2.93
  -3  -2 -11  175.28    1.70
   2 -11   3  173.52    2.70
   3   2 -11  173.17    1.81
 -11  -3  -2  165.42    2.95
  -1 -11  -3  230.37    2.35
 -11  -3  -1  221.13    3.32
 -11   3   1  215.43    3.48
  -3   1  11  211.76    1.61
   3  -1  11  222.67    2.78
  -1  11   3  226.09    2.38
   1  11  -3  219.24    2.77
 -11  -3  -1  229.16    3.24
  -3  -1 -11  226.48    2.02
   1 -11   3  221.19    2.97
   0 -11   3   39.54    1.36
   0 -11  -3   39.40    1.05
   0  11  -3   43.85    1.35
 -11  -3   0   44.86    1.68
  11  -3   0   40.81    1.61
   3   0 -11   43.16    0.80
 -11   3   0   42.26    1.70
 -11  -3   0   42.48    1.47
   3   0  11   45.42    1.28
   0  11   3   41.34    1.10
  -3   0 -11   41.00    0.96
  11  -3  -1  210.13    3.21
 -11  -3   1  222.44    3.15
 -11  -3   1  211.32    3.22
   3   1  11  219.89    2.44
   3  -1 -11  215.97    1.58
   1  11   3  218.46    2.36
  -3  -1  11  222.79    2.00
  -1  11  -3  224.06    2.79
   1 -11  -3  213.47    2.33
  -3   1 -11  227.43    2.25
  -2 -11   3  166.94    2.46
   3   2  11  166.78    1.96
   3  -2 -11  164.08    1.24
 -11   3  -2  160.80    3.13
  -2  11  -3  166.67    2.44
  -3  -2  11  170.52    1.89
   2 -11  -3  169.62    2.21
   2  11   3  171.35    2.12
  -3   2 -11  177.73    2.07
 -11  -3   2  174.30    2.79
   3  11   3  369.53    3.16
   3   3  11  354.14    2.57
  -3  11  -3  334.63    3.39
  -3 -11   3  341.59    3.39
 -11   3  -3  356.74    4.57
   3 -11  -3  349.97    3.29
 -11  -3   3  356.33    3.87
  -3  -3  11  339.23    2.81
  -3   4 -11   29.28    1.00
  -3  -4  11   29.74    0.97
   4  11   3   27.78    0.98
 -11   3  -4   29.46    1.50
  -4 -11   3   28.00    1.15
 -11  -3   4   25.99    1.16
  -4  11  -3   28.38    1.19
  -5  11  -3   39.04    1.39
  -3  -5  11   40.75    1.19
  -5 -11   3   42.50    1.37
   5  11   3   41.14    1.20
 -11  -3   5   41.09    1.39
   5 -11  -3   43.20    1.39
  -6 -11   3  106.73    2.03
 -11  -3   6   96.00    1.94
 -11   3  -6   88.55    2.39
   6  11   3  103.01    1.94
  -6  11  -3   94.93    2.02
  -3   6 -11   98.35    1.78
  -7 -11   3  234.32    3.00
  -3  -7  11  239.72    2.85
  -3   7 -11  233.66    2.78
 -11  -3   7  235.06    2.90
   7 -11  -3  240.15    3.17
   7  11   3  237.52    3.02
  -3  -8  11   25.05    1.10
  -3   8 -11   20.99    1.04
 -11  -3   8   25.04    1.06
   8  11   3   24.51    1.18
   8 -11  -3   20.47    1.15
  -8 -11   3   24.22    1.06
  -8  11  -3   22.63    1.24
  -3  -9  11    0.01    0.43
  -3   9 -11   -0.71    0.51
 -11   3  -9    0.07    0.72
   9  11   3    0.08    0.57
  -9 -11   3    1.04    0.69
  -9  11  -3   -0.37    0.75
  10 -11  -3   22.79    1.25
 -11   3 -10   30.12    1.44
  10  11   3   24.01    1.17
  -3 -10  11   26.74    1.18
 -10 -11   3   30.22    1.18
 -11  -3  10   25.89    1.03
 -11   4  10    2.10    0.50
 -11   4  10    2.76    0.64
  11  -4  10    2.30    0.79
 -11  -4 -10    1.38    0.67
  -4 -10 -11    1.91    0.28
 -10 -11  -4    0.87    0.54
 -11  -4 -10    2.44    0.68
   4 -10  11    1.82    0.97
 -10  11   4    2.47    0.64
  -4  -9 -11  153.65    1.56
  11  -4   9  149.23    3.15
 -11   4   9  147.46    2.38
 -11  -4  -9  148.99    2.61
 -11  -4  -9  156.16    2.58
   9 -11   4  144.86    3.11
 -11   4   9  148.88    2.08
   4  -9  11  155.56    2.97
  -4  -9 -11  151.86    1.26
  -9  11   4  145.90    2.34
   4   9 -11  151.33    2.30
  -9 -11  -4  159.29    2.24
 -11  -4  -8   23.63    1.17
  -4  -8 -11   23.82    0.69
  11  -4   8   24.07    1.48
 -11   4   8   23.29    1.14
   8  11  -4   24.17    1.10
   4  -8  11   25.88    1.46
 -11  -4  -8   23.54    1.24
  11   4  -8   19.82    1.16
  -8  11   4   22.99    1.02
   4   8 -11   22.34    1.01
  -8 -11  -4   24.25    0.99
  -4  -8 -11   23.79    0.53
 -11   4   7   30.58    1.23
 -11  -4  -7   33.75    1.38
  11  -4   7   23.88    1.55
   7  11  -4   30.07    1.18
 -11   4   7   27.73    1.26
  -4  -7 -11   32.14    0.78
 -11  -4  -7   30.18    1.33
   7 -11   4   32.19    1.65
   4  -7  11   32.81    1.41
  -7 -11  -4   29.57    1.02
  -7  11   4   30.48    1.10
   4   7 -11   31.94    1.13
  -4  -7 -11   31.16    0.60
  11   4  -7   28.64    1.36
  11   4  -6    4.84    0.87
 -11  -4  -6    5.56    0.86
  11  -4   6    5.21    1.13
 -11   4   6    4.36    0.77
   6  11  -4    8.34    0.81
  -4  -6 -11    4.51    0.44
 -11   4   6    1.98    0.80
   6 -11   4    6.90    1.05
  -4  -6 -11    5.10    0.36
   4  -6  11    3.10    0.84
  -6 -11  -4    5.48    0.63
   4   6 -11    4.62    0.65
 -11  -4  -6    5.14    0.88
  -6  11   4    5.67    0.63
  -5  11   4  262.10    2.60
   5  11  -4  265.40    3.21
 -11   4   5  246.89    3.48
 -11  -4  -5  256.19    3.57
  11  -4   5  246.53    3.92
  -4  -5 -11  248.98    1.85
  -4  -5 -11  248.26    2.07
  -5 -11  -4  258.03    2.57
   4  -5  11  263.93    3.56
   5 -11   4  257.69    3.78
  11   4  -5  260.18    3.56
 -11  -4  -5  251.20    3.34
   4   4 -11   32.95    0.98
  -4  11   4   35.93    1.01
  11  -4   4   30.42    1.54
 -11  -4  -4   34.96    1.52
 -11   4   4   33.54    1.50
  -4   4  11   34.46    0.53
  -4 -11  -4   33.08    0.98
  -4  -4 -11   34.26    0.84
   4  -4  11   36.00    1.41
  11   4  -4   32.78    1.52
   4 -11   4   30.19    1.35
   4  11  -4   31.85    1.22
  -4  -4 -11   32.62    0.83
  -4   3  11  135.92    1.24
 -11  -4  -3  145.96    2.77
  -3  11   4  142.76    1.85
  11  -4   3  137.11    2.90
  -4   3  11  139.66    1.03
  -3 -11  -4  141.31    1.83
 -11   4   3  136.27    2.71
   4  -3  11  145.76    2.58
 -11  -4  -3  144.06    2.58
  -4  -3 -11  137.52    1.67
   3  11  -4  135.24    2.22
   3 -11   4  136.04    2.57
  11   4  -3  138.58    2.78
 -11  -4  -2   26.98    1.28
  11  -4   2   26.71    1.38
  -4   2  11   29.41    0.60
  -2 -11  -4   32.30    0.93
  -2  11   4   28.88    0.90
   4  -2  11   28.55    1.25
  11   4  -2   26.46    1.47
   2  11  -4   27.90    1.13
  -4  -2 -11   28.03    0.84
   2 -11   4   28.88    1.31
   4   2 -11   27.03    0.80
 -11  -4  -2   26.68    1.27
 -11  -4  -1  251.38    3.35
  11  -4   1  241.90    3.62
  -4   1  11  251.20    1.81
   4   1 -11  253.49    2.08
 -11   4   1  249.40    3.79
   4  -1  11  253.17    3.11
  -1  11   4  247.00    2.36
   1  11  -4  242.77    2.95
  -4  -1 -11  265.06    2.43
  11   4  -1  253.98    3.85
   1 -11   4  254.19    3.23
 -11  -4   0   26.46    1.29
   4   0  11   28.59    1.13
   0  11  -4   25.65    1.15
  -4   0  11   26.13    0.70
 -11   4   0   25.58    1.32
   4   0 -11   25.12    0.68
   0  11   4   24.67    0.86
  -4   0 -11   27.83    0.91
  11  -4   0   23.53    1.31
   0 -11   4   25.99    1.18
   0 -11  -4   28.25    0.88
   4  -1 -11  249.48    1.85
  -1 -11   4  251.43    3.07
   4   1  11  263.33    2.84
 -11   4  -1  243.87    3.76
  11  -4  -1  241.77    3.49
  -4   1 -11  264.39    2.58
   1  11   4  259.38    2.46
 -11  -4   1  252.47    3.31
   1 -11  -4  258.01    2.47
  -4  -1  11  256.10    2.18
   2  11   4   30.32    0.94
  -4  -2  11   30.08    0.86
 -11   4  -2   27.00    1.44
  -2  11  -4   27.84    1.14
   4   2  11   29.55    0.97
  -2 -11   4   28.22    1.16
 -11  -4   2   29.64    1.34
  11  -4  -2   31.83    1.45
   2 -11  -4   26.89    0.94
  -4   2 -11   30.80    1.01
   4  -2 -11   30.25    0.67
   4   3  11  148.92    1.83
  -3  11  -4  127.58    2.18
  -3 -11   4  144.05    2.33
  -4  -3  11  135.97    1.80
 -11   4  -3  130.98    2.83
 -11  -4   3  135.47    2.38
   3 -11  -4  137.40    2.00
   3  11   4  134.07    1.85
  11  -4  -3  130.83    2.47
  11  -4  -4   31.20    1.27
  -4  11  -4   29.92    1.15
  -4  -4  11   34.10    1.05
  -4 -11   4   32.67    1.17
   4  11   4   34.67    1.08
 -11  -4   4   29.08    1.24
 -11   4  -4   31.20    1.47
   4 -11  -4   31.61    1.11
  -5  11  -4  244.57    3.10
 -11  -4   5  262.25    3.21
  -5 -11   4  255.90    3.08
 -11   4  -5  244.98    3.74
   5 -11  -4  239.38    2.81
   5  11   4  254.17    2.79
  -4   5 -11  255.48    2.85
  -4   6 -11    4.95    0.75
 -11  -4   6    3.74    0.75
  -6 -11   4    6.78    0.82
   6 -11  -4    5.06    0.72
 -11   4  -6    3.46    0.95
   6  11   4    5.01    0.71
  -6  11  -4    4.51    0.86
  -4   7 -11   28.28    1.14
  -4  -7  11   31.86    1.12
   7  11   4   31.18    1.19
 -11  -4   7   33.96    1.27
   7 -11  -4   31.67    1.24
  -7 -11   4   29.36    1.26
  -7  11  -4   26.81    1.22
   8 -11  -4   23.29    1.16
   8  11   4   22.28    1.09
  -4  -8  11   25.70    1.05
 -11   4  -8   26.87    1.41
  -8 -11   4   24.42    1.20
  -4  -9  11  146.61    2.31
   9 -11  -4  147.52    2.46
 -11   4  -9  144.33    2.74
   9  11   4  146.55    2.57
  -9 -11   4  149.80    2.46
  10 -11  -4    1.11    0.74
  -4 -10  11    3.19    0.66
  10  11   4    3.14    0.80
 -11   4 -10    4.36    0.98
 -11  -4  10    4.23    0.70
 -10 -11  -5   44.57    1.22
 -11   5  10   41.99    1.10
  11  -5  10   38.00    1.69
 -11  -5 -10   38.26    1.37
 -11   5  10   35.76    1.19
  11   5 -10   41.12    1.31
   5 -10  11   39.88    1.76
  -5 -10 -11   44.65    0.79
 -10  11   5   41.84    1.32
 -11  -5 -10   43.73    1.34
 -11  -5  -9    3.87    0.76
 -11   5   9    4.28    0.68
  11  -5   9    3.39    1.08
  -5  -9 -11    4.65    0.47
   9 -11   5    3.32    0.87
  11   5  -9    3.66    0.75
 -11   5   9    3.47    0.56
   5  -9  11    3.01    1.03
 -11  -5  -9    3.49    0.68
  -9  11   5    3.55    0.62
  -5  -9 -11    4.27    0.35
   5   9 -11    5.22    0.75
  -9 -11  -5    5.04    0.61
  -5  -8 -11   64.29    0.92
  -5  -8 -11   70.10    1.20
  11  -5   8   67.64    2.22
 -11   5   8   67.46    1.70
   8  11  -5   74.97    1.81
   8 -11   5   70.64    2.18
   5  -8  11   66.15    2.06
 -11  -5  -8   66.64    1.77
 -11  -5  -8   72.14    1.74
  -8  11   5   69.09    1.53
  -8 -11  -5   68.81    1.45
 -11   5   8   69.92    1.63
   5   7 -11   33.42    1.18
  -5   7  11   33.65    0.36
  -5   7  11   34.36    0.36
 -11  -5  -7   35.44    1.44
  11  -5   7   35.31    1.75
 -11   5   7   39.12    1.43
  -5  -7 -11   34.56    0.73
   7  11  -5   32.85    1.21
   7 -11   5   31.13    1.50
   5  -7  11   40.82    1.67
 -11   5   7   35.91    1.33
  -7 -11  -5   34.11    1.01
  -7  11   5   35.15    1.08
   6  11  -5  205.16    2.83
 -11  -5  -6  207.24    2.91
 -11  -5  -6  208.16    3.14
  11  -5   6  204.48    3.69
  -5  -6 -11  206.34    2.08
   5  -6  11  209.07    3.37
   6 -11   5  201.72    3.41
  -6 -11  -5  205.14    2.29
  11   5  -6  198.63    3.07
  -5   6  11  197.39    1.06
  -5   6  11  204.17    0.94
  -5  -6 -11  206.42    1.78
  -6  11   5  199.90    2.28
  -5  11   5   28.29    0.91
   5   5 -11   31.44    1.03
  11  -5   5   26.89    1.54
 -11  -5  -5   25.46    1.15
  -5  -5 -11   27.69    0.85
   5  -5  11   28.44    1.41
  -5 -11  -5   30.05    0.94
  -5  -5 -11   30.52    0.80
 -11   5   5   31.71    1.41
   5 -11   5   26.82    1.50
  -5   5  11   28.59    0.43
  11   5  -5   25.60    1.25
   5  11  -5   30.05    1.25
  11   5  -4   44.37    1.66
  -5  -4 -11   40.27    0.99
  -5   4  11   45.05    0.78
   5   4 -11   42.21    1.07
 -11  -5  -4   45.69    1.51
  11  -5   4   41.40    1.86
 -11   5   4   44.18    1.61
  -4 -11  -5   45.09    1.09
  -5  -4 -11   44.15    1.06
   5  -4  11   45.21    1.64
 -11  -5  -4   44.64    1.56
  -5   4  11   44.16    0.60
   4 -11   5   45.47    1.63
   4  11  -5   42.15    1.33
  -4  11   5   46.36    1.07
  -5   3  11   42.36    0.85
 -11  -5  -3   43.09    1.43
  11  -5   3   39.58    1.69
  -3  11   5   43.01    1.01
   5   3 -11   41.80    1.03
  11   5  -3   41.55    1.57
  -3 -11  -5   42.34    1.01
 -11   5   3   44.04    1.63
 -11  -5  -3   37.92    1.42
   5  -3  11   41.24    1.55
  -5   3  11   41.16    0.67
  -5  -3 -11   41.86    1.06
   3  11  -5   39.56    1.36
   3 -11   5   40.33    1.58
 -11  -5  -2  426.92    4.47
  -2 -11  -5  437.22    2.94
  11  -5   2  424.92    4.92
   5   2 -11  452.51    3.04
  -2  11   5  467.60    3.07
 -11   5   2  441.88    4.87
   5  -2  11  411.69    4.26
  -5   2  11  438.54    2.30
   2  11  -5  439.31    3.97
  11   5  -2  415.27    4.67
   2 -11   5  440.94    4.44
 -11  -5  -2  443.77    4.34
   1  11  -5   49.45    1.42
  -5   1  11   48.83    0.88
  -1  11   5   48.97    1.05
  -5  -1 -11   49.37    1.20
  11   5  -1   46.35    1.69
 -11  -5  -1   49.71    1.55
  11  -5   1   49.39    1.85
   1 -11   5   46.08    1.48
   0 -11  -5    1.20    0.43
   0 -11   5   -0.54    0.53
  11  -5   0    0.53    0.90
 -11   5   0    1.31    0.88
  -5   0  11    1.03    0.36
  -5   0 -11    0.70    0.51
   0  11   5    0.43    0.41
  11   5   0    0.56    0.90
   5   0 -11    2.24    0.39
 -11  -5   0    0.37    0.55
  -1 -11   5   47.26    1.47
   5   1  11   45.89    1.33
  -1  11  -5   44.92    1.42
  -5  -1  11   48.37    1.03
  11   5   1   45.69    1.83
 -11   5  -1   46.30    1.89
  11  -5  -1   47.13    1.66
 -11  -5   1   46.36    1.48
  -5   1 -11   47.88    1.28
   1  11   5   51.89    1.12
   5  -2 -11  432.57    2.60
   2  11   5  443.43    3.12
  -2 -11   5  430.68    3.98
  -2  11  -5  419.10    3.88
  -5  -2  11  451.51    3.13
 -11   5  -2  430.41    4.97
 -11  -5   2  447.95    4.28
   5   2  11  456.84    3.65
   2 -11  -5  438.57    3.20
  -5   2 -11  461.10    3.72
  11  -5  -3   42.94    1.57
  -3  11  -5   42.28    1.41
   3  11   5   40.82    1.06
  -5  -3  11   42.17    1.11
   3 -11  -5   40.69    1.12
 -11   5  -3   42.69    1.67
   5   3  11   44.10    1.15
  11  -5  -4   46.07    1.51
  -4  11  -5   42.25    1.43
  -5  -4  11   45.54    1.16
  -4 -11   5   42.93    1.42
 -11   5  -4   42.60    1.67
   4  11   5   42.61    1.15
   4 -11  -5   44.20    1.20
  -5   4 -11   46.19    1.34
  -5  11  -5   24.14    1.16
  11  -5  -5   33.61    1.28
 -11  -5   5   28.86    1.16
  -5  -5  11   28.29    1.04
  -5 -11   5   28.64    1.21
   5  11   5   27.51    1.01
  -5   5 -11   30.35    1.15
 -11  -5   6  202.82    2.81
   6  11   5  199.98    2.55
  -5  -6  11  208.26    2.58
  -6 -11   5  200.56    2.82
   6 -11  -5  210.91    2.69
  -5   6 -11  194.92    2.65
  -6  11  -5  192.70    2.85
  -5  -7  11   34.96    1.14
   7  11   5   33.62    1.16
   7 -11  -5   35.38    1.18
  -7 -11   5   33.66    1.24
 -11   5  -7   35.04    1.51
  -7  11  -5   32.86    1.31
  -5   7 -11   33.60    1.28
 -11  -5   8   72.22    1.75
  -5   8 -11   67.75    1.68
  -5  -8  11   72.40    1.66
   8 -11  -5   56.64    1.52
  -8 -11   5   73.10    1.79
 -11   5  -8   61.95    1.91
   8  11   5   68.49    1.73
  -8  11  -5   68.52    1.84
   9 -11  -5    2.79    0.70
  -5   9 -11    3.06    0.75
  -9 -11   5    3.62    0.77
 -11   5  -9    1.30    0.87
 -11  -5   9    3.51    0.67
  -5 -10  11   44.25    1.41
  10 -11  -5   40.40    1.36
 -11  -5  10   43.52    1.33
  -6 -10 -11   33.74    0.89
 -11  -6 -10   34.36    1.23
 -11   6  10   31.96    1.13
 -11  -6 -10   32.36    1.09
 -11   6  10   36.65    1.04
 -10  11   6   31.67    1.14
  -6 -10 -11   38.55    0.78
  -6  -9 -11   19.93    0.76
 -11  -6  -9   19.92    1.04
  11   6  -9   20.28    1.03
  11  -6   9   17.96    1.42
 -11   6   9   17.89    0.96
   6  -9  11   24.27    1.46
 -11  -6  -9   21.37    0.95
  -9  11   6   20.69    0.95
 -11   6   9   20.73    0.93
  -9 -11  -6   22.16    0.92
 -11  -6  -8   99.00    2.15
  -6  -8 -11  104.51    1.55
 -11  -6  -8  106.05    1.95
  -6  -8 -11  107.67    1.28
  11  -6   8   97.74    2.61
  11   6  -8   99.32    2.07
 -11   6   8   96.42    1.95
   8 -11   6   95.77    2.59
   6  -8  11  105.79    2.60
 -11   6   8  106.30    1.99
   6   8 -11  103.81    1.89
  -8  11   6  102.78    1.74
  -8 -11  -6  103.80    1.66
 -11   6   7    7.10    0.89
 -11  -6  -7   11.20    0.93
   7  11  -6   12.27    0.84
   6   7 -11    9.43    0.70
 -11   6   7    9.51    0.89
  11   6  -7   12.73    1.01
  -6   7  11   10.00    0.33
   6  -7  11   11.33    1.18
  -6  -7 -11   10.32    0.63
   7 -11   6   11.59    1.13
  -6  -7 -11    9.40    0.51
  -6   7  11    9.29    0.36
  -7 -11  -6   10.68    0.69
 -11  -6  -7   10.17    0.77
  -7  11   6   10.31    0.65
  -6  -6 -11   33.26    0.83
 -11  -6  -6   40.88    1.36
  -6   6  11   38.43    0.58
 -11   6   6   35.42    1.43
  11   6  -6   36.43    1.42
  -6   6  11   36.23    0.69
   6 -11   6   35.00    1.65
  -6 -11  -6   36.58    1.00
  -6  11   6   39.16    1.03
 -11  -6  -5   28.25    1.24
  -5  11   6   26.08    0.81
 -11  -6  -5   27.06    1.32
   6   5 -11   26.66    0.97
  11  -6   5   28.28    1.63
  -6   5  11   26.76    0.68
 -11   6   5   23.00    1.26
   6  -5  11   28.03    1.42
  -5 -11  -6   26.39    0.86
   5 -11   6   27.34    1.53
  -6  -5 -11   25.00    0.82
   5  11  -6   26.44    1.16
 -11  -6  -4  246.06    3.37
  -6  -4 -11  232.59    2.40
  -6   4  11  242.29    2.02
  11  -6   4  241.01    3.93
 -11   6   4  236.38    3.39
   6  -4  11  238.57    3.59
  -4 -11  -6  258.90    2.30
  -6  -4 -11  248.02    2.57
   4 -11   6  244.87    3.61
  -6   4  11  243.09    1.57
 -11  -6  -4  238.15    3.10
 -11  -6  -3   28.62    1.33
  11  -6   3   22.64    1.44
  -3  11   6   24.98    0.76
  -3 -11  -6   27.39    0.80
   6  -3  11   24.40    1.33
 -11   6   3   26.69    1.43
   6   3 -11   25.84    0.92
   3  11  -6   24.49    1.08
   3 -11   6   23.37    1.34
  -6   3  11   25.42    0.60
 -11  -6  -3   21.78    1.19
  11   6  -3   25.97    1.28
  11   6  -2   29.51    1.39
  -2 -11  -6   28.67    0.79
  11  -6   2   25.70    1.49
   6  -2  11   28.31    1.30
 -11   6   2   32.14    1.53
  -2  11   6   29.09    0.80
  -6  -2 -11   28.60    1.01
   2  11  -6   29.35    1.22
   6   2 -11   27.97    0.89
  -6   2  11   28.80    0.71
 -11  -6  -2   28.77    1.30
   2 -11   6   26.74    1.25
  11   6  -1   30.98    1.44
  -1 -11  -6   30.19    0.79
  11  -6   1   34.06    1.50
   6  -1  11   27.14    1.27
 -11   6   1   27.23    1.34
   1  11  -6   28.16    1.20
  -6  -1 -11   28.23    1.05
  -6   1  11   29.29    0.77
 -11  -6  -1   31.03    1.27
  -1  11   6   28.23    0.79
   1 -11   6   23.93    1.26
   6   1 -11   31.73    0.91
  11  -6   0  296.65    3.98
   0  11  -6  302.89    3.32
 -11   6   0  311.46    4.19
 -11  -6   0  321.60    3.64
  -6   0  11  323.51    2.46
  -6   0 -11  327.83    3.23
   6   0  11  323.71    3.60
  11   6   0  309.26    4.08
   0  11   6  321.55    2.40
   0 -11  -6  307.05    2.32
   0 -11   6  309.69    3.54
  -1 -11   6   27.99    1.23
   6  -1 -11   29.89    0.85
  11  -6  -1   26.30    1.42
   6   1  11   32.33    1.24
  -1  11  -6   29.07    1.20
 -11  -6   1   28.74    1.25
  -6  -1  11   30.04    0.88
  11   6   1   25.48    1.48
  -6   1 -11   29.03    1.11
   1 -11  -6   27.54    0.79
  11  -6  -2   28.38    1.32
  11   6   2   25.88    1.38
  -2  11  -6   25.91    1.14
 -11  -6   2   26.68    1.24
  -6  -2  11   29.18    0.93
 -11   6  -2   29.07    1.59
   2 -11  -6   30.00    0.88
  -6   2 -11   29.75    1.12
   6   3  11   25.59    0.98
  11  -6  -3   25.48    1.28
  -3 -11   6   29.25    1.15
 -11  -6   3   27.27    1.20
  -3  11  -6   24.80    1.06
  -6  -3  11   28.82    0.97
   3  11   6   23.15    0.83
 -11   6  -3   25.72    1.40
   3 -11  -6   23.71    0.86
  11  -6  -4  241.95    3.21
  -4 -11   6  226.67    2.90
 -11  -6   4  242.39    3.07
  -4  11  -6  230.29    2.99
  -6  -4  11  250.92    2.66
   4 -11  -6  240.23    2.44
 -11   6  -4  224.88    3.57
   4  11   6  240.61    2.49
  -6   4 -11  234.89    2.92
  -5  11  -6   26.01    1.23
   5  11   6   26.77    0.96
  11  -6  -5   29.52    1.23
 -11  -6   5   30.14    1.27
  -5 -11   6   25.73    1.17
  -6  -5  11   28.73    1.02
   5 -11  -6   25.62    0.95
 -11   6  -5   24.17    1.43
  11  -6  -6   37.27    1.28
  -6  -6  11   33.27    1.19
  -6 -11   6   34.16    1.25
   6  11   6   35.46    1.13
   6 -11  -6   35.63    1.12
 -11   6  -6   32.06    1.65
  -6   6 -11   35.04    1.30
  -6  11  -6   36.67    1.32
  -6  -7  11   10.74    0.75
   7 -11  -6   10.24    0.78
  -7 -11   6    7.59    0.83
 -11   6  -7   10.81    1.18
   7  11   6    9.52    0.78
  -7  11  -6    7.67    0.79
 -11  -6   7   10.72    0.93
  -6  -8  11  103.38    1.98
  -8 -11   6  106.24    2.09
 -11  -6   8  104.91    2.03
  -6   8 -11   99.67    2.01
   9 -11  -6   23.28    1.01
   9  11   6   22.81    1.09
 -11  -6   9   20.54    1.00
  -6  -9  11   22.46    0.99
  -6 -10  11   36.04    1.28
  10 -11  -6   31.33    1.17
 -11  -6  10   33.58    1.25
  10  11   6   32.66    1.37
  -7 -10 -11    8.39    0.50
 -11  -7 -10    7.72    0.68
  -7 -10 -11    6.42    0.55
 -11  -7 -10    6.62    0.68
 -11   7  10    8.01    0.72
 -10  11   7    6.69    0.68
  -9 -11  -7    2.39    0.51
 -11   7   9    2.15    0.60
  -7  -9 -11    1.88    0.35
  -7  -9 -11    1.51    0.46
 -11   7   9    1.60    0.57
 -11  -7  -9    2.54    0.57
  -9  11   7    0.33    0.50
 -11  -7  -9    2.50    0.52
  -8 -11  -7    1.67    0.48
 -11  -7  -8    1.48    0.49
 -11  -7  -8    1.38    0.61
  -7  -8 -11    0.76    0.44
   7   8 -11    0.80    0.45
  11  -7   8   -0.90    0.95
 -11   7   8    1.46    0.62
  -7  -8 -11    0.95    0.37
 -11   7   8    0.84    0.63
  -8  11   7    1.29    0.49
  11   7  -7  165.39    2.73
  -7  -7 -11  164.56    2.08
  11  -7   7  162.54    3.36
 -11   7   7  158.96    2.53
   7  -7  11  151.96    3.11
   7 -11   7  154.76    3.17
  -7   7  11  171.07    1.59
  -7  -7 -11  159.96    1.75
  -7 -11  -7  161.13    1.93
 -11  -7  -7  160.58    2.39
  -7  11   7  160.34    1.92
  -6  11   7   16.33    0.70
  -7  -6 -11   18.17    0.70
  11   7  -6   19.90    1.18
  11  -7   6   18.28    1.29
   7   6 -11   17.72    0.93
   7  -6  11   15.20    1.25
 -11   7   6   16.36    1.00
  -7   6  11   16.87    0.50
  -7  -6 -11   16.00    0.77
   6 -11   7   14.26    1.26
  -6 -11  -7   16.41    0.71
 -11  -7  -6   14.19    0.86
 -11  -7  -6   15.48    1.07
  11  -7   5   30.53    1.69
  -7   5  11   35.96    0.89
  -7  -5 -11   36.42    1.10
  11   7  -5   33.92    1.45
   7  -5  11   37.45    1.67
   7   5 -11   37.02    1.16
 -11   7   5   34.33    1.40
  -5 -11  -7   34.90    0.90
   5 -11   7   32.89    1.63
 -11  -7  -5   33.38    1.34
  -5  11   7   35.90    0.86
 -11  -7  -5   35.28    1.28
  -7  -5 -11   33.20    0.98
   5  11  -7   33.72    1.24
 -11  -7  -4    6.12    0.90
  -7  -4 -11    4.68    0.58
  -7   4  11    6.29    0.40
  -4  11   7    6.25    0.46
  -7   4  11    5.37    0.51
   7  -4  11    7.33    1.02
  -7  -4 -11    5.91    0.62
  -4 -11  -7    6.31    0.49
 -11   7   4    4.51    0.89
  11   7  -4    6.02    0.76
   7   4 -11    6.21    0.66
 -11  -7  -4    3.97    0.77
   4 -11   7    6.46    1.10
   4  11  -7    6.16    0.68
  -7   3  11  249.35    1.94
  -7   3  11  234.77    2.26
  11  -7   3  225.06    3.75
  -3 -11  -7  237.26    1.99
   7  -3  11  236.67    3.57
  -7  -3 -11  227.66    2.65
 -11   7   3  230.88    3.43
  -3  11   7  236.61    1.93
 -11  -7  -3  236.53    3.03
   7   3 -11  228.90    2.46
   3 -11   7  229.56    3.44
   7  -2  11   13.76    1.06
  11  -7   2   15.36    1.30
  -7  -2 -11   14.94    0.86
 -11  -7  -2   15.43    1.03
  -2  11   7   12.84    0.55
  11   7  -2   14.87    1.11
   2 -11   7   14.57    1.08
  -7   2  11   14.88    0.57
   7   2 -11   14.26    0.74
  11   7  -1  152.79    2.86
  -1 -11  -7  145.86    1.49
  11  -7   1  154.32    3.02
   7  -1  11  154.01    2.72
   7   1 -11  144.75    1.85
 -11  -7  -1  156.31    2.55
 -11   7   1  153.22    2.95
  -7  -1 -11  153.34    2.30
  -1  11   7  150.03    1.51
  -7   1  11  148.18    1.65
   1 -11   7  150.21    2.65
   0  11   7   15.16    0.58
  11  -7   0   12.86    1.09
   7   0  11   15.20    1.03
  11   7   0   16.13    1.16
 -11  -7   0   15.02    0.98
   0  11  -7   13.47    0.92
 -11   7   0   12.34    1.07
  -7   0 -11   13.59    0.91
  -7   0  11   14.35    0.67
   7   0 -11   14.24    0.72
   0 -11  -7   13.83    0.57
   0 -11   7   13.50    0.92
  -1 -11   7  142.56    2.48
   7   1  11  153.06    2.48
  11  -7  -1  147.85    2.79
   1  11   7  154.33    1.62
 -11   7  -1  143.84    2.88
  -7  -1  11  156.16    1.90
  11   7   1  147.74    2.93
   1 -11  -7  150.48    1.60
   7   2  11   15.67    0.92
  -2 -11   7   12.51    1.00
  11  -7  -2   13.61    1.16
 -11  -7   2   14.17    0.95
  11   7   2   14.12    1.11
   2  11   7   15.38    0.65
 -11   7  -2   12.98    1.21
  -7  -2  11   17.08    0.79
   2 -11  -7   14.08    0.61
  -7   2 -11   13.34    0.94
 -11  -7   3  234.65    3.06
  -3 -11   7  233.35    3.04
  11  -7  -3  230.73    3.30
  -7  -3  11  242.55    2.55
   3 -11  -7  223.18    2.13
 -11   7  -3  218.24    3.52
   7   3  11  230.94    2.73
   3  11   7  225.73    2.21
  11   7   3  241.08    3.75
  11  -7  -4    5.75    0.83
   4 -11  -7    6.38    0.55
  -7  -4  11    4.69    0.57
 -11   7  -4    5.10    1.05
   4  11   7    6.02    0.56
  -7   4 -11    5.83    0.82
  -5  11  -7   31.36    1.26
 -11  -7   5   35.64    1.33
  -5 -11   7   33.98    1.23
   5 -11  -7   31.23    0.94
   5  11   7   34.89    1.04
  -7  -5  11   34.57    1.12
  11  -7  -5   35.17    1.33
 -11   7  -5   34.66    1.63
  -7   5 -11   38.75    1.41
  11  -7  -6   18.73    1.01
  -6 -11   7   17.01    1.08
  -7  -6  11   15.72    0.90
   6  11   7   15.54    0.85
 -11  -7   6   16.09    0.97
  -6  11  -7   14.86    0.93
  11  -7  -7  164.55    2.32
   7  11   7  154.30    2.30
  -7  -7  11  150.47    2.31
  -7 -11   7  156.84    2.58
  -7   7 -11  157.06    2.56
 -11  -7   7  162.49    2.58
   8 -11  -7    0.76    0.52
  -7  -8  11    1.27    0.60
   8  11   7   -0.10    0.59
 -11  -7   8    1.28    0.51
   9 -11  -7    0.42    0.50
  -7  -9  11    0.38    0.53
   9  11   7    1.42    0.68
 -11  -7   9    1.56    0.70
  10 -11  -7    7.34    0.74
  10  11   7    6.65    0.77
  -8 -10 -11    5.57    0.46
 -11  -8 -10    4.61    0.58
  -9 -11  -8   69.47    1.33
 -11  -8  -9   58.92    1.50
  -8  -9 -11   61.51    1.32
 -11   8   9   61.62    1.48
  -8  -9 -11   62.53    1.11
 -11   8   9   67.48    1.55
 -11  -8  -9   60.91    1.36
  -9  11   8   63.19    1.30
  -8  -8 -11   24.56    0.92
   8   8 -11   21.07    0.95
   8  -8  11   29.70    1.62
  -8  -8 -11   27.37    0.82
 -11   8   8   25.71    1.08
 -11  -8  -8   23.51    0.99
  -8  11   8   28.41    0.87
  -8 -11  -8   26.90    0.85
 -11  -8  -7   16.23    0.97
  -8  -7 -11   13.59    0.77
   8  -7  11   12.89    1.23
 -11   8   7   15.39    0.98
 -11  -8  -7   14.33    0.90
  -7 -11  -8   14.86    0.68
  -8  -7 -11   15.64    0.70
  -7  11   8   12.85    0.63
  -6  11   8    2.81    0.39
 -11  -8  -6    1.71    0.69
 -11   8   6    4.19    0.77
  -8  -6 -11    2.94    0.57
  11  -8   6    5.99    1.19
   8  -6  11    4.84    1.05
  -8   6  11    3.58    0.47
   8   6 -11    3.40    0.67
 -11  -8  -6    3.03    0.68
   6 -11   8    4.75    0.87
  -8   6  11    3.28    0.38
  -6 -11  -8    3.42    0.46
  -8  -6 -11    4.27    0.50
 -11  -8  -5  111.95    2.23
  -5  11   8  121.31    1.38
  11   8  -5  119.32    2.43
  11  -8   5  108.46    2.84
  -8   5  11  111.23    1.62
   8  -5  11  113.68    2.63
  -8   5  11  118.38    1.34
 -11  -8  -5  119.87    2.12
 -11   8   5  110.89    2.22
  -5 -11  -8  117.19    1.46
   8   5 -11  110.18    1.85
   5 -11   8  116.90    2.67
  -8  -5 -11  111.14    1.76
   5  11  -8  114.49    2.11
  -8   4  11   50.49    1.16
  -4  11   8   50.51    0.88
  11  -8   4   48.27    1.94
  11   8  -4   51.00    1.67
   8  -4  11   50.43    1.82
  -8  -4 -11   47.30    1.33
  -4 -11  -8   51.40    0.96
 -11  -8  -4   52.73    1.46
 -11   8   4   46.35    1.61
   4 -11   8   48.25    1.73
   8   4 -11   47.02    1.26
   4  11  -8   48.47    1.47
  -8  -4 -11   48.82    1.30
  -8   3  11   67.42    1.10
  -3 -11  -8   71.27    1.05
  11  -8   3   64.24    2.15
   8  -3  11   60.95    1.95
 -11  -8  -3   70.22    1.71
  -8  -3 -11   71.07    1.63
  11   8  -3   67.48    1.87
  -3  11   8   66.37    0.97
 -11   8   3   68.05    1.94
   3  11  -8   61.77    1.65
   3 -11   8   65.67    1.98
  -8   3  11   64.39    1.33
   8   3 -11   65.63    1.44
  -2 -11  -8    1.55    0.32
   8  -2  11    2.37    0.90
 -11  -8  -2    0.71    0.63
  -8  -2 -11    1.63    0.63
   8   2 -11    1.58    0.55
 -11   8   2    0.76    0.73
  -8   2  11    3.07    0.50
   2  11  -8    2.13    0.60
  -2  11   8    1.04    0.29
   2 -11   8    2.59    0.88
  -1 -11  -8  119.71    1.25
   8  -1  11  114.02    2.41
  11  -8   1  114.79    2.71
   1  11  -8  112.27    2.10
 -11   8   1  108.69    2.45
   8   1 -11  114.76    1.79
  11   8  -1  111.74    2.49
   1 -11   8  117.33    2.38
  -8   1  11  118.62    1.56
  -1  11   8  120.76    1.28
   0  11   8   56.48    0.90
   8   0  11   65.54    1.85
 -11  -8   0   59.99    1.57
  11  -8   0   61.28    1.96
   8   0 -11   61.27    1.35
   0  11  -8   60.08    1.63
  -8   0 -11   62.76    1.63
 -11   8   0   58.38    1.89
  -8   0  11   61.82    1.22
   0 -11  -8   59.37    0.94
   0 -11   8   55.26    1.62
  11   8   0   60.14    1.95
   8   1  11  119.77    2.26
 -11  -8   1  112.41    2.11
  11  -8  -1  115.67    2.54
  11   8   1  115.91    2.57
  -1  11  -8  115.64    2.13
   8  -1 -11  115.06    1.79
   1  11   8  114.67    1.34
 -11   8  -1  109.96    2.53
  -8   1 -11  117.13    2.20
   1 -11  -8  112.28    1.31
  -8  -1  11  118.59    1.71
  -1 -11   8  120.85    2.29
   2  11   8    0.92    0.36
  11   8   2    2.95    0.84
   8   2  11    1.83    0.68
  -2 -11   8    1.33    0.69
  11  -8  -2    1.80    0.86
 -11  -8   2    1.35    0.61
  -2  11  -8    3.03    0.67
   2 -11  -8   -0.02    0.32
  -8   2 -11    3.41    0.76
 -11   8  -2    0.39    0.92
  -8  -2  11    1.51    0.52
   8   3  11   64.84    1.59
  -3 -11   8   65.81    1.68
   3  11   8   62.25    1.14
  -3  11  -8   61.05    1.65
  11  -8  -3   67.61    1.83
  11   8   3   69.30    2.07
   3 -11  -8   63.79    1.09
 -11   8  -3   58.28    1.91
  -8  -3  11   65.87    1.41
  -8   3 -11   66.31    1.78
 -11  -8   4   52.07    1.58
  -4  11  -8   48.95    1.51
   4 -11  -8   48.71    1.01
   4  11   8   46.12    1.08
  -8  -4  11   54.05    1.35
 -11   8  -4   45.03    1.79
  -8   4 -11   51.29    1.61
  11   8   4   47.80    1.83
  11  -8  -4   49.95    1.53
  11  -8  -5  117.36    2.20
  -5  11  -8  112.34    2.17
  -8  -5  11  118.28    1.99
 -11   8  -5  111.30    2.58
   5  11   8  115.96    1.78
 -11  -8   5  111.10    2.14
  11  -8  -6    3.60    0.65
   6  11   8    3.38    0.60
  -6 -11   8    3.97    0.76
  -8  -6  11    4.20    0.67
  -8   6 -11    3.18    0.76
 -11  -8   6    2.50    0.57
   7 -11  -8   13.83    0.73
  -7 -11   8   16.27    1.03
  -8  -7  11   13.76    0.90
  11  -8  -7   15.41    0.84
 -11  -8   7   13.32    0.93
   7  11   8   14.86    0.86
  -8   7 -11   14.61    1.00
   8 -11  -8   26.70    0.91
  -8  -8  11   24.91    1.08
   9 -11  -8   67.83    1.40
   9  11   8   55.89    1.58
  10 -11  -8    7.24    0.64
  -9 -10 -11   27.67    0.80
 -11  -9 -10   29.11    0.95
  -9 -11  -9    0.17    0.36
  -9  -9 -11    0.41    0.45
  -9  -9 -11   -0.11    0.35
 -11  -9  -9    0.59    0.47
  -9  -8 -11   29.30    1.02
 -11  -9  -8   30.78    1.06
  -9  -8 -11   30.95    0.89
  -8 -11  -9   32.50    0.98
  -8 -11  -9   30.80    0.86
  -9  -7 -11    0.88    0.55
   9  -7  11    0.36    0.87
 -11  -9  -7    1.03    0.46
 -11   9   7    1.42    0.58
   9   7 -11    1.95    0.61
  -7 -11  -9    2.29    0.41
  -9  -7 -11    2.69    0.47
 -11  -9  -6  109.70    1.88
  -9  -6 -11  101.84    1.63
   9  -6  11   95.94    2.46
  -9   6  11  102.35    1.58
 -11   9   6  101.76    2.01
  -6 -11  -9  106.28    1.39
   9   6 -11  103.11    1.91
  -5  11   9    4.17    0.35
 -11  -9  -5    4.42    0.58
  11  -9   5    1.77    1.00
  -9   5  11    3.72    0.44
 -11   9   5    3.20    0.67
  -5 -11  -9    3.83    0.39
   5 -11   9    5.31    1.08
  -9   5  11    3.53    0.57
  -9  -5 -11    4.47    0.58
   9   5 -11    2.18    0.62
  -9   4  11   22.37    0.89
   9  -4  11   22.76    1.43
  -9  -4 -11   21.00    0.97
  -9   4  11   23.50    0.74
  -4  11   9   23.27    0.57
  -4 -11  -9   23.19    0.65
 -11   9   4   21.85    1.23
   4 -11   9   20.55    1.41
   9   4 -11   21.30    0.93
   4  11  -9   19.19    1.09
  -9  -4 -11   20.42    0.96
  -9   3  11    0.07    0.47
   9  -3  11    0.40    0.74
  11  -9   3    1.45    0.84
  -9   3  11   -0.28    0.39
 -11  -9  -3    0.40    0.65
  -9  -3 -11    0.35    0.53
   9   3 -11   -0.37    0.52
 -11   9   3   -0.43    0.62
  -3  11   9   -0.08    0.25
   3 -11   9    0.91    0.87
   3  11  -9   -0.54    0.71
  -9   2  11  212.54    2.09
   9  -2  11  206.82    3.36
  -2 -11  -9  201.33    1.51
  11   9  -2  220.35    3.31
  -9  -2 -11  210.66    2.84
   2  11  -9  199.59    2.77
 -11  -9  -2  206.48    2.77
 -11   9   2  194.49    3.15
  11  -9   2  208.14    3.64
  -9   2  11  205.45    2.44
   2 -11   9  207.18    3.24
  -2  11   9  202.13    1.42
  -1  11   9    3.50    0.29
 -11  -9  -1    3.84    0.71
   9  -1  11    4.74    0.89
  11  -9   1    2.71    0.83
   1  11  -9    3.07    0.59
  -9   1  11    2.36    0.55
  11   9  -1    3.68    0.91
  -1 -11  -9    3.39    0.32
   9   0 -11    9.57    0.73
   9   0  11   13.85    1.05
 -11  -9   0   11.01    0.84
  11  -9   0    9.50    1.15
   0  11  -9   10.05    0.79
   0  11   9    8.80    0.41
  -9   0 -11    9.97    0.82
 -11   9   0    7.43    1.01
  11   9   0    6.55    1.03
   0 -11  -9    9.48    0.41
   0 -11   9    9.88    0.90
  -9   0  11    9.19    0.65
  -1  11  -9    3.55    0.65
  11  -9  -1    2.12    0.89
  11   9   1    3.26    0.92
  -9   1 -11    4.52    0.81
   1 -11  -9    2.65    0.32
 -11   9  -1    3.76    0.94
   1  11   9    3.85    0.36
  -1 -11   9    4.25    0.69
  -9  -1  11    1.93    0.51
  -2 -11   9  198.52    2.82
 -11  -9   2  207.81    2.89
  -2  11  -9  192.40    2.70
  11   9   2  207.58    3.34
  11  -9  -2  201.69    3.24
   2  11   9  191.38    1.73
   9   2  11  221.10    2.99
   2 -11  -9  196.10    1.61
  -9   2 -11  202.10    2.99
 -11   9  -2  196.02    3.32
  -9  -2  11  207.16    2.36
   3  11   9    0.30    0.36
 -11  -9   3    0.50    0.50
  11  -9  -3    1.24    0.72
  11   9   3   -0.11    0.75
  -9   3 -11   -0.62    0.64
 -11   9  -3   -0.72    0.88
  -9  -3  11    0.38    0.53
   4  11   9   17.00    0.72
  -4 -11   9   21.14    1.09
  11  -9  -4   22.59    1.13
   4 -11  -9   23.97    0.71
  11   9   4   21.54    1.23
  -9  -4  11   25.34    0.98
 -11  -9   4   19.54    1.00
  -5 -11   9    2.67    0.75
  11   9   5    2.35    0.88
   5 -11  -9    2.75    0.41
  11  -9  -5    3.02    0.65
   5  11   9    3.93    0.56
  -9  -5  11    2.35    0.62
  -9   5 -11    1.37    0.68
 -11  -9   5    3.58    0.67
  11  -9  -6  105.41    1.98
  -6 -11   9  102.79    2.07
   6 -11  -9  107.69    1.45
   6  11   9  101.75    1.75
  -9   6 -11  105.09    2.25
  11  -9  -7    2.67    0.63
   7 -11  -9    1.48    0.44
  -9  -7  11    1.31    0.67
   8 -11  -9   31.20    0.90
  11  -9  -8   30.18    1.03
  -9  -8  11   32.71    1.25
 -10 -11 -10   11.23    0.71
 -11 -10 -10   11.42    0.73
 -10 -10 -11   11.69    0.73
 -10 -10 -11   12.54    0.63
  -9 -11 -10   20.71    0.74
  -9 -11 -10   18.90    0.81
 -11 -10  -9   20.31    0.94
 -10  -9 -11   23.36    0.91
 -10  -9 -11   23.22    0.81
  -8 -11 -10   29.38    0.91
 -10  -8 -11   27.85    1.04
 -11 -10  -8   29.96    1.00
 -10  -8 -11   28.49    0.90
 -11 -10  -8   26.67    1.02
  -8 -11 -10   29.30    0.81
  -7 -11 -10    4.88    0.49
 -11 -10  -7    4.33    0.64
 -10  -7 -11    3.94    0.63
 -11  10   7    5.81    0.71
  -7 -11 -10    3.10    0.41
 -10  -7 -11    4.42    0.53
  -6 -11 -10   14.47    0.64
 -11 -10  -6   15.87    0.85
 -10  -6 -11   17.12    0.80
 -11  10   6   16.51    0.96
  -6 -11 -10   16.19    0.59
  10   6 -11   15.48    0.95
  10   5 -11   32.70    1.13
 -11 -10  -5   34.10    1.14
 -10   5  11   33.27    1.05
  10  -5  11   29.71    1.51
 -10  -5 -11   32.15    1.21
  -5 -11 -10   37.14    0.78
 -11  10   5   34.56    1.31
 -10   5  11   31.26    0.86
 -10  -5 -11   32.09    1.09
 -11 -10  -4   76.73    1.66
 -10   4  11   73.77    1.54
  10  -4  11   72.21    2.23
  10   4 -11   73.72    1.59
 -10  -4 -11   72.00    1.69
  -4 -11 -10   74.74    0.99
 -11  10   4   67.74    1.78
 -10   4  11   75.73    1.28
   4 -11  10   74.16    2.09
 -10  -4 -11   74.20    1.68
 -10  -3 -11   18.24    0.98
 -11 -10  -3   19.91    1.01
 -10   3  11   16.61    0.87
  -3 -11 -10   18.43    0.50
  10  -3  11   16.44    1.16
 -10   3  11   17.84    0.72
  11 -10   3   20.27    1.38
 -10  -3 -11   18.60    1.03
 -11  10   3   18.10    1.19
   3 -11  10   16.67    1.18
  -2 -11 -10   13.49    0.42
 -10   2  11   13.75    0.83
  10  -2  11   13.05    1.23
 -10  -2 -11   14.12    0.96
 -11  10   2   13.69    1.03
 -10   2  11   13.48    0.66
   2 -11  10   12.97    1.11
  10   2 -11   13.43    0.82
 -10   1  11   32.34    1.09
 -10   1  11   33.32    0.97
  11 -10   1   30.41    1.58
 -10  -1 -11   29.85    1.27
   1  11 -10   32.99    1.28
 -11  10   1   29.73    1.43
  10   1 -11   33.45    1.18
   1 -11  10   32.18    1.44
  -1 -11 -10   30.55    0.56
  10  -1  11   32.87    1.53
 -11 -10   0  101.95    2.07
  10   0  11   95.75    2.24
  11 -10   0   97.21    2.40
   0  11 -10  104.58    2.06
 -10   0 -11   96.64    2.09
 -11  10   0   88.15    2.21
   0 -11 -10   97.47    0.98
   0 -11  10   96.79    2.14
  10   1  11   31.36    1.35
   1 -11 -10   30.92    0.58
 -10   1 -11   32.14    1.37
  11  10   1   30.11    1.48
 -11  10  -1   33.02    1.41
  -1 -11  10   31.15    1.36
 -10  -1  11   33.73    1.05
 -11 -10   1   31.87    1.25
  -2 -11  10   12.06    1.00
  10   2  11   13.07    0.91
  11 -10  -2   11.06    1.04
   2 -11 -10   12.57    0.42
 -10  -2  11   13.70    0.76
 -11 -10   2   12.55    0.98
  11  10   2   11.62    1.12
  -3 -11  10   19.68    1.01
  11 -10  -3   14.98    1.16
  11  10   3   18.95    1.13
   3 -11 -10   17.34    0.49
 -10   3 -11   16.15    1.14
   3  11  10   18.25    0.68
 -10  -3  11   16.52    0.86
  -4 -11  10   71.00    1.75
  11 -10  -4   76.34    1.89
   4 -11 -10   81.99    1.02
 -10   4 -11   78.17    2.00
 -10  -4  11   73.98    1.58
  11  10   4   73.34    2.05
   4  11  10   75.89    1.33
   5 -11 -10   37.56    0.77
  11 -10  -5   34.51    1.29
 -10  -5  11   35.03    1.21
  11 -10  -6   14.40    0.91
 -10  -6  11   16.31    0.92
  11 -10  -7    4.25    0.64
 -10  -7  11    4.53    0.67
  11 -10  -8   31.19    1.07
 -10 -11 -11    0.50    0.47
 -11 -11 -10    0.62    0.40
  -9 -11 -11    2.14    0.41
 -11 -11  -9    2.92    0.48
 -11 -11  -9    2.00    0.47
  -9 -11 -11    2.93    0.50
 -11  -9 -11    2.03    0.46
 -11 -11  -8    1.33    0.52
 -11 -11  -8    1.42    0.41
 -11  -8 -11    2.75    0.55
 -11  -8 -11    1.53    0.45
 -11  -7 -11   55.70    1.27
 -11 -11  -7   55.40    1.32
 -11  -7 -11   55.30    1.44
  -7 -11 -11   58.25    1.00
 -11 -11  -6    0.09    0.54
 -11  -6 -11    1.39    0.45
 -11  11   6   -0.80    0.61
  -6 -11 -11    0.54    0.33
 -11  -5 -11   18.12    0.97
  11   5 -11   16.80    0.96
  -5 -11 -11   20.09    0.58
 -11   5  11   17.04    0.87
 -11  11   5   16.84    1.00
 -11  -5 -11   16.55    0.85
 -11   4  11    1.39    0.57
  11  -4  11   -0.13    0.85
 -11  -4 -11    1.68    0.66
  -4 -11 -11    1.04    0.27
 -11  -4 -11    0.14    0.51
 -11  11   4    1.59    0.71
 -11   4  11    0.05    0.43
 -11 -11  -3   75.97    1.67
  -3 -11 -11   75.38    1.00
 -11   3  11   73.78    1.64
  11  -3  11   70.59    2.15
 -11  -3 -11   75.27    1.82
 -11  -3 -11   75.76    1.82
 -11   3  11   73.29    1.35
  -3 -11 -11   77.20    0.86
 -11  11   3   71.03    1.85
  11   3 -11   72.23    1.67
  -2 -11 -11    1.29    0.21
  -2 -11 -11    2.33    0.29
 -11 -11  -2    2.67    0.62
 -11   2  11    1.75    0.56
  11  -2  11    1.54    0.83
  11 -11   2    1.77    1.04
 -11  -2 -11    2.88    0.63
  11   2 -11    0.60    0.63
 -11  11   2    1.13    0.62
  11  -1  11   51.47    1.77
 -11   1  11   53.75    1.21
 -11  -1 -11   52.11    1.62
  11   1 -11   50.22    1.45
 -11  11   1   50.68    1.70
  -1 -11 -11   57.98    0.66
   1 -11  11   52.51    1.73
 -11   1  11   51.57    1.38
 -11 -11  -1   57.69    1.58
 -11   0  11   -0.09    0.51
  11 -11   0    1.24    0.85
 -11   0  11    0.88    0.43
 -11  11   0   -0.63    0.59
   0 -11  11    0.75    0.73
 -11  -1  11   57.22    1.32
  11   1  11   56.11    1.70
  11 -11  -1   51.15    1.68
 -11   1 -11   54.84    1.70
  -1 -11  11   52.65    1.61
  -2 -11  11    2.68    0.71
  11   2  11    1.17    0.73
 -11  -2  11    1.69    0.56
 -11   2 -11    0.70    0.66
  11 -11  -3   77.86    1.98
 -11   3 -11   76.24    2.00
 -11  -3  11   77.57    1.61
  11  11   4    2.65    0.90
  11 -11  -4    2.12    0.67
 -11  -4  11    0.53    0.54
  11 -11  -5   16.96    1.01
 -11  -5  11   18.19    0.91
  11  11   5   18.45    1.14
  11 -11  -6    0.90    0.59
 -11  -6  11    0.66    0.62
  11  11   6   -0.99    0.68
  11 -11  -7   51.86    1.39
 -12   0   0   95.27    2.48
 -12   0   0   96.57    2.45
   0   0 -12   99.88    1.17
   0  12   0   97.45    1.84
   0   0  12   96.62    1.51
   0 -12   0   97.64    1.86
 -12   0   1   68.93    2.13
  -1 -12   0   74.21    1.61
 -12   0  -1   66.15    2.01
  -1  12   0   67.24    1.55
   0   1 -12   67.74    1.08
   0  -1 -12   69.88    0.89
 -12   0   1   66.55    2.00
   0   1  12   68.18    1.16
   1  12   0   68.52    1.54
   0  -1  12   70.90    1.38
 -12   0  -1   66.84    2.09
   1 -12   0   68.04    1.58
  -2 -12   0    0.05    0.45
 -12   0   2    0.11    0.86
 -12   0  -2   -0.13    0.86
  -2  12   0    0.67    0.53
   0   2  12    0.24    0.29
 -12   0  -2    0.92    0.73
   0   2 -12   -0.01    0.39
 -12   0   2    1.36    0.86
   0  -2  12    1.26    0.52
   2  12   0    1.15    0.46
   2 -12   0    0.99    0.65
 -12   0   3   80.50    2.15
   0   3  12   79.65    0.82
  -3 -12   0   83.36    1.70
 -12   0  -3   86.06    2.42
   0   3 -12   79.86    1.34
 -12   0   3   77.03    2.05
   3 -12   0   78.34    1.81
   0  -3  12   78.24    1.59
   0  -3 -12   76.45    0.59
   3  12   0   81.69    1.68
   4  12   0   80.05    1.69
  -4  12   0   78.79    1.71
  -4 -12   0   85.82    1.74
  12   0   4   74.42    2.15
   0   4 -12   82.79    1.44
 -12   0   4   87.25    2.05
 -12   0  -4   76.18    2.21
   4 -12   0   86.85    2.01
   0  -4  12   80.38    1.66
  -5  12   0   40.88    1.27
  12   0   5   42.08    1.59
 -12   0   5   39.72    1.58
   5  12   0   42.11    1.34
 -12   0  -5   41.48    1.71
  -5 -12   0   44.99    1.35
   5 -12   0   42.34    1.58
   0  -5  12   41.76    1.32
 -12   0   5   46.11    1.53
 -12   0   6    6.08    0.78
  12   0   6    6.86    1.00
 -12   0   6    4.17    0.80
   0   6 -12    5.14    0.65
 -12   0  -6    4.02    1.04
  -6 -12   0    4.68    0.59
   6 -12   0    5.19    0.94
   0  -6  12    5.65    0.78
  -6  12   0    3.99    0.66
  12   0   7   72.38    2.12
 -12   0   7   69.73    1.82
   0   7 -12   78.28    1.59
   7  12   0   75.77    1.76
   7 -12   0   76.94    2.05
  -7 -12   0   73.17    1.70
 -12   0   7   78.55    1.81
   0  -7  12   77.87    1.83
  -7  12   0   74.55    1.83
 -12   0   8   40.07    1.42
  12   0   8   40.31    1.65
   0   8 -12   41.12    1.28
   8 -12   0   48.08    1.74
 -12   0   8   44.89    1.36
   8  12   0   43.80    1.40
  -8 -12   0   48.42    1.44
  -8  12   0   42.41    1.43
 -12   0   9   10.53    0.82
  12   0   9   11.36    1.01
   0   9 -12   12.29    0.87
 -12   0   9   12.75    0.85
 -12   0  -9   14.24    1.21
   9 -12   0   12.88    1.16
  -9 -12   0   12.26    0.83
   9  12   0    9.58    1.01
  -9  12   0   12.63    0.99
  12   0  10    5.83    0.98
  10 -12   0    8.81    0.96
 -12   0  10    7.52    0.78
 -12   0 -10    6.21    0.94
 -10 -12   0    6.26    0.74
 -10  12   0    7.46    0.89
  12   0  11   47.43    1.68
 -12   0  11   48.69    1.21
 -12   0 -11   47.08    1.63
 -12   1  11   26.55    1.11
 -12   1  11   27.17    0.95
  12   1 -11   26.27    1.16
 -12  -1 -11   27.29    1.28
  12  -1  10   47.91    1.81
 -12   1  10   42.66    1.36
  12   1 -10   43.73    1.42
 -12   1  10   50.66    1.27
  10 -12   1   44.89    1.79
 -12  -1 -10   46.40    1.62
 -10  12   1   46.09    1.55
 -10 -12  -1   51.21    1.47
   1 -10  12   45.12    1.58
 -12   1   9   49.89    1.53
 -12  -1  -9   46.72    1.69
   9 -12   1   50.59    1.80
   1   9 -12   48.73    1.40
 -12   1   9   51.30    1.35
  -9 -12  -1   49.55    1.39
   1  -9  12   49.48    1.57
  -9  12   1   50.22    1.49
   8 -12   1   63.56    1.93
   1   8 -12   68.93    1.57
   8  12  -1   72.24    1.79
  -8 -12  -1   68.77    1.65
 -12   1   8   66.40    1.60
   1  -8  12   64.21    1.80
  -8  12   1   66.73    1.66
 -12   1   7   78.13    1.80
  12  -1   7   79.67    2.26
 -12   1   7   83.76    2.05
 -12  -1  -7   81.83    2.26
   7  12  -1   79.43    1.83
   1   7 -12   83.82    1.62
   7 -12   1   83.46    2.20
  -7 -12  -1   76.49    1.71
   1  -7  12   83.16    1.96
  -7  12   1   84.49    1.87
  12  -1   6  107.71    2.58
 -12   1   6   97.32    2.22
   6  12  -1   96.92    1.92
 -12   1   6  107.16    2.11
 -12  -1  -6  107.73    2.56
   1   6 -12  104.51    1.72
  -6 -12  -1  100.31    1.86
   6 -12   1  100.00    2.32
   1  -6  12  104.22    2.11
  -6  12   1  103.74    1.96
  -5  12   1  128.00    2.08
   5  12  -1  128.06    2.19
 -12   1   5  120.18    2.51
 -12  -1  -5  130.61    2.76
 -12  -1  -5  141.41    2.93
  12  -1   5  126.36    2.72
  -5 -12  -1  134.93    2.12
   5 -12   1  117.95    2.50
   1  -5  12  130.47    2.27
  12  -1   4  202.21    3.41
  -4  12   1  206.53    2.55
 -12   1   4  205.00    3.30
  -1  -4 -12  201.93    0.83
 -12  -1  -4  200.29    3.41
  -4 -12  -1  205.36    2.50
   1   4 -12  207.71    2.23
  -1  -4 -12  197.31    0.95
 -12  -1  -4  201.63    3.49
   4 -12   1  206.84    3.11
   1  -4  12  200.06    2.71
 -12   1   4  211.32    3.21
   4  12  -1  210.12    2.75
  12  -1   3  162.18    2.98
 -12   1   3  164.63    3.08
 -12  -1  -3  160.10    3.10
  -3 -12  -1  167.61    2.28
 -12   1   3  169.88    3.00
  -1  -3 -12  166.36    1.03
   1   3 -12  165.95    1.88
   1  -3  12  163.54    2.35
 -12  -1  -3  166.25    3.19
   3 -12   1  167.48    2.71
  -2  12   1  125.34    1.98
 -12  -1  -2  131.16    2.82
  -2 -12  -1  125.82    1.99
  -1  -2 -12  124.30    1.05
 -12   1   2  122.76    2.65
 -12  -1  -2  123.25    2.68
  -1   2  12  125.03    1.25
   1   2 -12  126.86    1.54
   1  -2  12  130.93    2.06
   2  12  -1  129.63    2.17
 -12   1   2  129.67    2.74
   2 -12   1  129.57    2.31
  12  -1   1  192.05    3.17
  -1 -12  -1  193.48    2.40
 -12  -1  -1  195.18    3.38
 -12   1   1  182.83    3.20
  -1  12   1  193.48    2.46
  -1  -1 -12  182.01    1.46
 -12   1   1  188.57    3.33
 -12  -1  -1  204.44    3.42
   1  12  -1  192.64    2.59
   1   1 -12  194.80    1.75
   1  -1  12  187.04    2.31
  -1   1  12  189.24    1.75
   1 -12   1  193.97    2.67
 -12   1   0  327.13    4.46
 -12  -1   0  310.36    4.08
  -1   0 -12  307.56    2.09
 -12   1   0  301.41    4.15
   0  12  -1  310.22    3.23
   0  12   1  304.82    3.03
   1   0  12  302.50    2.72
   1   0 -12  303.53    1.97
  -1   0  12  298.58    2.39
   0 -12   1  293.05    3.19
   0 -12  -1  312.83    3.09
 -12  -1   1  183.69    3.23
 -12   1  -1  195.18    3.43
  -1  12  -1  188.76    2.53
   1   1  12  197.18    2.08
   1  12   1  197.49    2.49
   1  -1 -12  185.02    1.35
  -1  -1  12  195.17    2.07
 -12  -1   1  196.16    3.18
   1 -12  -1  205.25    2.60
  -1 -12   1  195.41    2.59
   1  -2 -12  125.32    0.94
  -2 -12   1  124.49    2.08
  -1   2 -12  127.26    1.57
  -2  12  -1  123.55    2.10
 -12   1  -2  119.48    2.78
 -12  -1   2  122.23    2.64
   1   2  12  124.81    1.44
   2  12   1  127.62    2.01
   2 -12  -1  129.07    2.14
  -1  -2  12  133.03    1.83
 -12  -1   3  144.78    2.83
   1   3  12  170.65    1.39
  -3 -12   1  153.40    2.24
 -12   1  -3  161.85    3.17
  -1   3 -12  160.76    1.86
 -12  -1   3  162.93    2.79
   3 -12  -1  170.38    2.55
  -1  -3  12  164.04    2.12
   3  12   1  158.29    2.23
 -12  -1   4  209.47    3.04
  -1   4 -12  209.38    2.26
  -4 -12   1  197.64    2.60
 -12   1  -4  200.25    3.45
   4 -12  -1  204.94    2.89
 -12  -1   4  200.04    3.19
  -1  -4  12  198.22    2.42
  -5  12  -1  121.86    2.10
 -12  -1   5  126.24    2.52
   5  12   1  128.61    2.11
 -12   1  -5  130.67    2.90
  -5 -12   1  133.32    2.21
   5 -12  -1  128.85    2.44
  -1  -5  12  117.35    1.94
 -12  -1   5  130.07    2.40
  12   1   6  104.76    2.39
 -12  -1   6  104.19    2.25
   6  12   1   98.99    1.89
  -6 -12   1  103.12    1.97
   6 -12  -1  105.43    2.26
 -12  -1   6  108.72    2.19
  -1  -6  12  104.74    1.96
  -6  12  -1   98.86    2.00
  12   1   7   84.85    2.21
  -1   7 -12   85.38    1.68
   7 -12  -1   77.83    2.03
  -7 -12   1   86.26    1.83
   7  12   1   80.55    1.81
 -12  -1   7   81.11    1.82
  -1  -7  12   78.69    1.74
  -7  12  -1   84.67    1.94
  -1   8 -12   62.42    1.50
 -12   1  -8   69.18    2.15
 -12  -1   8   69.42    1.62
   8 -12  -1   56.79    1.80
  -8 -12   1   68.03    1.62
   8  12   1   66.25    1.69
  -8  12  -1   65.89    1.78
 -12  -1   8   62.72    1.74
  -1  -8  12   64.15    1.66
  -1   9 -12   46.24    1.34
  12   1   9   46.30    1.63
   9 -12  -1   48.64    1.69
 -12   1  -9   41.86    1.57
  -9  12  -1   46.82    1.59
  -1  -9  12   46.69    1.48
   9  12   1   46.29    1.57
  12   1  10   42.82    1.62
  10 -12  -1   43.31    1.67
  -1 -10  12   46.14    1.47
  12   1  11   24.79    1.28
  11 -12  -1   25.38    1.37
 -12   1 -11   27.40    1.36
 -12   2  11    2.12    0.66
  12  -2  11    2.53    0.91
 -12  -2 -11    3.21    0.69
 -12   2  11    1.74    0.47
 -11  12   2    3.90    0.78
 -12   2  10   45.54    1.40
  12  -2  10   44.22    1.70
 -12  -2 -10   47.74    1.58
  10 -12   2   45.49    1.89
 -12   2  10   45.11    1.21
   2 -10  12   44.16    1.62
 -10  12   2   46.26    1.46
 -10 -12  -2   49.74    1.46
 -12  -2  -9   33.22    1.41
 -12   2   9   34.29    1.31
  12  -2   9   30.63    1.57
   9 -12   2   36.28    1.64
   2   9 -12   36.43    1.17
  12   2  -9   36.47    1.43
   2  -9  12   34.16    1.43
 -12   2   9   38.19    1.21
  -9 -12  -2   36.21    1.21
  -9  12   2   34.81    1.28
 -12   2   8    8.13    0.78
  12  -2   8    8.93    1.08
 -12   2   8    7.57    0.91
 -12  -2  -8    9.40    0.93
   8  12  -2    9.92    0.96
   2   8 -12   11.61    0.75
  -8 -12  -2   10.24    0.85
   2  -8  12    8.14    0.82
  -8  12   2   10.39    0.77
  12  -2   7   12.97    1.08
 -12   2   7   12.30    1.06
 -12   2   7   12.36    0.89
   7  12  -2   10.59    0.92
 -12  -2  -7    9.72    0.94
   7 -12   2   10.15    1.06
  -7 -12  -2   10.68    0.83
   2  -7  12   14.25    0.95
  12   2  -7   11.64    1.14
  -7  12   2   10.61    0.89
   6  12  -2  106.23    2.06
  12  -2   6  103.81    2.50
  12   2  -6  104.60    2.39
 -12  -2  -6  106.38    2.46
 -12   2   6  107.01    2.39
  -6 -12  -2  102.78    1.81
   6 -12   2  101.82    2.44
   2   6 -12  106.19    1.77
   2  -6  12  101.69    2.18
 -12  -2  -6  112.02    2.54
  -6  12   2   99.51    1.88
  -5  12   2   56.86    1.38
  12  -2   5   54.44    1.93
 -12   2   5   53.20    1.70
 -12  -2  -5   50.51    1.89
 -12  -2  -5   52.13    1.79
  -5 -12  -2   55.38    1.36
  -2  -5 -12   52.68    0.53
   5 -12   2   54.87    1.82
   2  -5  12   53.32    1.57
  -2  -5 -12   53.43    0.53
 -12   2   5   52.14    1.70
   4  12  -2    2.48    0.65
  -4  12   2    2.92    0.59
 -12   2   4    0.95    0.77
 -12  -2  -4    2.86    0.93
 -12   2   4    4.44    0.98
 -12  -2  -4    2.00    0.69
  -4 -12  -2    2.73    0.58
  -2  -4 -12    2.56    0.25
  12  -2   4    2.17    0.99
   2  -4  12    0.10    0.64
   4 -12   2    3.58    0.70
   2   4 -12    1.77    0.47
  -2  -4 -12    2.34    0.21
  12  -2   3   29.89    1.49
 -12   2   3   34.64    1.54
  -3  12   2   31.94    1.04
 -12  -2  -3   33.78    1.62
 -12   2   3   30.01    1.41
  -3 -12  -2   33.13    1.04
 -12  -2  -3   27.87    1.47
   2  -3  12   31.91    1.24
   2   3 -12   31.66    0.91
   3 -12   2   31.91    1.32
   3  12  -2   28.89    1.12
  -2  -3 -12   30.53    0.56
  -2  -2 -12  140.15    1.26
  12  -2   2  131.32    2.71
 -12  -2  -2  132.09    2.75
 -12  -2  -2  137.72    2.77
 -12   2   2  138.61    2.86
 -12   2   2  141.98    2.97
  -2  12   2  138.73    2.01
   2  -2  12  134.42    2.17
   2  12  -2  134.96    2.24
  -2   2  12  136.04    1.23
   2   2 -12  142.25    1.62
   2 -12   2  142.45    2.45
  -2  -1 -12   51.49    0.86
  12  -2   1   52.11    1.73
  -1 -12  -2   52.92    1.26
 -12  -2  -1   47.58    1.78
 -12   2   1   50.88    1.93
  -1  12   2   49.63    1.24
   2  -1  12   51.41    1.35
   1  12  -2   49.37    1.44
  -2   1  12   49.64    0.88
   2   1 -12   49.67    0.92
 -12  -2  -1   50.16    1.78
   1 -12   2   51.73    1.48
   0 -12   2    1.10    0.52
   0 -12  -2    0.90    0.51
   2   0 -12    1.29    0.31
  -2   0 -12    0.98    0.36
 -12  -2   0    0.41    0.89
 -12  -2   0    0.74    0.67
 -12   2   0   -1.25    1.01
   2   0  12   -0.04    0.50
   0  12  -2    1.09    0.68
   0  12   2   -0.50    0.50
  -2   0  12   -0.44    0.36
  -1 -12   2   50.84    1.42
   2  -1 -12   49.73    0.74
 -12  -2   1   46.87    1.77
 -12   2  -1   47.70    1.92
  -1  12  -2   50.77    1.43
   2   1  12   51.17    1.18
 -12  -2   1   49.96    1.67
   1  12   2   50.12    1.31
   1 -12  -2   44.49    1.21
  -2  -1  12   48.84    1.04
 -12  -2   2  134.15    2.69
  -2 -12   2  144.08    2.29
  -2  12  -2  133.13    2.17
   2   2  12  143.72    1.70
 -12  -2   2  132.60    2.54
 -12   2  -2  138.84    2.97
   2  -2 -12  131.96    1.01
   2 -12  -2  133.00    2.08
   2  12   2  138.92    2.03
  -2  -2  12  137.42    1.77
   3  12   2   35.91    1.16
 -12  -2   3   35.23    1.42
  -2   3 -12   32.68    0.95
  -3  12  -2   30.98    1.22
  -3 -12   2   32.06    1.13
   3 -12  -2   30.33    1.12
 -12  -2   3   34.27    1.51
  -2  -3  12   33.30    1.00
  -2   4 -12    2.83    0.48
   4  12   2    1.86    0.60
  -4 -12   2    0.42    0.60
 -12   2  -4    2.40    0.82
   4 -12  -2    1.31    0.67
 -12  -2   4    3.47    0.72
  -2  -4  12    2.52    0.51
  -5  12  -2   50.93    1.44
  -2   5 -12   55.56    1.31
  -5 -12   2   47.45    1.38
 -12   2  -5   57.77    2.05
   5 -12  -2   54.25    1.58
 -12  -2   5   54.51    1.57
 -12  -2   5   55.23    1.72
  -2  -5  12   52.82    1.36
  -6 -12   2  108.81    2.07
   6  12   2  105.10    1.99
   6 -12  -2  103.17    2.15
 -12  -2   6  109.56    2.12
  -2  -6  12  104.16    1.89
  -2   7 -12   10.79    0.81
 -12  -2   7   11.08    0.86
 -12   2  -7   10.70    1.17
   7 -12  -2    9.28    0.90
  -7 -12   2    9.58    0.80
   7  12   2    9.56    0.87
  -7  12  -2   10.47    0.84
  -2  -7  12   10.90    0.85
 -12  -2   8    9.90    0.85
   8 -12  -2   11.48    1.04
 -12   2  -8   10.61    1.12
  -8 -12   2    9.45    0.84
   8  12   2    9.82    0.87
  -8  12  -2   10.62    0.81
  -2  -8  12    7.23    0.84
   9  12   2   33.48    1.33
 -12  -2   9   36.66    1.22
  -2   9 -12   33.79    1.16
   9 -12  -2   37.87    1.50
  -9 -12   2   34.74    1.32
  -9  12  -2   37.59    1.46
  -2  -9  12   36.82    1.30
 -12  -2  10   49.78    1.33
 -12   2 -10   45.75    1.65
 -12  -2  11    2.92    0.63
  11 -12  -2    2.50    0.68
 -12   3  11   14.89    0.87
 -12  -3 -11   13.40    0.96
  12   3 -11   15.04    0.91
 -12   3  11   15.85    0.76
 -12  -3 -11   14.24    1.00
 -11  12   3   12.36    0.97
 -12   3  10   19.51    1.03
  12  -3  10   24.93    1.46
 -12  -3 -10   26.38    1.22
  12   3 -10   24.09    1.19
 -12  -3 -10   22.80    1.15
   3 -10  12   22.15    1.33
 -12   3  10   21.60    0.91
 -10  12   3   22.74    1.06
 -10 -12  -3   24.34    1.07
 -12  -3  -9   71.79    1.93
  12  -3   9   76.93    2.26
 -12   3   9   76.27    1.80
  -3  -9 -12   81.17    0.72
   9 -12   3   78.36    2.26
   3  -9  12   77.91    2.12
   3   9 -12   78.06    1.68
  -9 -12  -3   79.15    1.65
  -9  12   3   76.40    1.75
 -12   3   9   84.40    1.67
 -12  -3  -8   54.73    1.78
 -12   3   8   55.69    1.63
  12  -3   8   55.10    2.03
 -12   3   8   57.65    1.47
   8 -12   3   53.12    1.84
  -3  -8 -12   54.81    0.59
   3  -8  12   57.87    1.82
  -8 -12  -3   54.07    1.41
  -8  12   3   54.99    1.48
  12   3  -7   25.95    1.26
  12  -3   7   30.79    1.69
 -12   3   7   27.63    1.31
 -12  -3  -7   29.70    1.47
   7  12  -3   25.43    1.19
  -3  -7 -12   30.24    0.57
   7 -12   3   27.54    1.37
  -7 -12  -3   27.71    1.07
   3  -7  12   29.82    1.40
 -12  -3  -7   31.36    1.44
  -3  -7 -12   29.05    0.44
  -7  12   3   25.92    1.06
  12  -3   6   85.13    2.42
 -12  -3  -6   88.57    2.29
 -12   3   6   95.99    2.22
  -3  -6 -12   96.32    0.83
  12   3  -6   89.52    2.19
 -12  -3  -6   96.29    2.32
  -6 -12  -3   98.38    1.74
   6 -12   3   91.30    2.35
   3  -6  12   93.56    2.17
   3   6 -12   97.85    1.69
 -12   3   6   99.30    2.13
  -6  12   3   98.54    1.77
   6  12  -3   89.89    1.94
   5  12  -3  204.54    2.78
  -5  12   3  217.41    2.52
  -3  -5 -12  213.27    1.40
  12  -3   5  205.81    3.57
  12   3  -5  219.21    3.45
 -12  -3  -5  212.12    3.40
 -12   3   5  204.67    3.22
 -12  -3  -5  210.05    3.28
  -5 -12  -3  213.84    2.48
 -12   3   5  219.65    3.27
   3  -5  12  215.76    3.14
   5 -12   3  215.51    3.38
 -12  -3  -4   89.22    2.26
  12  -3   4   82.22    2.25
 -12  -3  -4   91.08    2.35
  12   3  -4   85.35    2.24
 -12   3   4   89.14    2.30
 -12   3   4   92.64    2.30
  -4 -12  -3   83.35    1.55
  -4  12   3   88.59    1.62
   3  -4  12   83.97    1.96
   4 -12   3   83.17    2.13
  -3  -4 -12   84.64    1.02
   3   4 -12   89.38    1.48
  -3  -4 -12   85.05    1.09
   4  12  -3   84.70    1.84
 -12   3   3  107.18    2.56
  12  -3   3   93.56    2.46
 -12  -3  -3  101.02    2.38
  -3  12   3  102.79    1.68
  -3 -12  -3  103.56    1.69
 -12   3   3   96.64    2.36
   3  -3  12  104.47    2.08
  -3   3  12   99.79    0.82
   3  12  -3   96.60    1.90
   3 -12   3  102.37    2.21
  -3  -3 -12  105.19    1.20
 -12  -3  -3  100.17    2.31
   3   3 -12   96.68    1.45
  -2  12   3  193.33    2.25
   3  -2  12  191.82    2.70
   2  12  -3  191.11    2.67
 -12  -3  -2  199.78    3.17
   2 -12   3  192.74    2.91
  -3   2  12  187.83    1.35
   3   2 -12  196.82    1.90
  -1 -12  -3  231.85    2.43
 -12  -3  -1  221.26    3.44
  12  -3   1  223.77    3.53
 -12   3   1  230.08    3.67
   3  -1  12  234.95    2.84
  -1  12   3  228.81    2.47
   1  12  -3  228.94    2.89
 -12  -3  -1  236.78    3.35
  -3  -1 -12  229.17    1.94
   1 -12   3  235.62    3.12
  -3   1  12  223.76    1.69
  -3   0  12   93.63    1.23
 -12  -3   0   93.64    2.31
  12  -3   0   97.42    2.37
 -12   3   0   94.36    2.42
   3   0  12   91.94    1.74
   0  12  -3   90.79    1.84
   0  12   3   90.78    1.58
 -12  -3   0   92.17    2.08
   0 -12  -3   90.81    1.58
  -3  -1  12  216.64    1.96
  -1 -12   3  228.83    2.91
  12  -3  -1  230.06    3.41
 -12  -3   1  226.68    3.25
   3   1  12  231.10    2.49
  -1  12  -3  221.16    2.84
   3  -1 -12  225.47    1.59
   1  12   3  230.06    2.48
   1 -12  -3  234.82    2.54
  -3   1 -12  236.62    2.22
  -3   2 -12  203.00    2.17
 -12  -3   2  195.44    3.02
  -3  -2  12  188.95    1.99
  12  -3  -2  205.77    3.19
  -2 -12   3  189.32    2.62
   3   2  12  194.15    2.08
  -2  12  -3  197.44    2.70
 -12   3  -2  192.11    3.42
   2 -12  -3  191.73    2.38
   2  12   3  197.57    2.34
  -3   3 -12   99.34    1.60
  -3  -3  12  102.29    1.59
   3   3  12  101.73    1.39
  -3  12  -3   99.51    2.00
 -12   3  -3   95.21    2.44
   3 -12  -3  104.95    1.90
 -12  -3   3  105.04    2.26
  -4 -12   3   89.26    1.85
 -12   3  -4   81.09    2.27
   4  12   3   86.18    1.61
   4 -12  -3   88.13    1.82
 -12  -3   4   84.13    1.91
  -3  -4  12   85.80    1.54
  -5  12  -3  196.39    2.75
  -3   5 -12  211.47    2.47
  -3  -5  12  207.24    2.44
  -5 -12   3  208.72    2.78
 -12  -3   5  200.14    2.89
   5 -12  -3  201.86    2.73
  -3  -6  12  100.14    1.82
  -6 -12   3   94.34    1.98
 -12  -3   6   92.10    1.98
 -12   3  -6   92.18    2.46
   6 -12  -3   94.92    2.00
   6  12   3   91.80    1.80
  -3   6 -12   97.35    1.78
  -6  12  -3   89.82    1.98
  -3   7 -12   27.22    1.06
  -7 -12   3   25.37    1.20
 -12   3  -7   24.51    1.40
   7  12   3   26.09    1.09
  -7  12  -3   25.77    1.27
  -3  -7  12   28.35    1.08
   8  12   3   56.52    1.59
  -3  -8  12   56.55    1.51
 -12  -3   8   59.96    1.56
   8 -12  -3   56.14    1.66
 -12   3  -8   51.53    1.81
  -8 -12   3   56.03    1.59
  -8  12  -3   56.27    1.68
  -3  -9  12   77.46    1.72
 -12  -3   9   78.79    1.71
   9  12   3   73.77    1.81
   9 -12  -3   77.89    1.93
 -12   3  -9   72.08    2.13
 -12  -3  10   27.61    1.03
  10 -12  -3   25.35    1.25
  10  12   3   26.35    1.24
 -12  -3  11   12.28    0.81
 -12   4  11   37.16    1.23
 -12  -4 -11   37.79    1.33
 -12  -4 -11   34.34    1.24
 -12   4  11   37.87    1.04
 -11  12   4   34.52    1.30
  12   4 -11   33.76    1.26
 -12   4  10   13.88    0.89
 -12  -4 -10   14.45    1.00
 -12  -4 -10   10.68    0.89
 -10  12   4   11.28    0.83
 -12   4  10   12.15    0.74
 -10 -12  -4   13.96    0.86
 -12   4   9    8.48    0.72
  12  -4   9    6.32    0.98
 -12  -4  -9    6.68    0.68
 -12   4   9    6.60    0.83
  -4  -9 -12    8.42    0.33
   4  -9  12    8.22    1.04
  -9 -12  -4    8.28    0.67
  -9  12   4    8.00    0.71
   4   9 -12    7.40    0.78
 -12  -4  -8   33.40    1.33
  12   4  -8   36.99    1.46
  12  -4   8   30.12    1.65
 -12   4   8   33.23    1.35
  -4  -8 -12   33.65    0.74
   8 -12   4   31.99    1.66
   4  -8  12   28.18    1.49
  -8 -12  -4   35.70    1.15
  -8  12   4   29.32    1.12
  -4  -8 -12   33.19    0.56
 -12  -4  -7   71.44    1.88
  -4  -7 -12   66.54    0.79
  12  -4   7   61.75    2.14
 -12  -4  -7   71.20    1.96
   7  12  -4   70.80    1.73
 -12   4   7   64.45    1.79
  12   4  -7   71.23    1.99
  -4  -7 -12   74.33    1.08
   7 -12   4   67.89    2.14
   4  -7  12   63.31    1.92
  -7 -12  -4   68.50    1.47
   4   7 -12   67.65    1.47
  -7  12   4   70.67    1.54
 -12   4   7   72.57    1.78
  -6  12   4    8.79    0.69
   6  12  -4   10.08    0.82
  12  -4   6    6.83    1.06
 -12  -4  -6   11.58    1.02
 -12   4   6    6.95    0.87
 -12   4   6    9.97    0.99
  -6 -12  -4   11.05    0.75
   4  -6  12    7.46    0.99
   6 -12   4    8.63    1.09
  -4  -6 -12    9.40    0.39
 -12  -4  -6    8.58    0.84
   4   6 -12    8.31    0.62
   5  12  -4   34.50    1.25
 -12  -4  -5   31.51    1.42
  12  -4   5   32.23    1.68
  -4  -5 -12   35.13    0.72
  -5 -12  -4   33.38    1.05
 -12   4   5   28.77    1.38
  -4  -5 -12   33.91    0.77
   4  -5  12   35.05    1.41
   5 -12   4   28.94    1.37
 -12  -4  -5   32.80    1.45
  -5  12   4   35.13    1.06
   4   5 -12   31.97    1.01
   4   4 -12   68.43    1.35
  -4  -4 -12   67.24    1.11
 -12  -4  -4   66.26    1.92
  -4  12   4   69.00    1.38
  12  -4   4   66.42    2.22
  12   4  -4   69.81    2.10
 -12   4   4   67.83    2.02
  -4 -12  -4   67.61    1.35
   4  -4  12   62.56    1.79
  -4  -4 -12   68.87    1.10
   4 -12   4   64.22    1.96
 -12   4   4   64.72    2.03
   4  12  -4   61.61    1.64
  -4   3  12   76.10    0.75
  -4   3  12   79.43    0.92
 -12  -4  -3   72.52    2.06
  12  -4   3   74.61    2.17
  -3  12   4   77.83    1.42
  -3 -12  -4   70.47    1.36
 -12   4   3   75.92    2.16
 -12  -4  -3   77.46    2.01
  -4  -3 -12   80.23    1.22
   3  12  -4   71.96    1.71
   3 -12   4   77.10    1.98
  12   4  -3   75.64    2.18
  -4   2  12    2.85    0.28
 -12  -4  -2    2.91    0.85
   4   2 -12    3.16    0.43
  12  -4   2    2.34    0.88
 -12  -4  -2    4.00    0.79
  -2  12   4    2.46    0.49
 -12   4   2    3.03    0.92
  12   4  -2    2.44    0.79
   4  -2  12    1.59    0.65
   2  12  -4    3.11    0.75
  -4  -2 -12    3.44    0.43
   2 -12   4    3.48    0.85
  -1 -12  -4   62.62    1.26
  -4   1  12   62.16    0.93
  12  -4   1   60.90    2.02
 -12  -4  -1   59.04    1.73
 -12   4   1   59.61    2.01
   4  -1  12   62.03    1.60
   1  12  -4   59.19    1.54
  -1  12   4   60.51    1.28
   1 -12   4   57.03    1.64
 -12  -4  -1   60.49    1.90
 -12  -4   0   81.51    2.01
  12  -4   0   78.34    2.17
  -4   0  12   79.70    1.16
   4   0  12   82.07    1.75
   0  12  -4   80.08    1.82
   4   0 -12   77.00    1.10
   0  12   4   82.89    1.47
  -4   0 -12   79.11    1.36
   0 -12  -4   78.76    1.40
   0 -12   4   79.79    1.83
  -1 -12   4   59.11    1.61
 -12  -4   1   59.99    1.79
  -4  -1  12   63.08    1.12
   4   1  12   62.81    1.45
  -1  12  -4   53.87    1.47
  12  -4  -1   62.58    1.88
 -12   4  -1   56.66    2.02
   1  12   4   66.23    1.34
   1 -12  -4   60.56    1.28
  -4   1 -12   65.75    1.30
 -12  -4   1   62.43    1.84
   4  -1 -12   58.42    0.91
 -12  -4   2   -0.26    0.75
   2  12   4    2.66    0.52
  12  -4  -2    4.46    0.92
  -4  -2  12    2.11    0.45
  -2 -12   4    2.62    0.67
   4   2  12    1.83    0.54
  -2  12  -4    3.75    0.75
 -12   4  -2    1.39    0.77
   4  -2 -12    2.34    0.31
   2 -12  -4    1.77    0.54
  -4   2 -12    1.84    0.50
  -3  12  -4   75.30    1.80
   4   3  12   75.32    1.32
   3  12   4   75.54    1.44
  -4  -3  12   80.94    1.43
 -12   4  -3   80.28    2.32
 -12  -4   3   75.25    1.85
   3 -12  -4   75.11    1.54
  -4   3 -12   78.08    1.51
  -4  -4  12   64.29    1.36
  -4 -12   4   66.38    1.63
   4  12   4   68.03    1.43
   4 -12  -4   68.11    1.55
  -4   4 -12   65.33    1.45
  -4   5 -12   30.39    1.11
  -5  12  -4   31.88    1.27
  -4  -5  12   31.60    1.03
  -5 -12   4   32.74    1.29
 -12  -4   5   29.99    1.28
 -12   4  -5   31.09    1.48
   5  12   4   30.81    1.11
   5 -12  -4   32.50    1.16
  -4   6 -12    7.42    0.72
  -4  -6  12    8.38    0.70
   6 -12  -4    9.20    0.83
  -6 -12   4    9.84    0.77
   6  12   4    8.62    0.72
  -6  12  -4    8.89    0.88
  -4   7 -12   63.83    1.51
 -12  -4   7   71.45    1.70
   7 -12  -4   64.97    1.72
  -7 -12   4   67.04    1.67
 -12   4  -7   66.58    2.10
  -7  12  -4   64.19    1.71
  -4  -7  12   65.14    1.54
   7  12   4   69.68    1.65
 -12  -4   8   35.03    1.27
  -4  -8  12   32.02    1.20
   8  12   4   32.39    1.26
   8 -12  -4   30.88    1.23
  -8 -12   4   35.76    1.30
 -12  -4   9    8.92    0.84
  -4   9 -12    7.94    0.82
   9  12   4    7.74    0.81
  -4 -10  12   10.18    0.75
  10 -12  -4   10.92    0.88
  10  12   4   12.69    0.94
 -12  -4  10   10.13    0.81
  11 -12  -4   34.33    1.36
 -12  -4  11   35.39    1.21
 -12  -5 -11   22.27    1.05
 -11  12   5   24.26    1.07
 -12  -5 -11   25.51    1.05
 -11 -12  -5   25.35    0.98
 -12   5  10   43.37    1.16
 -12  -5 -10   42.20    1.31
 -10  12   5   39.82    1.28
 -10 -12  -5   42.26    1.20
 -12   5   9    7.57    0.78
 -12   5   9   10.30    0.71
   5  -9  12    8.74    1.01
 -12  -5  -9    8.62    0.83
  12   5  -9    5.78    0.72
  -9  12   5    6.78    0.73
  -9 -12  -5    7.37    0.68
  -5  -9 -12    8.61    0.39
   5   9 -12    9.12    0.77
  -5  -8 -12   50.85    0.78
  12  -5   8   44.31    1.86
  -5  -8 -12   49.88    0.96
 -12   5   8   47.35    1.50
   5  -8  12   49.86    1.83
 -12  -5  -8   56.33    1.63
  -8 -12  -5   50.65    1.25
  12   5  -8   47.03    1.60
  -8  12   5   46.31    1.24
 -12   5   8   48.23    1.43
   5   7 -12   84.32    1.65
  12  -5   7   84.98    2.50
 -12   5   7   86.31    2.07
  -5  -7 -12   87.85    1.27
  -5  -7 -12   91.74    1.07
 -12   5   7   88.85    2.00
   5  -7  12   85.96    2.23
   7 -12   5   82.97    2.31
  -7 -12  -5   95.52    1.64
  -7  12   5   86.13    1.58
  12   5  -7   92.59    2.20
  -6  12   5   63.24    1.32
  12   5  -6   65.38    1.92
 -12  -5  -6   61.30    1.87
  12  -5   6   65.43    2.20
 -12   5   6   60.00    1.83
  -5  -6 -12   65.61    1.16
   5  -6  12   63.30    1.92
 -12   5   6   66.81    1.88
  -6 -12  -5   63.25    1.33
   6 -12   5   60.18    1.97
  -5  -6 -12   63.53    0.98
   5   5 -12   26.39    0.94
 -12  -5  -5   22.97    1.33
  12  -5   5   26.86    1.56
  -5   5  12   25.10    0.33
  12   5  -5   24.01    1.24
 -12  -5  -5   25.21    1.19
  -5 -12  -5   24.48    0.85
   5  -5  12   28.52    1.44
  -5   5  12   25.73    0.42
  -5  -5 -12   24.59    0.72
   5 -12   5   22.94    1.30
   5  12  -5   24.03    1.09
 -12  -5  -4  191.97    3.14
  12  -5   4  179.24    3.39
 -12  -5  -4  206.23    3.02
  -5   4  12  196.28    1.46
  -5  -4 -12  188.68    1.96
  -5   4  12  189.62    1.12
 -12   5   4  192.92    3.26
  -4 -12  -5  194.68    2.12
   5  -4  12  200.75    3.15
  -5  -4 -12  182.37    1.94
   4 -12   5  195.58    3.27
   4  12  -5  189.84    2.70
 -12  -5  -3  129.95    2.57
  -5   3  12  139.50    1.40
 -12  -5  -3  134.32    2.48
  12  -5   3  127.87    2.84
  -3 -12  -5  136.02    1.74
   5   3 -12  136.67    1.74
  -3  12   5  138.68    1.76
  -5   3  12  134.19    1.11
 -12   5   3  136.87    2.76
   5  -3  12  137.66    2.60
   3  12  -5  130.28    2.28
   3 -12   5  133.91    2.63
 -12  -5  -2   28.89    1.33
 -12  -5  -2   27.30    1.36
  -2 -12  -5   29.04    0.86
  12  -5   2   28.99    1.60
  -5   2  12   31.13    0.64
   5   2 -12   26.39    0.81
 -12   5   2   28.84    1.39
   5  -2  12   31.19    1.32
  -2  12   5   28.45    0.88
   2  12  -5   26.72    1.13
  -5  -2 -12   29.20    0.89
   2 -12   5   29.26    1.32
  -1 -12  -5   93.99    1.43
 -12  -5  -1   86.07    2.10
  12  -5   1   92.42    2.36
  -5   1  12   91.65    1.16
  12   5  -1   87.80    2.43
 -12   5   1   85.10    2.37
   1  12  -5   89.78    1.93
   5   1 -12   85.64    1.29
  -1  12   5   94.36    1.47
  -5  -1 -12   90.07    1.53
 -12  -5  -1   93.42    2.15
   1 -12   5   90.53    2.03
  12   5   0  301.88    4.25
  12  -5   0  300.00    4.05
  -5   0  12  294.04    2.19
   0  12  -5  286.34    3.28
 -12   5   0  290.13    4.07
   0  12   5  305.32    2.56
  -5   0 -12  321.06    2.89
 -12  -5   0  304.86    3.72
   5   0 -12  292.43    2.22
   0 -12  -5  302.42    2.52
   0 -12   5  290.51    3.46
  -1 -12   5   91.74    1.99
  12  -5  -1   86.16    2.26
   5   1  12   97.27    1.84
  -5  -1  12   92.74    1.36
  -1  12  -5   84.18    1.81
 -12   5  -1   88.75    2.47
   5  -1 -12   88.11    1.18
 -12  -5   1   94.69    2.11
  -5   1 -12   92.15    1.62
   1  12   5   92.09    1.46
   2  12   5   29.19    0.91
  12  -5  -2   31.56    1.38
   5   2  12   30.11    1.02
  -2  12  -5   29.19    1.21
  -5  -2  12   29.15    0.88
 -12   5  -2   29.93    1.54
 -12  -5   2   27.12    1.29
   5  -2 -12   27.09    0.71
   2 -12  -5   28.58    0.95
  -5   2 -12   32.20    1.07
  12  -5  -3  135.33    2.55
  -3 -12   5  133.06    2.32
   5   3  12  141.76    1.89
  -5  -3  12  137.57    1.85
 -12  -5   3  133.99    2.40
   3 -12  -5  134.21    1.91
  -4  12  -5  186.77    2.70
  -4 -12   5  195.71    2.74
  -5  -4  12  196.19    2.29
 -12  -5   4  192.49    2.82
   4  12   5  197.65    2.32
   4 -12  -5  184.73    2.29
  -5   4 -12  199.53    2.52
  -5  12  -5   23.70    1.13
  -5  -5  12   27.04    0.99
  -5 -12   5   25.40    1.14
 -12  -5   5   23.20    1.14
   5 -12  -5   24.90    1.00
   5  12   5   24.39    0.95
  -6  12  -5   61.91    1.68
 -12  -5   6   64.06    1.68
  -5  -6  12   66.60    1.51
  -6 -12   5   57.30    1.63
   6 -12  -5   57.32    1.45
 -12   5  -6   63.23    2.10
   6  12   5   58.99    1.45
  -5   6 -12   56.94    1.48
 -12  -5   7   88.35    1.87
   7  12   5   83.49    1.72
   7 -12  -5   83.49    1.77
  -7 -12   5   88.99    1.99
 -12  -5   8   51.07    1.52
  -5  -8  12   47.58    1.41
   8 -12  -5   48.85    1.42
   8  12   5   49.82    1.46
  -5  -9  12    8.93    0.83
   9 -12  -5    7.79    0.74
   9  12   5    8.29    0.86
 -12  -5   9    9.96    0.88
  10  12   5   37.24    1.43
  10 -12  -5   38.74    1.30
 -12  -5  10   39.64    1.29
  11 -12  -5   26.47    1.17
 -12  -5  11   28.73    1.08
 -11 -12  -6    6.12    0.63
 -12  -6 -11    5.02    0.53
 -12  -6 -10   24.72    1.14
 -12   6  10   20.95    0.99
 -12  -6 -10   22.53    0.99
 -12   6  10   25.92    0.95
 -10  12   6   25.42    1.00
 -10 -12  -6   22.54    0.90
 -12  -6  -9   26.25    1.13
 -12   6   9   25.82    1.08
 -12   6   9   27.98    1.08
  -9  12   6   24.88    0.95
  -9 -12  -6   25.12    0.95
   6   8 -12   16.53    0.85
  -6  -8 -12   14.84    0.51
 -12  -6  -8   15.50    0.85
 -12   6   8   15.10    0.92
   6  -8  12   13.62    1.23
  -8 -12  -6   14.87    0.77
  -8  12   6   14.53    0.75
 -12  -6  -7    7.74    0.74
  12  -6   7    6.44    1.16
 -12   6   7    7.44    0.81
 -12   6   7    7.01    0.85
   6  -7  12    4.34    0.84
   7 -12   6    5.92    0.94
  -6  -7 -12    8.03    0.44
  12   6  -7    9.25    0.86
  -7 -12  -6    7.23    0.63
  -7  12   6    6.99    0.61
  -6  12   6   67.35    1.27
 -12  -6  -6   66.68    1.67
   6   6 -12   64.44    1.41
  12  -6   6   56.85    2.19
 -12   6   6   68.58    1.90
  -6  -6 -12   65.55    1.08
  -6 -12  -6   67.54    1.30
   6 -12   6   60.45    1.99
  12   6  -6   63.93    1.83
 -12  -6  -5   43.31    1.43
  -5  12   6   41.13    0.99
  12  -6   5   44.84    1.97
   6   5 -12   42.52    1.15
 -12   6   5   42.78    1.62
  -6   5  12   41.39    0.73
  -6  -5 -12   42.53    1.05
   6  -5  12   44.01    1.70
  -5 -12  -6   43.71    1.03
   5 -12   6   39.56    1.60
  -6   5  12   43.49    0.59
  -6  -5 -12   43.35    0.98
  12   6  -5   38.31    1.56
   5  12  -6   39.71    1.41
  12   6  -4   10.64    1.12
  -4  12   6    8.69    0.55
  -6   4  12    8.85    0.47
  12  -6   4    7.91    1.17
  -6  -4 -12    9.24    0.64
   6   4 -12   10.18    0.66
  -4 -12  -6   10.03    0.58
 -12   6   4    5.88    0.98
   6  -4  12    9.77    1.10
  -6  -4 -12   11.29    0.67
  -6   4  12    9.65    0.36
   4 -12   6    9.70    1.08
   4  12  -6    6.91    0.83
 -12  -6  -4    8.43    0.93
  -6   3  12   20.98    0.68
  12  -6   3   18.58    1.34
  -3 -12  -6   21.34    0.73
  12   6  -3   20.52    1.25
  -3  12   6   20.67    0.73
   6  -3  12   22.62    1.22
 -12   6   3   17.88    1.26
   6   3 -12   21.21    0.82
  -6  -3 -12   19.78    0.81
  -6   3  12   20.73    0.54
   3  12  -6   20.04    0.99
   3 -12   6   18.03    1.26
 -12  -6  -3   19.02    1.06
  -2 -12  -6  108.93    1.46
  12  -6   2  102.85    2.56
   6  -2  12  104.57    2.27
 -12   6   2  107.69    2.57
  -2  12   6  101.22    1.43
  -6   2  12  107.97    1.22
  -6  -2 -12  105.19    1.72
   2  12  -6  101.80    2.01
  12   6  -2  106.41    2.51
   6   2 -12   97.80    1.47
 -12  -6  -2  100.58    2.17
   2 -12   6  100.82    2.25
  12   6  -1   36.94    1.66
  -1 -12  -6   37.80    0.89
  12  -6   1   37.65    1.58
   6  -1  12   37.38    1.40
 -12   6   1   34.83    1.53
  -6   1  12   38.05    0.82
   1  12  -6   36.97    1.35
  -6  -1 -12   38.92    1.16
  -1  12   6   37.24    0.92
 -12  -6  -1   36.69    1.44
   1 -12   6   36.52    1.36
   6   1 -12   39.02    0.97
  12  -6   0    3.61    0.80
   6   0  12    4.80    0.74
   6   0 -12    3.99    0.46
   0  12  -6    4.29    0.75
  -6   0  12    4.45    0.45
 -12   6   0    6.28    1.05
  -6   0 -12    4.42    0.59
 -12  -6   0    3.05    0.76
  12   6   0    3.32    1.00
   0  12   6    3.72    0.45
   0 -12  -6    3.99    0.46
   0 -12   6    5.15    0.89
  -1 -12   6   39.08    1.43
  12  -6  -1   35.92    1.51
  12   6   1   35.77    1.60
  -1  12  -6   31.32    1.18
  -6  -1  12   37.49    0.93
 -12   6  -1   35.85    1.64
 -12  -6   1   40.20    1.46
  -6   1 -12   41.62    1.22
   6   1  12   39.00    1.28
   1 -12  -6   36.73    0.93
   6  -1 -12   32.32    0.83
  -2 -12   6   99.93    2.08
  12  -6  -2  103.15    2.38
  -2  12  -6  101.40    1.99
  -6  -2  12  104.52    1.57
 -12  -6   2  106.61    2.19
   6   2  12  107.28    1.89
   6  -2 -12  107.61    1.42
   2 -12  -6  101.46    1.54
   2  12   6   99.04    1.46
   6   3  12   20.37    0.87
  12  -6  -3   22.05    1.20
  -3 -12   6   23.10    1.17
 -12  -6   3   19.39    1.16
  -6  -3  12   20.48    0.83
   3  12   6   21.55    0.81
 -12   6  -3   19.37    1.27
   3 -12  -6   18.65    0.81
  -6   3 -12   19.57    0.94
  12  -6  -4    6.90    0.83
  -4  12  -6    9.44    0.88
 -12  -6   4    7.70    0.86
  -6  -4  12    8.96    0.69
 -12   6  -4    8.68    1.17
   4 -12  -6    8.11    0.64
   4  12   6    9.41    0.68
  12  -6  -5   46.21    1.49
  -5  12  -6   43.46    1.43
 -12  -6   5   40.83    1.34
  -5 -12   6   41.11    1.40
  -6  -5  12   42.04    1.16
   5 -12  -6   41.59    1.15
   5  12   6   41.84    1.16
 -12  -6   6   65.56    1.73
  -6  -6  12   66.39    1.52
  -6 -12   6   59.18    1.59
   6 -12  -6   60.31    1.39
   6  12   6   63.29    1.43
 -12  -6   7    9.41    0.78
  -6  -7  12    7.81    0.75
   7 -12  -6    8.70    0.73
   7  12   6    7.09    0.75
  -6   7 -12    7.97    0.82
   8 -12  -6   14.00    0.86
  -6  -8  12   14.79    0.83
   8  12   6   14.95    0.92
 -12  -6   8   17.46    1.05
  -6   8 -12   17.92    0.98
  -6  -9  12   29.96    1.15
   9 -12  -6   28.18    1.11
 -12  -6   9   27.11    1.09
  10 -12  -6   20.68    0.98
  10  12   6   21.67    1.18
  11 -12  -6    6.90    0.73
 -11 -12  -7    3.73    0.54
 -12  -7 -11    3.61    0.51
 -12  -7 -11    3.16    0.57
 -12  -7 -10   11.01    0.71
 -12  -7 -10    9.12    0.81
 -10  12   7    9.83    0.72
 -10 -12  -7    9.91    0.67
 -12  -7  -9   54.70    1.41
  -7  -9 -12   59.62    0.97
 -12  -7  -9   53.50    1.50
 -12   7   9   56.70    1.44
 -12   7   9   51.85    1.46
  -9 -12  -7   50.48    1.18
 -12  -7  -8   28.14    1.22
 -12   7   8   29.55    1.21
   7   8 -12   24.68    0.96
  -7  -8 -12   25.90    0.87
  -7  -8 -12   26.98    0.72
 -12   7   8   26.15    1.16
  -8 -12  -7   27.25    0.88
  -8  12   7   25.18    0.88
 -12  -7  -8   29.52    1.14
  -7  12   7    0.74    0.43
 -12  -7  -7    2.88    0.71
  -7  -7 -12    1.59    0.44
   7   7 -12    1.79    0.59
 -12   7   7    1.71    0.72
   7  -7  12    1.47    0.71
  -7  -7 -12    2.32    0.37
 -12   7   7    0.32    0.69
  -7 -12  -7    1.86    0.44
 -12  -7  -7    3.28    0.69
  -6  12   7   55.00    1.10
 -12  -7  -6   54.62    1.68
  -7  -6 -12   59.50    1.12
  12  -7   6   54.57    2.01
   7   6 -12   51.41    1.31
  -7  -6 -12   54.52    1.21
 -12   7   6   51.61    1.59
   7  -6  12   52.33    1.84
  -6 -12  -7   57.80    1.15
 -12  -7  -6   51.98    1.53
 -12  -7  -5  121.37    2.40
  -5  12   7  132.76    1.59
  12  -7   5  117.86    2.84
  -7   5  12  129.20    1.47
  -7  -5 -12  128.92    1.85
   7   5 -12  116.62    1.85
   7  -5  12  134.00    2.80
 -12   7   5  124.16    2.50
  -5 -12  -7  132.06    1.64
   5 -12   7  121.97    2.67
 -12  -7  -5  117.21    2.21
  -7  -5 -12  128.11    1.72
 -12  -7  -4   16.01    1.12
  -7  -4 -12   16.88    0.79
  -7   4  12   16.90    0.67
  -4  12   7   16.12    0.63
  12  -7   4   16.46    1.28
  -4 -12  -7   17.70    0.66
   7  -4  12   16.90    1.24
  -7  -4 -12   17.13    0.80
 -12   7   4   16.08    1.17
   7   4 -12   15.90    0.79
 -12  -7  -4   16.32    1.00
   4 -12   7   15.42    1.10
  12   7  -4   15.93    1.11
   4  12  -7   18.84    0.97
  -7   4  12   17.14    0.51
  -7   3  12   38.40    0.95
  -3 -12  -7   43.56    0.92
  12  -7   3   40.86    1.73
   7  -3  12   40.11    1.54
  -3  12   7   39.72    0.88
 -12   7   3   41.20    1.61
  -7  -3 -12   40.56    1.16
 -12  -7  -3   37.89    1.37
   3  12  -7   41.60    1.39
  -7   3  12   43.53    0.79
   3 -12   7   38.04    1.53
  12   7  -3   43.96    1.75
  -7   2  12  126.97    1.66
  -2 -12  -7  131.74    1.49
  12   7  -2  131.75    2.74
  12  -7   2  116.18    2.77
   7  -2  12  118.02    2.38
 -12   7   2  123.21    2.64
  -7  -2 -12  137.03    2.05
 -12  -7  -2  124.46    2.34
  -2  12   7  124.91    1.46
   2  12  -7  124.28    2.24
  -7   2  12  131.78    1.43
   2 -12   7  126.43    2.54
   7   2 -12  128.52    1.78
  -1 -12  -7  125.13    1.43
  12  -7   1  127.42    2.79
   7   1 -12  124.37    1.68
   7  -1  12  133.10    2.51
  12   7  -1  124.98    2.68
 -12  -7  -1  132.86    2.41
   1  12  -7  126.17    2.26
  -7  -1 -12  136.23    2.12
  -7   1  12  128.86    1.51
  -1  12   7  122.63    1.43
   1 -12   7  129.23    2.52
   0 -12   7    0.68    0.81
   0  12   7    1.31    0.36
  12   7   0    1.85    0.72
   7   0 -12    1.71    0.46
  12  -7   0    1.62    0.69
   7   0  12    0.78    0.69
   0  12  -7    0.94    0.69
 -12   7   0    3.12    1.01
 -12  -7   0    1.09    0.57
  -7   0  12    1.01    0.40
  -7   0 -12    0.46    0.55
   0 -12  -7    2.58    0.40
  -1 -12   7  128.57    2.42
   7   1  12  125.64    2.22
   1  12   7  126.25    1.51
  12  -7  -1  131.39    2.71
  -1  12  -7  123.15    2.23
 -12  -7   1  124.32    2.28
  12   7   1  120.13    2.68
 -12   7  -1  121.82    2.70
  -7  -1  12  123.11    1.66
  -7   1 -12  128.26    2.13
   7  -1 -12  125.97    1.66
   1 -12  -7  126.71    1.52
  -2 -12   7  125.20    2.33
   7   2  12  124.58    2.10
  12  -7  -2  138.17    2.72
  -2  12  -7  119.64    2.21
 -12  -7   2  126.22    2.31
   2  12   7  127.79    1.60
  -7  -2  12  127.70    1.76
 -12   7  -2  119.12    2.71
   2 -12  -7  115.46    1.52
  -7   2 -12  124.08    2.14
  12   7   2  129.67    2.88
  12  -7  -3   45.96    1.57
 -12  -7   3   43.08    1.39
  -3 -12   7   38.19    1.39
  -7  -3  12   38.76    1.09
 -12   7  -3   37.47    1.70
   3 -12  -7   38.90    0.98
   3  12   7   37.79    0.96
  -7   3 -12   43.58    1.39
  12  -7  -4   17.64    1.08
 -12  -7   4   15.49    0.94
  -7  -4  12   20.13    0.90
  -4  12  -7   18.49    0.96
   4 -12  -7   18.26    0.77
 -12   7  -4   18.22    1.27
  -7   4 -12   15.33    0.93
   4  12   7   16.41    0.76
  12  -7  -5  126.21    2.27
   5  12   7  117.25    1.78
  -5 -12   7  123.57    2.24
  -7  -5  12  133.44    2.01
   5 -12  -7  129.16    1.82
 -12  -7   6   57.76    1.65
  12  -7  -6   59.68    1.57
  -6 -12   7   57.93    1.65
  -7  -6  12   57.68    1.44
   6 -12  -7   51.92    1.23
   6  12   7   52.52    1.30
  -7   6 -12   55.77    1.56
 -12  -7   7    0.58    0.61
   7  12   7    0.80    0.57
   7 -12  -7    1.65    0.54
  -7  -7  12    1.56    0.56
  -7   7 -12    2.73    0.74
   8  12   7   27.17    1.13
  -7  -8  12   27.27    1.14
   8 -12  -7   26.78    1.00
   9 -12  -7   51.45    1.32
   9  12   7   48.12    1.46
  10 -12  -7    8.88    0.73
  10  12   7    9.33    0.86
  11 -12  -7    3.43    0.60
 -11 -12  -8   16.49    0.75
 -12  -8 -11   18.06    0.92
 -12  -8 -11   16.82    0.79
 -12  -8 -10   13.92    0.85
 -12  -8 -10   13.27    0.76
 -12  -8  -9    3.07    0.63
 -12   8   9    3.39    0.64
 -12  -8  -9    2.81    0.55
  -9 -12  -8    2.17    0.47
 -12   8   8   13.98    0.96
  -8  -8 -12   12.65    0.72
 -12   8   8   13.82    0.92
  -8  -8 -12   13.36    0.60
 -12  -8  -8   12.67    0.77
  -8 -12  -8   13.79    0.67
 -12  -8  -7   40.18    1.42
  -8  -7 -12   39.23    1.07
   8   7 -12   38.06    1.23
   8  -7  12   36.90    1.78
 -12   8   7   40.05    1.38
 -12  -8  -7   40.64    1.29
  -7 -12  -8   41.08    0.99
  -8  -7 -12   41.43    0.97
 -12  -8  -6   12.62    0.99
  -6  12   8   14.80    0.61
  -8  -6 -12   16.34    0.69
  -8  -6 -12   16.08    0.81
   8  -6  12   14.93    1.26
 -12   8   6   15.30    0.96
  -6 -12  -8   15.55    0.64
 -12  -8  -6   15.38    0.95
 -12  -8  -5   14.71    1.05
  -5  12   8   13.70    0.54
   8  -5  12   14.60    1.27
  -8  -5 -12   13.98    0.78
  -5 -12  -8   14.53    0.61
 -12   8   5   11.29    1.01
 -12  -8  -5   15.37    0.96
   8   5 -12   12.15    0.73
  -8  -5 -12   13.43    0.71
  -8  -4 -12   32.90    1.06
  -8   4  12   32.73    0.93
  12  -8   4   27.69    1.68
  -4  12   8   31.83    0.75
   8  -4  12   34.24    1.59
  -4 -12  -8   33.69    0.79
  -8  -4 -12   32.55    1.10
 -12  -8  -4   33.30    1.23
 -12   8   4   33.49    1.39
   4 -12   8   35.86    1.65
   8   4 -12   30.49    1.05
  -8   3  12   53.42    1.17
  -3 -12  -8   51.49    0.93
  12  -8   3   52.03    2.01
   8  -3  12   50.56    1.75
 -12  -8  -3   57.66    1.61
  -8  -3 -12   54.20    1.37
 -12   8   3   53.49    1.75
  -3  12   8   53.74    0.92
   3 -12   8   45.79    1.75
  -8   3  12   54.76    0.95
   8   3 -12   52.32    1.25
  -8   2  12    9.81    0.64
  -2 -12  -8    7.94    0.44
  12  -8   2    7.55    0.94
   8  -2  12    8.62    1.03
 -12  -8  -2    7.73    0.85
 -12   8   2   10.18    1.05
   2  12  -8    8.66    0.90
  -2  12   8    9.65    0.47
   2 -12   8    5.93    0.99
  -8   2  12    9.58    0.52
  12   8  -1   38.95    1.70
   8  -1  12   37.72    1.48
  12  -8   1   32.80    1.66
 -12  -8  -1   40.79    1.38
   1  12  -8   40.08    1.41
 -12   8   1   39.12    1.66
  -8  -1 -12   34.64    1.22
   8   1 -12   41.40    1.11
  -8   1  12   38.07    0.91
   1 -12   8   33.00    1.45
  -1  12   8   39.19    0.80
  -1 -12  -8   36.17    0.77
   8   0  12   43.71    1.51
   8   0 -12   44.11    1.12
  12  -8   0   45.09    1.79
 -12  -8   0   41.46    1.41
  12   8   0   43.24    1.80
   0  12  -8   44.69    1.47
   0  12   8   41.26    0.82
 -12   8   0   44.15    1.74
  -8   0 -12   42.58    1.33
  -8   0  12   44.56    1.03
   0 -12   8   38.43    1.52
  -1  12  -8   33.84    1.32
   8   1  12   38.76    1.39
 -12  -8   1   40.81    1.43
  12  -8  -1   38.32    1.58
   1  12   8   36.40    0.82
 -12   8  -1   39.14    1.65
  -8  -1  12   39.19    1.03
  -8   1 -12   36.86    1.30
   1 -12  -8   35.67    0.82
  12   8   1   35.81    1.66
   8  -1 -12   39.56    1.07
  -1 -12   8   35.37    1.43
   8   2  12   10.55    0.86
 -12  -8   2    9.54    0.89
  12  -8  -2    8.10    1.06
  12   8   2    8.71    1.01
 -12   8  -2   10.51    0.99
  -8  -2  12   11.15    0.68
   2 -12  -8    8.07    0.50
   2  12   8   10.07    0.54
  -8   2 -12   12.57    0.95
   8   3  12   54.21    1.43
 -12  -8   3   55.92    1.61
  12  -8  -3   53.59    1.67
   3 -12  -8   51.76    1.02
  -8  -3  12   55.66    1.29
  12   8   3   49.86    1.89
  -8   3 -12   53.13    1.56
   3  12   8   53.09    1.09
  -4 -12   8   30.25    1.30
   4  12   8   31.63    0.92
   4 -12  -8   32.20    0.89
  -8  -4  12   34.22    1.11
  -8   4 -12   30.79    1.23
  12  -8  -4   30.66    1.33
   5 -12  -8   13.66    0.67
  -8  -5  12   11.63    0.81
   6 -12  -8   14.36    0.72
  -8  -6  12   14.50    0.86
  -8   6 -12   16.24    1.01
   6  12   8   14.09    0.79
   7 -12  -8   40.20    1.06
   7  12   8   38.57    1.21
  -8  -7  12   39.18    1.22
   8 -12  -8   12.26    0.72
  -8  -8  12   14.69    0.92
   8  12   8   14.27    0.88
   9 -12  -8    3.91    0.58
   9  12   8    2.13    0.60
  10 -12  -8   14.07    0.78
  10  12   8   11.17    0.90
 -11 -12  -9   14.64    0.69
 -11 -12  -9   13.64    0.72
 -12  -9 -11   13.42    0.81
 -12  -9 -11   13.06    0.68
 -12  -9 -10   14.66    0.83
 -12  -9 -10   16.50    0.78
 -10 -12  -9   16.21    0.70
 -12  -9  -9    0.68    0.55
  -9  -9 -12    0.56    0.37
 -12  -9  -9   -0.05    0.48
 -12  -9  -8   21.23    1.01
  -9  -8 -12   20.52    0.85
 -12  -9  -8   22.95    0.95
 -12   9   8   23.55    1.03
  -9  -8 -12   23.38    0.75
  -8 -12  -9   24.46    0.79
 -12  -9  -7   40.39    1.32
  -9  -7 -12   40.34    1.15
 -12  -9  -7   42.01    1.22
 -12   9   7   38.56    1.30
  -7 -12  -9   41.90    0.95
  -9  -7 -12   43.93    1.05
 -12  -9  -6   20.68    1.02
   9  -6  12   16.23    1.24
  -9  -6 -12   20.00    0.79
 -12  -9  -6   20.16    0.96
 -12   9   6   17.13    1.00
  -6 -12  -9   19.88    0.67
   9   6 -12   18.75    0.95
 -12  -9  -5    6.60    0.72
  -9  -5 -12    5.86    0.66
  -5 -12  -9    7.71    0.47
 -12   9   5    8.48    0.91
  -9  -5 -12    6.35    0.60
   9   4 -12   77.12    1.56
  -9   4  12   87.63    1.51
 -12  -9  -4   82.55    1.77
   9  -4  12   77.03    2.19
  -4 -12  -9   80.69    1.11
  -9  -4 -12   80.33    1.67
 -12   9   4   86.34    2.08
  -9  -4 -12   81.05    1.63
  -9   3  12   56.12    1.27
  -3 -12  -9   59.37    0.92
   9   3 -12   55.26    1.30
   9  -3  12   55.44    1.86
  12  -9   3   55.67    2.07
  -9  -3 -12   57.78    1.47
 -12   9   3   55.89    1.78
  -2 -12  -9    3.88    0.35
  -9   2  12    4.47    0.57
   9  -2  12    5.61    0.93
 -12  -9  -2    5.25    0.82
  12  -9   2    3.84    1.06
  -9  -2 -12    4.67    0.68
   2 -12   9    3.70    0.87
  -9   2  12    3.74    0.45
  -1  12   9   36.08    0.69
 -12  -9  -1   38.44    1.32
   9  -1  12   33.01    1.48
  12  -9   1   40.11    1.68
  -9  -1 -12   33.57    1.20
 -12   9   1   33.09    1.50
  -9   1  12   34.03    0.89
  -1 -12  -9   34.11    0.69
 -12  -9   0  122.32    2.25
   9   0  12  119.39    2.36
  12  -9   0  115.87    2.66
   0  12   9  123.63    1.27
  -9   0 -12  124.39    2.23
 -12   9   0  121.76    2.69
   0 -12  -9  119.34    1.25
  -9   0  12  123.86    1.68
   0 -12   9  122.21    2.41
   9   0 -12  125.60    1.88
 -12  -9   1   33.93    1.26
  12  -9  -1   36.46    1.61
  -9   1 -12   33.91    1.32
 -12   9  -1   37.56    1.69
   1 -12  -9   32.76    0.72
   1  12   9   33.89    0.76
  -9  -1  12   32.57    0.97
  -1 -12   9   31.31    1.33
  -2 -12   9    4.75    0.65
   2  12   9    4.48    0.42
   9   2  12    5.13    0.68
   2 -12  -9    5.22    0.42
  -9  -2  12    3.65    0.54
  -9   2 -12    3.11    0.80
  -3 -12   9   50.35    1.58
  12  -9  -3   55.47    1.74
  12   9   3   53.54    1.86
   3  12   9   53.21    1.05
   3 -12  -9   57.64    1.00
  12  -9  -4   83.59    2.00
   4 -12  -9   81.43    1.22
  -9  -4  12   86.01    1.67
  12   9   4   81.52    2.27
  -9   4 -12   83.72    1.98
   5  12   9    6.20    0.59
  12  -9  -5    6.36    0.76
   5 -12  -9    4.47    0.47
  -9  -5  12    6.80    0.71
  12  -9  -6   20.12    0.99
   6 -12  -9   19.43    0.73
  -9  -6  12   20.82    0.97
  12  -9  -7   41.90    1.27
  -9  -7  12   40.86    1.25
  12  -9  -8   24.88    0.98
   8  12   9   22.48    1.04
 -11 -12 -10    7.30    0.54
 -12 -10 -11    6.74    0.60
 -12 -10 -11    5.71    0.55
 -12 -10 -10    6.80    0.67
 -12 -10 -10    6.12    0.60
 -10 -12 -10    6.17    0.50
  -9 -12 -10    9.76    0.61
 -12 -10  -9   10.09    0.63
  -9 -12 -10   10.69    0.59
 -10  -8 -12   12.98    0.75
 -12 -10  -8   12.89    0.79
 -10  -8 -12   11.41    0.62
  -8 -12 -10   12.31    0.60
 -10  -7 -12    6.93    0.55
 -10  -7 -12    6.44    0.63
 -12  10   7    8.50    0.78
  -7 -12 -10    7.33    0.48
 -12 -10  -6   21.87    0.96
 -10  -6 -12   21.46    0.98
 -10  -6 -12   25.70    0.89
  -6 -12 -10   23.43    0.68
 -12  10   6   23.72    1.13
  10   6 -12   23.28    1.03
  10   5 -12   21.15    0.95
 -12 -10  -5   21.10    0.98
  10  -5  12   19.40    1.24
 -10  -5 -12   21.59    0.95
  -5 -12 -10   21.36    0.63
 -12  10   5   23.40    1.15
 -10  -5 -12   22.12    0.93
 -12 -10  -4   12.36    0.85
  10  -4  12    8.24    1.09
  -4 -12 -10    9.97    0.45
 -10  -4 -12   11.27    0.79
 -12  10   4   10.36    0.93
 -10  -4 -12   10.18    0.74
 -10   3  12   13.84    0.62
 -12 -10  -3   12.11    0.82
 -10   3  12   11.77    0.73
  10  -3  12   11.35    1.07
 -10  -3 -12   10.72    0.82
 -10  -3 -12   12.92    0.89
 -12  10   3    9.52    1.01
  -2 -12 -10   44.13    0.70
 -12 -10  -2   48.82    1.42
 -10   2  12   46.88    1.24
  10  -2  12   44.55    1.71
 -10  -2 -12   46.17    1.40
 -12  10   2   46.89    1.61
  10   2 -12   43.46    1.25
  10  -1  12   18.09    1.19
 -10  -1 -12   22.95    1.07
  10   1 -12   19.28    0.90
 -12  10   1   20.02    1.29
  -1 -12 -10   21.24    0.52
 -10   1  12   20.86    0.78
  10   0  12    8.85    0.95
  10   0 -12    6.31    0.68
  12 -10   0    4.99    1.04
 -10   0 -12    8.50    0.83
   0 -12 -10    7.33    0.37
 -10   0  12    7.18    0.57
  10   1  12   22.05    1.17
  12 -10  -1   20.87    1.36
   1 -12 -10   20.09    0.54
 -10  -1  12   19.78    0.84
  10   2  12   45.27    1.48
  12 -10  -2   40.80    1.62
   2 -12 -10   45.14    0.78
 -10   2 -12   43.11    1.54
 -10  -2  12   44.82    1.16
  12 -10  -3   13.88    1.06
 -10  -3  12   13.06    0.79
  12 -10  -4   10.68    0.96
 -10  -4  12   11.57    0.79
 -10   4 -12    9.43    0.87
  12 -10  -5   23.10    1.08
 -10  -5  12   22.04    1.02
  12 -10  -6   21.38    1.03
 -10  -6  12   23.13    1.04
  12 -10  -7    8.04    0.73
  12 -10  -8   14.71    0.81
 -12 -11 -10    6.13    0.50
 -12 -11  -9   18.14    0.77
 -11  -9 -12   18.47    0.74
 -12 -11  -8    8.76    0.68
 -11  -8 -12    8.20    0.68
 -11  -8 -12    6.99    0.58
 -11  -7 -12    3.56    0.51
 -12 -11  -7    3.92    0.52
 -11  -7 -12    2.98    0.53
 -12  11   7    4.74    0.70
 -11  -6 -12   20.53    0.97
 -12  11   6   20.42    1.04
 -11  -5 -12   34.14    1.18
  11   5 -12   29.89    1.12
 -12  11   5   32.81    1.27
 -12  11   4    5.65    0.82
 -11  -4 -12    5.55    0.70
 -11   3  12   15.54    0.86
  11  -3  12   13.97    1.19
 -11  -3 -12   12.19    0.94
 -11  -3 -12   13.37    0.89
 -12  11   3   15.23    1.09
  11  -2  12   37.23    1.50
  11   2 -12   36.38    1.18
 -12  11   2   38.19    1.43
 -11   1  12   33.29    1.11
  11  -1  12   35.20    1.54
 -11   0 -12    4.88    0.75
 -11   0  12    4.53    0.57
  11   1  12   36.46    1.44
  12 -11  -1   36.74    1.60
 -11   1 -12   34.48    1.37
 -11  -1  12   32.93    1.00
  12 -11  -2   40.31    1.59
 -11   2 -12   37.68    1.50
 -11  -2  12   40.75    1.16
  12 -11  -3   16.73    1.13
 -11  -3  12   15.68    0.84
  12 -11  -4    7.04    0.79
 -11  -4  12    6.96    0.65
  12 -11  -5   34.49    1.33
 -11  -5  12   35.85    1.17
  12 -11  -6   19.67    1.02
  12 -11  -7    3.62    0.61
  12 -11  -8    8.13    0.68
 -12  -9 -12    3.17    0.57
 -12  -8 -12    3.71    0.59
 -12  -8 -12    4.32    0.50
 -12  -7 -12   14.06    0.74
 -12  -7 -12   14.42    0.82
 -12  -6 -12   11.84    0.84
 -12  -6 -12   11.98    0.72
 -12  12   6   11.14    0.81
 -12  -5 -12    5.15    0.69
 -12  12   5    6.18    0.78
 -12  -5 -12    5.79    0.58
 -12  -4 -12    9.06    0.83
 -12  -4 -12    9.19    0.77
 -12  12   4    7.94    0.86
  12   3 -12   21.14    1.04
 -12  -3 -12   20.18    1.12
 -12  -3 -12   18.44    0.96
  12   2 -12   10.23    0.75
 -12   2  12   11.40    0.80
 -12  -2 -12   10.34    0.88
  12   1 -12   12.69    0.83
 -12   1  12   13.75    0.73
 -12   1  12   14.12    0.85
 -12  -1 -12   13.03    0.96
  12  -1  12   16.14    1.10
  12   0  12   13.20    1.13
  12   1  12   12.45    1.01
 -12  -1  12   14.28    0.77
  12   2  12   13.23    1.02
  12 -12  -2   11.72    1.11
 -12  -2  12   11.70    0.73
  12 -12  -3   21.41    1.23
 -12  -3  12   20.75    0.94
  12 -12  -4    8.34    0.87
 -12  -4  12    8.81    0.73
  12 -12  -5    4.88    0.77
  12 -12  -6   13.42    0.90
  12 -12  -7   13.79    0.85
   0 -13   0   -0.63    0.62
 -13   0   0    0.73    0.93
 -13   0   0   -0.76    0.88
   0   0 -13    0.33    0.32
  -1 -13   0    2.84    0.63
 -13   0   1    2.62    0.89
 -13   0   1    2.95    0.98
 -13   0  -1    2.78    0.94
  -1  13   0    3.02    0.59
   0   1  13    3.58    0.45
   0  -1 -13    3.53    0.31
 -13   0  -1    1.33    1.00
   0  -1  13    2.03    0.50
   1  13   0    2.17    0.66
   1 -13   0    4.98    0.70
  -2 -13   0  286.94    3.00
 -13   0   2  279.28    3.96
 -13   0  -2  313.79    4.47
  -2  13   0  284.09    3.04
   0   2  13  298.82    2.08
   0   2 -13  295.82    2.32
   0  -2  13  293.41    2.85
   2  13   0  304.93    3.20
   2 -13   0  294.17    3.32
 -13   0   2  310.35    4.06
 -13   0   3    1.57    0.82
 -13   0   3   -0.31    0.87
   0   3  13    0.52    0.18
  -3  13   0   -0.36    0.60
   0   3 -13   -0.58    0.42
   0  -3  13    0.25    0.54
   3 -13   0    0.72    0.53
   0  -3 -13    0.44    0.12
   3  13   0   -0.42    0.52
   4  13   0   24.50    1.09
 -13   0   4   23.98    1.35
  -4  13   0   22.71    1.00
  -4 -13   0   24.80    1.05
 -13   0  -4   23.80    1.54
   0   4 -13   24.83    0.88
 -13   0   4   23.03    1.29
   4 -13   0   24.19    1.14
   0  -4  13   21.78    0.95
  13   0   5    3.80    0.94
   5  13   0    3.34    0.57
  -5  13   0    2.02    0.51
 -13   0   5    3.51    0.80
 -13   0  -5    3.76    0.88
   0   5 -13    3.09    0.57
  -5 -13   0    2.45    0.67
   5 -13   0    2.18    0.82
   0  -5  13    1.63    0.62
 -13   0   6  154.81    2.59
  -6  13   0  145.35    2.32
  13   0   6  144.61    2.91
 -13   0   6  149.83    2.73
   6  13   0  146.32    2.35
 -13   0  -6  149.15    3.06
   0   6 -13  150.46    2.05
  -6 -13   0  149.53    2.30
   6 -13   0  146.88    2.68
   0  -6  13  147.52    2.36
  13   0   7    5.66    1.05
 -13   0   7    6.98    0.79
 -13   0  -7    7.11    0.99
   0   7 -13    5.33    0.68
   7  13   0    5.66    0.73
  -7 -13   0    5.23    0.76
   7 -13   0    9.06    0.98
 -13   0   7    6.78    0.83
   0  -7  13    8.17    0.83
  -7  13   0    7.39    0.84
  13   0   8   37.13    1.63
 -13   0   8   38.35    1.39
   8 -13   0   40.57    1.54
  -8 -13   0   39.27    1.32
   8  13   0   39.83    1.38
 -13   0   8   41.58    1.28
   0  -8  13   36.64    1.33
  -8  13   0   38.54    1.40
  13   0   9   -0.91    0.74
 -13   0   9    2.42    0.63
   9 -13   0    2.46    0.76
  -9 -13   0   -0.32    0.59
   0  -9  13   -0.19    0.69
  -9  13   0    1.38    0.69
 -13   0  10   34.54    1.29
  13   0  10   31.81    1.47
 -13   0  10   38.92    1.16
  10 -13   0   40.66    1.68
   0 -10  13   39.00    1.47
 -13   0  11    4.44    0.64
 -13   0  11    4.95    0.60
 -13   0  12   25.74    0.94
 -13   0  12   20.95    1.00
 -13   1  12   11.01    0.67
 -13   1  12    9.48    0.76
 -13   1  11    0.96    0.60
  13  -1  10   14.25    1.18
 -13   1  10   18.25    0.85
  13  -1   9   63.24    2.02
 -13   1   9   63.71    1.75
 -13  -1  -9   65.24    1.91
   9 -13   1   63.98    2.01
 -13   1   9   61.63    1.50
  -9 -13  -1   64.62    1.59
   1  -9  13   60.29    1.78
  -9  13   1   61.89    1.67
  13  -1   8   51.05    1.81
 -13   1   8   52.14    1.66
 -13  -1  -8   52.94    1.85
  -8 -13  -1   51.08    1.44
   1  -8  13   49.94    1.55
 -13   1   8   53.58    1.51
  -8  13   1   52.46    1.55
 -13   1   7   16.95    1.01
  13  -1   7   21.32    1.37
 -13   1   7   18.52    1.16
 -13  -1  -7   20.46    1.37
   7  13  -1   18.18    1.10
   1   7 -13   16.30    0.81
  -7 -13  -1   19.54    1.00
   7 -13   1   17.15    1.21
   1  -7  13   17.31    1.01
  -7  13   1   19.68    1.01
  -6  13   1   24.82    1.10
 -13  -1  -6   28.07    1.54
  13  -1   6   23.38    1.41
 -13   1   6   23.71    1.32
   6  13  -1   23.42    1.15
 -13   1   6   28.11    1.20
 -13  -1  -6   24.86    1.41
  -6 -13  -1   27.85    1.04
   1   6 -13   25.06    0.94
   6 -13   1   25.05    1.37
   1  -6  13   26.86    1.14
  13  -1   5  104.01    2.47
  -5  13   1  114.15    2.02
 -13   1   5  109.12    2.46
 -13  -1  -5  111.05    2.62
  -5 -13  -1  118.28    2.00
   1   5 -13  116.84    1.75
 -13   1   5  115.76    2.33
   5 -13   1  109.58    2.37
   1  -5  13  102.57    2.04
 -13  -1  -5  114.99    2.75
  13  -1   4  109.00    2.59
  -4  13   1  120.59    2.03
 -13   1   4  116.47    2.57
 -13  -1  -4  118.75    2.74
  -4 -13  -1  118.00    1.97
   1   4 -13  116.84    1.66
  -1  -4 -13  112.37    0.61
   1  -4  13  120.59    2.12
   4 -13   1  118.24    2.40
  -1  -4 -13  114.43    0.71
 -13   1   4  113.40    2.43
 -13  -1  -4  117.53    2.68
   4  13  -1  112.13    2.04
 -13   1   3   72.58    2.01
  -3 -13  -1   71.79    1.52
 -13   1   3   69.25    2.13
  -3  13   1   66.26    1.50
 -13  -1  -3   73.48    2.25
  -1   3  13   68.02    0.67
  -1  -3 -13   67.17    0.67
   1   3 -13   69.18    1.24
   1  -3  13   65.41    1.54
   3 -13   1   68.45    1.83
   3  13  -1   72.71    1.71
  13  -1   2   42.11    1.74
  -2 -13  -1   41.23    1.21
 -13   1   2   39.59    1.65
  -1  -2 -13   44.60    0.66
  -2  13   1   42.26    1.24
   1   2 -13   43.60    0.95
 -13   1   2   45.01    1.80
   1  -2  13   43.49    1.27
   2  13  -1   45.95    1.33
 -13  -1  -2   44.22    1.81
   2 -13   1   42.08    1.44
 -13   1   1  121.66    2.73
 -13  -1  -1  113.53    2.65
 -13   1   1  108.79    2.58
  -1  -1 -13  119.91    1.19
 -13  -1  -1  124.86    2.76
  -1  13   1  116.06    1.93
   1  -1  13  116.26    1.84
   1  13  -1  117.61    2.10
  -1   1  13  117.19    1.44
   1 -13   1  118.93    2.16
  -1 -13  -1  119.71    1.96
 -13  -1   0  145.63    2.92
 -13   1   0  149.79    3.13
 -13  -1   0  141.01    2.90
  -1   0 -13  142.02    1.42
 -13   1   0  140.66    2.97
   0  13  -1  133.80    2.21
   1   0  13  142.21    1.90
   0  13   1  146.11    2.16
   1   0 -13  141.44    1.35
  -1   0  13  138.48    1.67
   0 -13  -1  142.21    2.16
   0 -13   1  142.49    2.30
  -1 -13   1  116.85    2.03
  -1   1 -13  121.27    1.44
 -13   1  -1  115.76    2.77
  -1  13  -1  116.97    2.03
   1   1  13  116.50    1.58
   1  13   1  113.92    1.94
  -1  -1  13  115.44    1.64
 -13  -1   1  109.69    2.55
 -13  -1   1  120.01    2.61
   1  -1 -13  120.45    1.11
 -13   1  -1  106.32    2.77
   1 -13  -1  117.06    1.98
  -2 -13   1   39.57    1.30
 -13  -1   2   40.67    1.60
  -1   2 -13   44.51    0.98
  -2  13  -1   41.58    1.33
 -13   1  -2   40.93    1.80
   1   2  13   42.61    0.89
   2  13   1   44.82    1.25
  -1  -2  13   46.77    1.15
   2 -13  -1   44.37    1.38
 -13  -1   3   68.86    2.06
   1   3  13   70.31    0.91
  -3  13  -1   67.87    1.59
  -1   3 -13   70.31    1.27
 -13  -1   3   67.80    1.95
   1  -3 -13   65.16    0.50
   3 -13  -1   68.74    1.71
  -1  -3  13   71.44    1.44
   3  13   1   69.87    1.55
 -13  -1   4  112.54    2.52
  -4  13  -1  116.76    2.08
 -13  -1   4  121.61    2.39
  -4 -13   1  116.63    2.03
  -1   4 -13  121.94    1.73
 -13   1  -4  114.49    2.70
   4 -13  -1  116.08    2.21
  -5  13  -1  110.52    2.07
 -13  -1   5  102.41    2.36
   5  13   1  109.38    1.95
  -1   5 -13  105.16    1.69
  -5 -13   1  113.14    2.05
   5 -13  -1  113.30    2.28
  -1  -5  13  114.58    1.95
 -13  -1   5  120.13    2.32
  -6  13  -1   21.72    1.04
 -13  -1   6   22.71    1.16
  -1   6 -13   26.06    0.95
   6  13   1   24.48    1.05
 -13   1  -6   23.44    1.39
  -6 -13   1   23.75    1.05
   6 -13  -1   27.78    1.30
 -13  -1   6   26.36    1.15
  -1  -6  13   26.30    1.09
 -13  -1   7   15.58    1.00
  -1   7 -13   18.28    0.92
 -13   1  -7   18.31    1.31
  -7 -13   1   18.19    1.01
   7  13   1   15.41    0.90
   7 -13  -1   17.21    1.08
 -13  -1   7   16.39    0.91
  -1  -7  13   18.81    0.95
  -7  13  -1   17.21    1.02
  13   1   8   53.71    1.85
  -1   8 -13   49.57    1.36
   8 -13  -1   49.72    1.69
 -13  -1   8   53.50    1.50
  -8 -13   1   49.40    1.45
   8  13   1   53.29    1.56
  -1  -8  13   50.01    1.49
  -8  13  -1   52.41    1.58
  13   1   9   63.57    1.96
 -13  -1   9   65.03    1.58
   9 -13  -1   64.47    1.98
  -1  -9  13   63.37    1.69
 -13  -1  10   16.13    0.99
 -13  -1  10   16.08    0.82
  10 -13  -1   15.66    1.09
  -1 -10  13   17.84    1.07
 -13  -1  11    2.90    0.58
  13   1  11    1.19    0.83
 -13  -1  11    1.31    0.55
 -13  -1  12    9.18    0.66
 -13  -1  12    9.03    0.77
  13   2 -12    3.13    0.65
 -13  -2 -12    3.17    0.58
 -13   2  11   42.76    1.35
 -13   2  11   51.22    1.23
  13   2 -11   46.57    1.47
 -13  -2 -11   47.40    1.62
 -13   2  10    3.04    0.73
  13   2 -10    0.52    0.69
 -13  -2 -10    0.94    0.66
 -13   2  10    0.91    0.49
 -10  13   2    2.72    0.68
 -13   2   9    1.09    0.55
 -13  -2  -9    1.34    0.84
  13  -2   9    1.96    0.77
 -13   2   9    0.54    0.63
 -13  -2  -9    0.84    0.77
  13   2  -9    0.90    0.78
   2   9 -13    1.16    0.62
  -9 -13  -2    0.81    0.57
   2  -9  13    0.95    0.81
  -9  13   2    2.77    0.71
 -13   2   8    4.06    0.67
 -13  -2  -8    3.01    0.88
  13  -2   8    3.09    0.93
 -13   2   8    3.71    0.72
 -13  -2  -8    2.80    0.75
   8 -13   2    4.57    0.89
   2   8 -13    4.49    0.67
  -8 -13  -2    1.53    0.57
   2  -8  13    2.56    0.79
  -8  13   2    1.29    0.69
  13  -2   7  136.80    2.94
 -13   2   7  135.55    2.62
 -13   2   7  133.75    2.32
  -7 -13  -2  129.84    2.09
   7 -13   2  131.33    2.75
   2   7 -13  131.15    1.98
   2  -7  13  126.80    2.44
 -13  -2  -7  142.02    2.85
  -7  13   2  127.96    2.11
  -6  13   2    8.88    0.74
   6  13  -2    8.10    0.73
 -13   2   6    9.42    0.92
 -13  -2  -6   10.14    1.14
 -13  -2  -6   10.82    1.13
  -6 -13  -2    8.68    0.71
   6 -13   2    6.30    1.02
   2   6 -13    7.34    0.67
   2  -6  13    8.32    0.89
  -2  -5 -13   32.90    0.37
  13  -2   5   31.31    1.61
 -13   2   5   30.03    1.39
 -13  -2  -5   31.37    1.54
  -5 -13  -2   31.27    1.07
  -2  -5 -13   30.62    0.37
   2   5 -13   31.10    0.96
   5 -13   2   32.83    1.50
   2  -5  13   29.52    1.27
 -13   2   5   33.44    1.40
 -13  -2  -5   33.52    1.61
 -13   2   4    0.63    0.62
   4  13  -2    1.29    0.64
  13  -2   4    0.49    0.92
 -13  -2  -4    0.22    0.86
 -13   2   4   -0.88    0.87
  -4 -13  -2    1.14    0.44
  -2  -4 -13    0.65    0.21
 -13  -2  -4    0.01    0.64
   2  -4  13   -0.79    0.63
   4 -13   2    1.99    0.81
   2   4 -13    0.41    0.42
  -2  -3 -13  183.19    1.25
  13  -2   3  181.46    3.26
  -3 -13  -2  187.30    2.34
  -3  13   2  187.52    2.39
 -13   2   3  189.37    3.30
 -13  -2  -3  203.13    3.42
  -2   3  13  176.70    1.03
   2  -3  13  179.81    2.58
   2   3 -13  190.81    1.97
   3 -13   2  187.69    2.93
 -13   2   3  194.28    3.30
   3  13  -2  183.18    2.61
  13  -2   2    6.50    0.85
 -13  -2  -2    9.85    1.10
  -2 -13  -2    8.87    0.75
 -13   2   2    4.23    1.04
  -2  13   2    7.95    0.72
   2  -2  13    6.88    0.73
 -13   2   2    9.63    1.16
  -2   2  13    8.04    0.38
   2  13  -2    5.46    0.70
   2   2 -13    8.21    0.53
   2 -13   2    8.59    0.96
  -1 -13  -2  124.09    1.92
 -13   2   1  121.98    2.77
  -1  13   2  130.23    2.01
   2  -1  13  123.40    2.00
   1  13  -2  121.62    2.15
  -2   1  13  123.26    1.37
 -13   2   1  118.47    2.78
 -13  -2  -1  123.66    2.66
   1 -13   2  118.27    2.21
   0 -13   2    1.98    0.59
 -13  -2   0    1.50    0.82
  13  -2   0    1.05    0.69
  -2   0 -13    2.26    0.38
 -13  -2   0    1.66    0.68
 -13   2   0    2.64    0.85
   2   0  13    1.10    0.52
   0  13  -2    2.33    0.65
   0  13   2    2.35    0.58
  -2   0  13    2.79    0.41
   0 -13  -2    2.37    0.53
   2   0 -13    3.03    0.34
  -1 -13   2  111.07    2.06
   2  -1 -13  122.47    1.10
  -2   1 -13  121.08    1.47
 -13  -2   1  117.87    2.58
 -13   2  -1  119.91    2.81
   2   1  13  130.26    1.81
  -1  13  -2  116.21    2.09
 -13  -2   1  122.23    2.53
   1  13   2  125.83    1.96
  -2  -1  13  125.34    1.60
   1 -13  -2  132.02    2.06
  -2 -13   2    8.79    0.76
 -13  -2   2    6.39    0.97
  -2   2 -13    8.49    0.57
   2   2  13    8.07    0.53
  -2  13  -2    7.94    0.75
 -13  -2   2    7.11    0.92
 -13   2  -2    6.48    1.14
   2 -13  -2    9.17    0.77
   2  13   2    7.54    0.66
  -2  -2  13    9.33    0.60
   3  13   2  196.82    2.50
   2  -3 -13  179.58    0.90
 -13  -2   3  184.19    3.17
 -13  -2   3  188.39    2.97
  -2   3 -13  188.51    2.07
  -3  13  -2  172.35    2.54
   3 -13  -2  183.66    2.57
  -2  -3  13  182.60    2.16
  -2  -4  13    0.20    0.51
 -13  -2   4    0.62    0.57
  -4  13  -2    1.81    0.70
 -13  -2   4    1.28    0.71
   4  13   2    1.99    0.62
  -4 -13   2    0.55    0.49
 -13   2  -4    0.54    0.78
   4 -13  -2    0.22    0.53
 -13  -2   5   27.84    1.39
  -5  13  -2   32.69    1.24
   5  13   2   31.90    1.13
  -5 -13   2   35.68    1.29
 -13   2  -5   34.17    1.58
   5 -13  -2   29.37    1.27
 -13  -2   5   33.36    1.37
  -2  -5  13   30.18    1.04
  -6  13  -2    7.69    0.83
 -13  -2   6    8.18    0.91
  -2   6 -13    8.26    0.65
  -6 -13   2    9.47    0.75
 -13   2  -6    7.15    1.11
   6  13   2    8.33    0.79
   6 -13  -2    7.28    0.78
 -13  -2   6    6.71    0.85
  -2  -6  13    6.28    0.73
  -2   7 -13  127.91    1.96
 -13   2  -7  134.98    2.93
  -7 -13   2  135.91    2.30
 -13  -2   7  141.98    2.40
   7  13   2  130.87    2.25
 -13  -2   7  115.71    2.34
  -2  -7  13  128.68    2.15
  -7  13  -2  126.04    2.28
   8  13   2    2.34    0.63
  -2  -8  13    1.07    0.69
  -2   8 -13    3.30    0.63
   8 -13  -2    2.64    0.70
 -13  -2   8    3.20    0.73
  -8 -13   2    4.24    0.64
  -2  -9  13    0.20    0.65
 -13  -2   9    1.56    0.65
   9 -13  -2    1.51    0.68
 -13  -2  10    1.20    0.59
  10 -13  -2    1.54    0.68
  11 -13  -2   47.44    1.69
 -13  -2  12    5.60    0.66
 -13  -3 -12   11.39    0.82
 -13   3  11    3.64    0.66
 -13  -3 -11    3.25    0.73
 -13   3  11    4.42    0.55
 -13  -3 -10   25.63    1.19
  13   3 -10   21.62    1.16
 -13   3  10   21.97    1.08
 -13  -3 -10   26.90    1.29
 -13   3  10   23.05    0.94
 -10 -13  -3   24.28    0.98
 -10  13   3   22.79    1.06
 -13   3   9   29.76    1.23
 -13  -3  -9   30.07    1.41
  13   3  -9   26.71    1.22
   3  -9  13   31.47    1.48
  -9 -13  -3   28.86    1.11
   3   9 -13   31.60    1.10
  -9  13   3   34.59    1.22
 -13  -3  -9   28.37    1.37
 -13   3   9   31.31    1.12
  13  -3   8   59.98    2.09
 -13   3   8   63.18    1.77
 -13   3   8   63.79    1.56
   8 -13   3   61.28    1.99
  -8 -13  -3   64.70    1.46
   3  -8  13   61.42    1.88
   3   8 -13   60.56    1.41
 -13  -3  -8   67.32    1.95
  13   3  -8   62.42    1.84
  -8  13   3   65.75    1.55
  13  -3   7   22.60    1.35
 -13   3   7   23.82    1.30
  13   3  -7   22.81    1.35
 -13  -3  -7   24.40    1.34
  -7 -13  -3   24.99    0.95
   7 -13   3   26.58    1.39
 -13  -3  -7   25.48    1.33
   3  -7  13   22.74    1.29
  -3  -7 -13   25.18    0.43
   3   7 -13   23.11    0.97
  -3  -7 -13   23.96    0.36
  -7  13   3   20.41    0.99
  13   3  -6   24.01    1.39
  -6  13   3   20.68    0.95
   6  13  -3   24.93    1.14
  13  -3   6   23.01    1.35
 -13  -3  -6   22.83    1.27
 -13   3   6   22.54    1.30
 -13  -3  -6   22.71    1.37
  -6 -13  -3   23.26    0.99
   6 -13   3   25.56    1.34
   3  -6  13   23.93    1.23
  -3  -6 -13   26.65    0.47
   3   6 -13   25.44    0.96
 -13   3   6   26.40    1.25
   5  13  -3   51.85    1.52
  -5  13   3   51.08    1.29
  -3  -5 -13   49.19    0.66
  13  -3   5   51.85    1.85
 -13  -3  -5   52.40    1.81
 -13  -3  -5   49.24    1.82
 -13   3   5   49.92    1.80
 -13   3   5   53.46    1.78
  -5 -13  -3   50.36    1.30
   3  -5  13   55.83    1.70
  13   3  -5   49.55    1.74
   5 -13   3   53.56    1.80
   3   5 -13   49.05    1.18
 -13  -3  -4  162.70    2.93
  -3  -4 -13  157.95    1.41
  13  -3   4  160.29    3.17
 -13  -3  -4  167.90    3.14
 -13   3   4  155.25    2.95
  -4 -13  -3  157.38    2.09
   3  -4  13  157.28    2.59
   4 -13   3  161.52    2.93
   3   4 -13  164.32    1.93
   4  13  -3  149.91    2.40
 -13   3   4  166.46    3.06
 -13   3   3   64.85    2.12
  13  -3   3   57.44    1.98
 -13  -3  -3   59.73    1.98
  -3 -13  -3   65.29    1.36
  -3  13   3   62.82    1.40
 -13   3   3   65.34    2.08
   3  -3  13   60.95    1.63
  -3   3  13   60.00    0.65
   3  13  -3   65.24    1.65
   3 -13   3   63.47    1.79
 -13  -3  -3   60.34    1.91
  -3  -3 -13   66.44    0.90
   3   3 -13   62.08    1.15
  13  -3   2   14.57    1.27
  -2 -13  -3   11.23    0.74
 -13   3   2    8.50    1.00
  -2  13   3   10.10    0.68
 -13  -3  -2    8.81    1.06
   2  13  -3   11.88    0.81
  -3   2  13   10.45    0.40
   2 -13   3    8.78    0.98
  -3  -2 -13   10.54    0.48
   3   2 -13   11.43    0.57
  -1 -13  -3   66.89    1.37
  13  -3   1   66.69    2.05
 -13   3   1   61.72    2.11
   3  -1  13   65.79    1.57
  -1  13   3   66.98    1.42
 -13  -3  -1   70.30    1.94
   1  13  -3   63.86    1.65
  -3   1  13   68.42    0.97
   1 -13   3   68.98    1.72
  -3  -1 -13   73.31    1.10
  13  -3   0  216.17    3.43
 -13  -3   0  219.77    3.52
   3   0 -13  201.25    1.61
 -13   3   0  199.22    3.49
 -13  -3   0  213.44    3.20
   3   0  13  205.19    2.46
   0  13  -3  197.99    2.71
   0  13   3  216.81    2.45
  -3   0  13  213.95    1.85
   0 -13  -3  213.88    2.41
   0 -13   3  212.65    2.93
  -3   0 -13  213.78    1.94
  -3   1 -13   71.51    1.23
  -1 -13   3   66.03    1.61
  13  -3  -1   68.04    2.01
 -13  -3   1   68.68    2.05
 -13  -3   1   77.39    2.01
   3   1  13   70.01    1.41
  -1  13  -3   64.28    1.61
   3  -1 -13   71.87    0.91
   1  13   3   67.17    1.42
   1 -13  -3   70.95    1.49
  -3  -1  13   67.04    1.15
 -13  -3   2   11.79    1.06
  -3   2 -13   11.03    0.63
 -13  -3   2    7.26    0.99
   3   2  13   11.08    0.62
  -2  13  -3    9.29    0.87
 -13   3  -2    8.36    1.17
   2 -13  -3   11.14    0.78
   2  13   3   11.62    0.77
  -3  -2  13   10.08    0.60
  -3  -3  13   58.49    1.23
  -3   3 -13   62.08    1.27
   3   3  13   61.75    1.09
  -3 -13   3   59.55    1.57
 -13   3  -3   67.25    2.21
   3 -13  -3   60.81    1.49
 -13  -3   3   64.56    1.79
  -3  -4  13  160.05    2.04
 -13  -3   4  154.84    2.84
  -4  13  -3  151.83    2.45
   4  13   3  154.86    2.16
  -4 -13   3  150.77    2.34
 -13   3  -4  155.79    3.19
   4 -13  -3  151.35    2.37
 -13  -3   4  161.29    2.73
  -3  -5  13   51.10    1.26
  -5  13  -3   48.17    1.44
  -3   5 -13   52.67    1.26
  -5 -13   3   49.12    1.48
   5  13   3   51.52    1.37
 -13   3  -5   49.76    2.02
   5 -13  -3   47.96    1.39
 -13  -3   5   47.91    1.49
  -3  -6  13   24.92    0.97
  -6  13  -3   22.89    1.16
  -3   6 -13   22.47    0.97
  -6 -13   3   24.70    1.06
 -13   3  -6   25.09    1.46
 -13  -3   6   25.96    1.19
   6 -13  -3   22.86    1.06
   6  13   3   21.29    1.02
  -3  -7  13   25.82    1.03
 -13  -3   7   25.27    1.17
  -7 -13   3   23.72    1.06
   7 -13  -3   26.09    1.19
   7  13   3   25.03    1.13
  -3  -8  13   62.28    1.56
 -13  -3   8   61.66    1.61
   8 -13  -3   65.03    1.76
   8  13   3   63.56    1.66
  -3  -9  13   29.39    1.15
 -13  -3   9   33.42    1.21
   9  13   3   33.78    1.33
   9 -13  -3   29.32    1.25
  11 -13  -3    3.23    0.78
 -13  -3  11    3.76    0.67
 -13  -3  12   15.46    0.84
 -13  -4 -12   19.96    1.02
 -13  -4 -11    5.61    0.74
 -11  13   4    5.17    0.72
 -13  -4 -10   28.64    1.19
 -13   4  10   28.44    1.20
 -13  -4 -10   28.05    1.28
 -10 -13  -4   33.48    1.13
 -10  13   4   30.14    1.12
 -13   4  10   31.81    1.07
 -13  -4  -9    0.29    0.68
 -13   4   9    0.50    0.64
 -13   4   9    0.84    0.54
   4  -9  13    1.53    0.81
  -9 -13  -4    0.77    0.59
  -9  13   4    1.28    0.51
 -13  -4  -8   27.71    1.32
 -13  -4  -8   29.02    1.43
 -13   4   8   24.77    1.20
 -13   4   8   30.20    1.19
   4  -8  13   28.91    1.46
  -8 -13  -4   29.42    1.07
  13   4  -8   32.10    1.45
   4   8 -13   27.14    1.06
  -8  13   4   29.23    1.10
  -4  -7 -13   13.46    0.37
  13  -4   7   12.93    1.13
 -13  -4  -7   14.79    1.18
 -13   4   7   12.23    1.04
  -4  -7 -13   14.81    0.48
   7 -13   4   15.87    1.27
  -7 -13  -4   14.29    0.85
   4  -7  13   10.72    1.01
 -13   4   7   11.54    0.92
   4   7 -13   12.97    0.81
 -13  -4  -7   15.58    1.14
  13   4  -7   13.52    1.14
  -7  13   4   11.65    0.76
  -6  13   4  107.61    1.78
  13  -4   6  109.19    2.71
 -13  -4  -6  109.18    2.45
  13   4  -6  109.23    2.51
 -13   4   6  110.53    2.44
 -13   4   6  115.41    2.38
  -6 -13  -4  113.31    1.79
   4  -6  13  106.82    2.35
  -4  -6 -13  114.26    1.21
   6 -13   4  111.67    2.66
  -4  -6 -13  111.65    1.03
 -13  -4  -6  102.85    2.30
   4   6 -13  108.64    1.73
   5  13  -4    2.24    0.71
  -5  13   4    2.68    0.52
 -13  -4  -5    3.31    0.71
 -13  -4  -5    1.15    0.75
  13  -4   5    1.29    0.73
  -5 -13  -4    2.08    0.50
  -4  -5 -13    2.70    0.31
   4  -5  13    2.65    0.69
  -4  -5 -13    2.56    0.34
   5 -13   4    0.70    0.84
  13   4  -5    1.86    0.83
 -13   4   5    1.98    0.67
   4   5 -13    2.82    0.49
 -13  -4  -4   19.30    1.31
  13  -4   4   19.29    1.31
  -4  13   4   19.66    0.82
  -4  -4 -13   17.19    0.62
  -4 -13  -4   19.38    0.84
 -13   4   4   18.08    1.29
 -13   4   4   19.15    1.27
   4  -4  13   15.57    1.08
  13   4  -4   19.03    1.31
  -4  -4 -13   17.44    0.58
   4 -13   4   18.40    1.24
   4  13  -4   18.23    1.06
  -4   3  13   16.03    0.44
 -13  -4  -3   15.51    1.08
  13  -4   3   14.74    1.30
  13   4  -3   13.17    1.22
  -3 -13  -4   15.54    0.76
  -3  13   4   15.99    0.78
 -13   4   3   13.92    1.19
   4  -3  13   12.32    0.93
 -13  -4  -3   17.68    1.14
   3  13  -4   15.86    1.04
  -4  -3 -13   15.83    0.59
   3 -13   4   14.25    0.99
  -4   3  13   15.34    0.37
 -13  -4  -2  209.29    3.41
  -2 -13  -4  206.41    2.20
  13  -4   2  194.98    3.38
   4   2 -13  202.13    1.89
 -13  -4  -2  214.60    3.20
 -13   4   2  214.66    3.62
  -2  13   4  212.84    2.32
   4  -2  13  218.87    2.98
   2  13  -4  198.27    2.77
  -4  -2 -13  212.85    1.92
   2 -13   4  209.11    3.12
  -4   2  13  208.62    1.46
  -4   1  13   10.17    0.45
  -1 -13  -4    9.47    0.66
 -13  -4  -1   11.50    1.10
  13  -4   1    9.49    1.02
 -13  -4  -1   11.13    0.89
   4   1 -13    9.87    0.51
 -13   4   1   10.43    1.18
   4  -1  13    9.09    0.81
   1  13  -4    8.55    0.75
  -1  13   4    8.69    0.66
   1 -13   4    9.43    0.91
 -13  -4   0    4.81    0.75
  -4   0  13    5.36    0.43
 -13  -4   0    8.65    0.96
  13  -4   0    6.89    0.93
   4   0  13    6.46    0.71
 -13   4   0    2.35    0.91
   0  13  -4    5.35    0.79
   4   0 -13    4.92    0.40
   0  13   4    3.43    0.55
  -4   0 -13    6.18    0.51
   0 -13  -4    3.50    0.56
   0 -13   4    6.24    0.71
  -1 -13   4    8.99    0.85
  13  -4  -1    9.27    0.93
   4   1  13    8.22    0.70
  -1  13  -4    8.49    0.87
 -13   4  -1    9.59    1.07
   1  13   4    9.03    0.65
 -13  -4   1   10.28    0.87
  -4   1 -13   10.27    0.64
   4  -1 -13   10.17    0.45
   2  13   4  216.86    2.43
 -13  -4   2  202.59    3.25
  13  -4  -2  216.68    3.33
  -2 -13   4  206.36    2.86
   4   2  13  220.50    2.37
  -2  13  -4  210.44    2.84
 -13   4  -2  195.76    3.55
   4  -2 -13  204.79    1.52
   2 -13  -4  208.15    2.42
 -13  -4   2  207.45    3.13
  -4   2 -13  215.78    2.28
   4   3  13   14.33    0.66
   3  13   4   14.09    0.78
  -3 -13   4   14.04    0.96
 -13   4  -3   17.38    1.35
 -13  -4   3   12.70    1.06
   3 -13  -4   16.17    0.87
  -4   4 -13   15.05    0.82
  -4  13  -4   15.86    1.00
  -4 -13   4   18.30    0.96
 -13   4  -4   14.81    1.33
 -13  -4   4   17.40    1.02
   4 -13  -4   16.06    0.91
  -4   5 -13    2.39    0.61
  -5 -13   4    2.59    0.73
 -13   4  -5    1.66    0.88
   5 -13  -4   -0.24    0.52
 -13  -4   5    3.16    0.79
  -5  13  -4    0.84    0.62
   5  13   4    1.77    0.62
  -4   6 -13  110.94    1.89
 -13  -4   6  111.56    2.14
  -6 -13   4  110.36    2.14
   6 -13  -4  113.26    2.04
   6  13   4  109.76    1.95
  -4  -7  13   11.49    0.74
 -13  -4   7   13.16    0.93
   7 -13  -4   12.82    0.86
   7  13   4   14.64    0.95
  -4  -8  13   27.90    1.12
   8  13   4   26.63    1.10
 -13  -4   8   29.63    1.21
   8 -13  -4   25.73    1.16
  -4  -9  13    0.10    0.56
   9 -13  -4   -0.91    0.69
 -13  -4  10   33.80    1.18
  10 -13  -4   27.81    1.20
  11 -13  -4    7.64    0.83
  12 -13  -4   17.59    1.01
 -13  -5 -12    4.72    0.63
 -13  -5 -11    0.92    0.53
 -11  13   5    1.39    0.53
 -13   5  10    5.31    0.61
 -13   5  10    3.40    0.64
 -10 -13  -5    4.92    0.66
 -10  13   5    4.23    0.66
 -13  -5  -9   67.74    1.89
 -13   5   9   60.37    1.61
 -13   5   9   67.21    1.54
 -13  -5  -9   63.05    1.63
  -9 -13  -5   63.79    1.39
  -9  13   5   65.27    1.46
   5   8 -13   23.88    0.97
 -13  -5  -8   24.24    1.28
 -13   5   8   22.18    1.12
   5  -8  13   24.90    1.40
  -8 -13  -5   23.25    0.92
 -13   5   8   24.41    1.09
  -8  13   5   22.66    0.92
  -7  13   5    7.23    0.62
 -13  -5  -7    7.36    0.97
 -13   5   7    7.95    0.95
 -13   5   7    6.45    0.87
  -5  -7 -13    7.22    0.37
  -5  -7 -13    8.40    0.49
   5  -7  13    6.49    0.91
 -13  -5  -7    9.75    0.94
  -7 -13  -5    8.31    0.63
  -6  13   5   15.52    0.78
 -13   5   6   15.42    1.10
 -13  -5  -6   16.82    1.20
  13  -5   6   13.53    1.15
 -13   5   6   16.59    1.17
 -13  -5  -6   16.95    1.04
  -6 -13  -5   13.90    0.76
  -5  -6 -13   16.47    0.61
   5  -6  13   14.80    1.06
   6 -13   5   15.70    1.33
  -5  -6 -13   16.08    0.53
   5   5 -13  117.26    1.72
  -5  13   5  118.18    1.74
 -13  -5  -5  114.30    2.47
  13  -5   5  113.80    2.72
 -13  -5  -5  114.94    2.28
  -5 -13  -5  118.26    1.73
   5  -5  13  120.63    2.51
  -5  -5 -13  113.62    1.40
  -5  -5 -13  117.41    1.36
   5 -13   5  116.11    2.66
  13   5  -5  116.91    2.55
  13   5  -4   39.16    1.66
   5   4 -13   38.33    1.00
  13  -5   4   40.08    1.74
  -4  13   5   43.97    1.08
 -13  -5  -4   39.67    1.45
  -4 -13  -5   40.96    1.06
 -13   5   4   41.31    1.66
  -5  -4 -13   39.81    0.95
   5  -4  13   40.24    1.48
  -5  -4 -13   41.33    0.95
   4 -13   5   41.91    1.70
   4  13  -5   37.43    1.30
  -5   3  13   53.39    0.86
 -13  -5  -3   50.11    1.75
 -13  -5  -3   53.84    1.70
  -5   3  13   51.68    0.68
  13  -5   3   51.97    2.02
  -3 -13  -5   50.86    1.12
   5   3 -13   49.39    1.07
  -3  13   5   51.49    1.16
 -13   5   3   50.08    1.86
   5  -3  13   53.42    1.71
   3  13  -5   49.86    1.46
   3 -13   5   53.96    1.77
  13   5  -3   47.81    1.87
 -13  -5  -2   43.05    1.54
 -13  -5  -2   43.96    1.66
  -2 -13  -5   41.30    0.99
  13  -5   2   42.94    1.69
   5   2 -13   38.99    0.93
 -13   5   2   38.34    1.73
   5  -2  13   46.02    1.53
  -2  13   5   42.27    1.06
   2  13  -5   41.85    1.42
  -5  -2 -13   40.18    0.99
  13   5  -2   42.81    1.87
   2 -13   5   39.43    1.45
  -1 -13  -5  111.84    1.55
 -13  -5  -1  105.11    2.38
  13  -5   1  104.95    2.56
  -5   1  13  114.95    1.26
 -13   5   1  107.20    2.57
   1  13  -5  104.00    2.09
   5   1 -13  108.80    1.40
  -1  13   5  108.23    1.59
  -5  -1 -13  118.65    1.66
   1 -13   5  118.07    2.35
 -13  -5  -1  111.31    2.30
 -13  -5   0   41.99    1.54
  -5   0  13   39.89    0.85
   5   0  13   39.91    1.31
 -13   5   0   37.49    1.74
   0  13  -5   34.98    1.35
   0  13   5   38.41    1.01
  -5   0 -13   41.60    1.07
 -13  -5   0   40.57    1.49
   0 -13  -5   36.74    0.99
   0 -13   5   40.24    1.46
  -1 -13   5  116.98    2.28
  13  -5  -1  110.82    2.53
  -5  -1  13  117.70    1.49
   5   1  13  111.17    1.92
  -1  13  -5  103.35    2.07
 -13   5  -1  110.92    2.72
   5  -1 -13  113.56    1.29
 -13  -5   1  105.48    2.23
   1 -13  -5  111.81    1.65
  -5   1 -13  116.50    1.76
   1  13   5  109.43    1.62
  -2 -13   5   39.33    1.41
  13  -5  -2   38.76    1.50
   5   2  13   42.62    1.17
  -2  13  -5   39.01    1.38
 -13   5  -2   38.03    1.79
 -13  -5   2   39.51    1.43
   5  -2 -13   42.50    0.81
   2 -13  -5   38.95    1.08
  13  -5  -3   47.21    1.64
   5   3  13   53.33    1.20
  -3 -13   5   49.60    1.48
  -3  13  -5   49.11    1.52
   3  13   5   46.54    1.17
 -13   5  -3   51.20    1.92
 -13  -5   3   50.25    1.55
   3 -13  -5   46.04    1.19
  -5   3 -13   52.34    1.29
  13  -5  -4   39.85    1.53
  -4  13  -5   36.32    1.27
 -13  -5   4   42.36    1.48
   4  13   5   37.27    1.09
 -13   5  -4   37.16    1.63
   4 -13  -5   35.17    1.11
  -5   4 -13   41.60    1.21
  -5 -13   5  113.44    2.17
   5 -13  -5  114.61    1.92
   5  13   5  112.35    1.83
  -5   5 -13  119.23    1.97
  -5  -6  13   17.71    0.88
 -13  -5   6   17.63    0.96
   6 -13  -5   15.40    0.88
   6  13   5   14.04    0.86
  -5   7 -13    6.93    0.65
   7  13   5    7.59    0.75
 -13  -5   7    9.07    0.91
  -5  -7  13    8.11    0.64
   7 -13  -5    8.46    0.75
  -5  -8  13   21.73    0.96
   8  13   5   20.39    0.98
   8 -13  -5   23.37    1.01
  -5  -9  13   62.13    1.55
   9 -13  -5   64.97    1.61
  11 -13  -5    0.24    0.60
  12 -13  -5    5.92    0.76
 -13  -6 -12    4.61    0.54
 -13  -6 -11   30.38    1.08
 -11  13   6   26.50    1.04
 -13  -6 -10    4.95    0.61
 -10 -13  -6    5.52    0.54
 -13   6   9    0.76    0.53
 -13  -6  -9    1.49    0.67
 -13  -6  -9    2.98    0.58
 -13   6   9    1.99    0.64
  -9 -13  -6    3.56    0.54
  -9  13   6    1.87    0.51
   6   8 -13    6.59    0.64
 -13  -6  -8    7.56    0.90
 -13   6   8    5.39    0.73
 -13  -6  -8    5.95    0.65
 -13   6   8    7.14    0.79
   6  -8  13    6.82    0.88
  -8 -13  -6    8.94    0.65
  -8  13   6    6.18    0.60
  -7  13   6   66.52    1.32
 -13   6   7   71.40    1.83
   6   7 -13   70.54    1.51
 -13  -6  -7   74.74    2.00
 -13  -6  -7   70.43    1.72
 -13   6   7   65.37    1.81
   6  -7  13   62.22    2.01
  -6  -7 -13   72.43    1.01
  -7 -13  -6   65.12    1.32
  -6  -6 -13   17.79    0.60
 -13  -6  -6   17.89    1.04
 -13  -6  -6   15.37    1.12
   6   6 -13   15.20    0.74
 -13   6   6   13.66    1.04
   6  -6  13   16.64    1.17
  -6 -13  -6   17.90    0.76
 -13   6   6   14.42    1.16
 -13  -6  -5   24.07    1.11
   6   5 -13   20.26    0.81
 -13   6   5   20.36    1.16
  -5 -13  -6   22.78    0.82
   6  -5  13   23.50    1.34
  -6  -5 -13   21.31    0.75
   5 -13   6   21.63    1.37
  -6  -5 -13   22.51    0.74
 -13  -6  -4    2.14    0.83
  13  -6   4    2.54    1.01
  -4  13   6    3.75    0.49
  -4 -13  -6    3.75    0.49
   6   4 -13    3.89    0.54
 -13   6   4    5.30    0.88
   6  -4  13    3.61    0.85
  -6  -4 -13    4.05    0.48
  -6  -4 -13    1.89    0.46
   4 -13   6    1.88    0.90
 -13  -6  -4    5.56    0.81
 -13  -6  -3   94.08    2.22
  -6   3  13   93.11    1.23
  -3 -13  -6   93.52    1.40
  13  -6   3   86.55    2.45
  -6   3  13   90.94    0.98
   6  -3  13   93.69    2.21
  -3  13   6   95.36    1.43
 -13   6   3   89.06    2.28
  -6  -3 -13   98.59    1.55
 -13  -6  -3   96.93    2.16
  -2 -13  -6   32.72    0.86
  13  -6   2   33.55    1.57
  13   6  -2   32.73    1.67
  -6   2  13   34.43    0.70
   6  -2  13   32.94    1.42
 -13   6   2   29.15    1.45
  -2  13   6   33.87    0.90
   2  13  -6   34.44    1.33
   6   2 -13   32.99    0.89
  -6  -2 -13   33.81    0.99
 -13  -6  -2   35.79    1.41
   2 -13   6   31.85    1.47
  -1 -13  -6   69.16    1.19
  13   6  -1   67.04    2.18
 -13  -6  -1   66.44    1.94
  13  -6   1   67.62    2.12
   6  -1  13   67.10    1.73
  -6   1  13   65.65    1.01
 -13   6   1   62.21    2.06
   1  13  -6   65.20    1.72
  -1  13   6   63.83    1.18
 -13  -6  -1   61.67    1.73
  -6  -1 -13   72.43    1.42
   1 -13   6   69.21    1.90
   6   1 -13   64.49    1.17
   6   0  13    1.29    0.65
  -6   0  13   -0.28    0.35
 -13   6   0   -0.66    0.94
   0  13  -6    0.06    0.68
   6   0 -13    0.30    0.34
  -6   0 -13    0.69    0.47
   0 -13  -6   -0.25    0.39
   0  13   6    0.07    0.39
  -1 -13   6   65.53    1.78
  13  -6  -1   70.74    2.10
   6   1  13   68.09    1.58
  -6  -1  13   67.33    1.19
  -1  13  -6   69.26    1.74
 -13   6  -1   63.02    2.07
 -13  -6   1   69.81    1.88
   1 -13  -6   63.12    1.21
   6  -1 -13   64.75    1.11
  -2 -13   6   34.89    1.38
  13  -6  -2   35.56    1.45
   6   2  13   33.84    1.12
   6  -2 -13   31.47    0.80
   2  13   6   30.69    0.89
  -2  13  -6   33.14    1.32
  -6  -2  13   33.19    0.92
 -13  -6   2   34.28    1.39
 -13   6  -2   30.37    1.62
   2 -13  -6   30.85    0.93
  -6   2 -13   34.31    1.12
   6   3  13   96.63    1.65
  13  -6  -3   89.69    2.19
  -3 -13   6   83.11    1.86
  -6  -3  13   94.55    1.53
 -13  -6   3   97.20    2.10
   3  13   6   91.10    1.49
   3 -13  -6   87.89    1.52
  13  -6  -4    2.83    0.72
  -6  -4  13    3.33    0.51
 -13  -6   4    4.31    0.82
   4 -13  -6    3.06    0.53
   4  13   6    3.11    0.53
 -13  -6   5   21.66    1.10
  -6  -5  13   21.52    0.88
   5 -13  -6   19.76    0.88
   5  13   6   19.77    0.88
  -6   5 -13   18.09    0.98
   6  13   6   15.53    0.81
 -13  -6   6   16.14    0.95
  -6  -6  13   15.19    0.80
   6 -13  -6   14.02    0.79
  -6   6 -13   15.80    0.95
  -6  -7  13   75.09    1.62
   7  13   6   64.77    1.50
   7 -13  -6   65.42    1.48
  -6   7 -13   72.02    1.68
   9  13   6    2.09    0.54
   9 -13  -6    0.55    0.52
  10 -13  -6    3.81    0.65
  11 -13  -6   31.33    1.16
  12 -13  -6    4.24    0.64
 -13  -7 -12   10.56    0.66
 -13  -7 -11    1.82    0.50
 -13  -7 -10   21.31    0.92
 -10 -13  -7   18.02    0.83
 -13  -7  -9    6.11    0.69
 -13   7   9    4.70    0.69
 -13   7   9    5.98    0.76
  -9 -13  -7    5.77    0.52
 -13   7   8   45.27    1.50
  -8 -13  -7   47.72    1.13
 -13   7   8   49.37    1.51
 -13  -7  -8   49.34    1.41
  -8  13   7   47.36    1.12
  -7  13   7   11.88    0.65
 -13  -7  -7   12.83    0.98
  -7  -7 -13   14.08    0.67
 -13   7   7   11.52    0.99
 -13   7   7   12.43    1.01
   7  -7  13   12.40    1.22
  -7 -13  -7   12.84    0.67
  -7  -7 -13   11.91    0.54
 -13  -7  -7   10.88    0.77
  -6  13   7   17.53    0.69
  -7  -6 -13   18.82    0.67
  -7  -6 -13   17.92    0.76
 -13   7   6   16.95    1.08
   7  -6  13   18.06    1.32
  -6 -13  -7   19.63    0.75
 -13  -7  -5    7.56    0.86
  -5  13   7    8.27    0.52
  -5 -13  -7    8.19    0.55
   7  -5  13    7.61    0.93
   7   5 -13    7.11    0.66
 -13   7   5    8.35    0.94
  -7  -5 -13    8.74    0.61
 -13  -7  -5    5.76    0.71
  -7  -5 -13    7.67    0.55
 -13  -7  -4  112.73    2.39
  -4 -13  -7  119.00    1.51
  -4  13   7  121.88    1.51
  -7  -4 -13  113.77    1.69
   7  -4  13  120.21    2.52
 -13   7   4  112.07    2.50
  -7  -4 -13  116.64    1.73
   7   4 -13  112.14    1.71
 -13  -7  -4  123.66    2.31
  -7   3  13   24.35    0.76
  13  -7   3   22.31    1.37
   7  -3  13   26.50    1.37
  -3  13   7   24.85    0.75
 -13   7   3   23.34    1.36
  -7  -3 -13   26.00    0.92
 -13  -7  -3   25.10    1.23
   7   3 -13   23.75    0.86
   3 -13   7   24.68    1.28
  -7   2  13    5.25    0.51
  13  -7   2    4.76    1.02
   7  -2  13    5.39    0.81
 -13   7   2    4.82    0.94
  -7   2  13    4.99    0.40
  -7  -2 -13    3.05    0.56
  -2  13   7    4.04    0.46
 -13  -7  -2    2.28    0.61
   2 -13   7    2.55    0.69
   7   2 -13    4.97    0.51
  13  -7   1   19.27    1.21
   7   1 -13   17.36    0.70
   7  -1  13   15.67    1.09
  -7   1  13   17.87    0.61
 -13   7   1   18.84    1.33
 -13  -7  -1   15.45    1.08
  -7  -1 -13   16.34    0.85
  -1  13   7   18.64    0.66
   1 -13   7   17.98    1.06
  -1 -13  -7   18.19    0.64
  13  -7   0  154.08    3.05
   7   0  13  169.58    2.63
 -13  -7   0  167.69    2.70
  -7   0  13  166.32    1.77
 -13   7   0  144.47    3.00
   7   0 -13  157.87    1.80
   0 -13  -7  157.09    1.68
   0 -13   7  150.56    2.64
   0  13   7  161.29    1.74
   1  13   7   16.99    0.66
  13  -7  -1   20.82    1.30
   7   1  13   17.92    0.97
 -13  -7   1   17.86    0.98
  -7  -1  13   18.62    0.72
 -13   7  -1   17.52    1.29
   7  -1 -13   18.88    0.72
  -7   1 -13   17.92    0.91
   1 -13  -7   17.39    0.66
  -1 -13   7   19.08    1.15
  -2 -13   7    4.43    0.78
   7   2  13    3.10    0.60
  13  -7  -2    4.78    0.75
   2  13   7    3.37    0.45
  -7  -2  13    4.83    0.52
   2 -13  -7    3.30    0.46
  -7   2 -13    6.31    0.71
 -13  -7   3   24.06    1.15
  -7  -3  13   23.98    0.88
   3  13   7   22.36    0.81
   3 -13  -7   22.62    0.80
  -7   3 -13   25.23    1.05
  13  -7  -4  112.81    2.31
  -7  -4  13  112.18    1.75
   4 -13  -7  109.79    1.63
   4  13   7  109.57    1.66
   5  13   7    8.08    0.62
  13  -7  -5    8.17    0.81
  -7  -5  13    7.56    0.67
   5 -13  -7    8.79    0.64
  13  -7  -6   19.02    1.02
   6  13   7   16.68    0.81
   6 -13  -7   16.77    0.81
  -7   6 -13   17.32    0.97
  -7  -7  13   13.01    0.81
   7 -13  -7   11.87    0.76
   8 -13  -7   42.16    1.17
   8  13   7   42.39    1.32
   9 -13  -7    5.47    0.64
   9  13   7    3.07    0.68
  10 -13  -7   17.95    0.89
  10  13   7   17.33    1.01
  11 -13  -7    1.06    0.58
 -13  -8 -11    6.65    0.61
 -11 -13  -8    7.17    0.56
 -13  -8 -10   13.66    0.78
 -10 -13  -8   12.48    0.66
 -13  -8  -9    1.78    0.56
  -9 -13  -8    1.03    0.42
 -13   8   8    8.96    0.89
 -13   8   8    8.63    0.83
  -8 -13  -8   10.40    0.61
 -13  -8  -8    9.27    0.78
  -8  -7 -13   18.50    0.77
   8   7 -13   16.49    0.90
  -7 -13  -8   17.87    0.70
 -13  -8  -7   19.53    0.96
  -8  -7 -13   17.92    0.67
  -8  -6 -13   45.34    1.00
   8  -6  13   43.01    1.72
  -8  -6 -13   41.36    1.09
  -6 -13  -8   45.11    1.00
   8   6 -13   43.73    1.22
 -13  -8  -6   43.52    1.30
  -5 -13  -8    6.05    0.48
   8  -5  13    3.03    0.88
  -8  -5 -13    7.12    0.61
 -13  -8  -5    4.71    0.66
   8   5 -13    4.76    0.56
  -8  -5 -13    5.54    0.54
  -8  -4 -13    7.52    0.62
  -4 -13  -8    6.00    0.46
 -13   8   4    6.90    0.86
 -13  -8  -4    6.63    0.77
   8   4 -13    5.40    0.62
   8  -3  13   26.34    1.34
 -13  -8  -3   24.64    1.21
 -13   8   3   27.88    1.41
  -3  13   8   25.55    0.69
   8   3 -13   26.59    0.92
  -8   2  13   74.70    1.33
  -2 -13  -8   75.88    1.10
   8   2 -13   75.95    1.39
  13  -8   2   76.54    2.24
 -13  -8  -2   76.95    1.86
 -13   8   2   77.37    2.18
  -8   2  13   81.46    1.17
  -2  13   8   76.85    1.10
  13  -8   1   20.99    1.43
   8  -1  13   18.97    1.14
 -13  -8  -1   18.76    1.05
 -13   8   1   15.96    1.25
  -8  -1 -13   14.51    0.89
  -8   1  13   19.03    0.67
  -1  13   8   17.17    0.58
  -1 -13  -8   15.46    0.57
   0  13   8    3.95    0.42
   8   0 -13    4.56    0.52
   8   0  13    5.14    0.79
  13  -8   0    4.63    0.92
  -8   0  13    4.02    0.48
   0 -13  -8    4.81    0.41
   8   1  13   18.10    1.02
  13  -8  -1   19.00    1.18
   1  13   8   18.30    0.64
  -8  -1  13   17.54    0.72
  -8   1 -13   15.01    0.93
   1 -13  -8   17.10    0.62
   8  -1 -13   16.76    0.74
   8   2  13   76.49    1.71
  13  -8  -2   78.00    2.11
  -8  -2  13   79.72    1.41
   2  13   8   74.69    1.21
   2 -13  -8   73.55    1.20
  -8   2 -13   76.60    1.73
   8   3  13   25.63    1.04
  13  -8  -3   24.54    1.28
   3 -13  -8   24.86    0.77
  -8   3 -13   25.81    1.08
   3  13   8   22.53    0.78
   4  13   8    7.84    0.57
  -8  -4  13    7.16    0.62
   4 -13  -8    5.57    0.51
  -8   4 -13    6.17    0.78
  -8  -5  13    5.59    0.66
   5  13   8    5.64    0.54
   5 -13  -8    4.88    0.51
  -8   5 -13    5.56    0.67
  13  -8  -6   41.71    1.34
  -8  -6  13   43.49    1.23
   6  13   8   41.10    1.14
   7  13   8   15.79    0.84
  13  -8  -7   16.57    0.93
  -8  -7  13   17.55    0.94
   8 -13  -8   10.96    0.72
   8  13   8    9.63    0.75
   9  13   8    2.12    0.58
  10  13   8   12.47    0.88
 -11 -13  -9    0.12    0.36
 -10 -13  -9    1.00    0.41
  -9 -13  -9   36.06    0.94
 -13   9   8    3.89    0.69
  -8 -13  -9    3.87    0.46
  -7 -13  -9    6.40    0.49
  -9  -7 -13    7.39    0.54
  -9  -6 -13    3.35    0.56
  -9  -6 -13    5.51    0.52
  -6 -13  -9    2.86    0.39
 -13   9   6    3.41    0.73
   9   6 -13    5.19    0.68
  -5 -13  -9   63.72    1.05
  -9  -5 -13   66.09    1.49
 -13   9   5   64.33    1.77
   9   5 -13   65.26    1.44
  -9  -5 -13   64.88    1.34
   9   4 -13    4.84    0.60
  -9  -4 -13    2.75    0.54
  -4 -13  -9    4.31    0.39
  -9  -4 -13    3.09    0.56
 -13   9   4    5.02    0.85
  -3 -13  -9   31.76    0.73
   9   3 -13   30.29    0.97
   9  -3  13   28.46    1.35
  -9  -3 -13   28.64    1.06
 -13   9   3   32.54    1.41
  -2 -13  -9   12.09    0.48
  -9   2  13   11.66    0.70
   9  -2  13   14.12    1.14
  -9  -2 -13   12.67    0.81
 -13   9   2   10.07    1.09
   9   1 -13   60.40    1.31
   9  -1  13   59.16    1.78
  -9  -1 -13   66.71    1.57
  -9   1  13   66.03    1.16
  -1 -13  -9   61.37    0.93
   9   0 -13    1.65    0.49
   9   0  13    0.71    0.64
  -9   0 -13    0.83    0.59
  -9   0  13    1.92    0.45
   0 -13  -9    1.77    0.35
  -9  -1  13   65.62    1.27
  -9   1 -13   66.48    1.63
   1 -13  -9   63.10    1.00
   9   2  13   11.63    0.87
  13  -9  -2   14.40    1.18
   2 -13  -9   10.48    0.51
  -9  -2  13   13.53    0.71
  13  -9  -3   29.68    1.30
  -9  -3  13   29.50    0.95
  -9   3 -13   32.45    1.26
  13  -9  -4    4.42    0.81
   4 -13  -9    4.31    0.47
  -9  -4  13    3.65    0.58
  -9   4 -13    5.69    0.73
  -9  -5  13   65.16    1.48
  13  -9  -6    4.62    0.74
  -9  -6  13    3.66    0.60
  13  -9  -7    4.76    0.65
  -9  -7  13    3.96    0.65
 -10  -7 -13   22.76    0.79
 -13  10   7   18.10    0.96
 -10  -6 -13   18.41    0.86
 -10  -6 -13   17.06    0.74
  10   5 -13    5.28    0.64
 -10  -5 -13    6.31    0.66
 -13  10   5    3.97    0.78
 -10  -5 -13    5.97    0.61
  10  -4  13    3.14    0.84
 -10  -4 -13    3.61    0.59
 -13  10   4    1.65    0.80
 -10  -4 -13    3.04    0.56
  10  -3  13   24.36    1.28
 -10  -3 -13   22.84    1.01
 -10  -3 -13   25.01    1.06
 -10  -2 -13   29.66    1.13
  10   2 -13   30.74    1.03
  10   1 -13   17.67    0.84
 -10  -1 -13   17.98    0.98
  10   0 -13    4.01    0.59
  10   0  13    4.24    0.76
 -10   0  13    5.13    0.52
  10   1  13   15.78    1.04
  13 -10  -1   19.76    1.33
 -10   1 -13   17.46    1.06
 -10  -1  13   19.26    0.80
  13 -10  -2   29.72    1.43
 -10  -2  13   31.58    0.99
  13 -10  -3   22.16    1.28
 -10  -3  13   23.56    0.89
 -10   3 -13   20.54    1.03
  13 -10  -4    4.88    0.70
 -10  -4  13    5.89    0.64
  13 -10  -5    7.71    0.79
 -10  -5  13    7.01    0.71
  13 -10  -6   15.63    0.91
 -10  -6  13   17.42    0.92
  13 -10  -7   21.10    0.96
 -11  -7 -13    1.58    0.46
 -11  -6 -13    9.62    0.70
 -11  -6 -13    9.89    0.65
 -13  11   6    9.05    0.86
 -11  -5 -13    1.07    0.50
 -11  -5 -13    1.40    0.53
 -13  11   5    1.25    0.69
 -11  -4 -13   45.13    1.33
 -11  -4 -13   53.38    1.39
 -11  -3 -13    2.04    0.59
  11   3 -13    1.93    0.54
  11  -2  13    4.27    0.75
  11   2 -13    5.73    0.65
  11  -1  13    2.26    0.80
  11   1 -13    0.81    0.51
 -11  -1 -13    2.89    0.60
  11   0  13   64.63    1.84
 -11   0 -13   64.03    1.65
 -11   0  13   67.98    1.31
 -11   1 -13    0.75    0.70
 -11  -1  13    0.89    0.42
 -11  -2  13    5.53    0.55
  13 -11  -3    6.17    0.91
 -11  -3  13    2.82    0.54
  13 -11  -4   49.13    1.57
 -11  -4  13   51.41    1.30
  13 -11  -5    1.69    0.68
 -11  -5  13    0.97    0.48
  13 -11  -6   11.11    0.85
  13 -11  -7    1.19    0.59
 -12  -7 -13   12.44    0.67
 -12  -6 -13    8.08    0.70
 -12  -6 -13    9.88    0.66
 -12  -5 -13    4.81    0.60
 -12  -5 -13    6.34    0.62
 -12  -4 -13    1.54    0.56
 -12  -4 -13    2.05    0.50
  12   3 -13   13.57    0.84
 -12  -3 -13   12.27    0.80
 -12  -3 -13   15.21    0.88
  12   2 -13   12.39    0.81
  12   0  13    2.62    0.77
  12   1  13   11.90    0.97
 -12  -1  13   12.46    0.73
  12   2  13   14.23    1.01
 -12  -2  13   12.88    0.73
 -12  -3  13   14.13    0.76
 -12  -4  13    1.20    0.43
  13 -12  -5    7.39    0.81
  13 -12  -6    9.59    0.77
  13 -12  -7   10.20    0.78
 -13  -6 -13    1.62    0.46
 -13  -5 -13   21.50    0.93
 -13  -1  13   17.97    0.92
 -13  -2  13    0.43    0.49
 -13  -3  13   11.51    0.69
  13 -13  -6   -0.83    0.54
 -14   0   0  229.15    3.74
   0   0 -14  245.22    1.78
   0  14   0  235.14    2.83
 -14   0   0  249.67    3.90
   0   0  14  227.09    2.24
   0 -14   0  224.02    2.79
  -1 -14   0   45.13    1.33
 -14   0   1   51.56    1.92
 -14   0   1   46.01    1.74
 -14   0  -1   53.26    1.99
  -1  14   0   46.85    1.38
   0   1 -14   50.46    0.93
   0   1  14   49.51    1.01
   0  -1 -14   49.72    0.75
   0  -1  14   45.48    1.15
   1  14   0   45.53    1.37
   1 -14   0   48.94    1.45
 -14   0  -1   48.38    1.99
 -14   0   2    9.38    1.16
 -14   0  -2    7.30    1.19
  -2  14   0    8.94    0.71
   0   2  14    8.47    0.45
   0   2 -14    7.85    0.52
 -14   0  -2    9.66    1.19
   0  -2  14    7.09    0.64
   0  -2 -14    7.24    0.30
   2  14   0    8.29    0.73
   2 -14   0   10.22    0.90
 -14   0   2    6.78    0.96
  -3 -14   0   90.87    1.82
 -14   0   3   83.32    2.29
   0   3  14   92.80    0.91
  -3  14   0   82.61    1.75
 -14   0  -3   89.56    2.48
 -14   0  -3   95.37    2.53
   0   3 -14   88.62    1.38
 -14   0   3   92.69    2.29
   0  -3  14   87.79    1.69
   3 -14   0   87.61    1.96
   3  14   0   85.29    1.80
   0  -3 -14   86.76    0.65
   4  14   0  155.28    2.39
 -14   0   4  148.93    2.94
  -4 -14   0  153.91    2.27
 -14   0   4  157.19    2.77
   4 -14   0  154.92    2.65
   0  -4  14  154.42    2.25
 -14   0  -4  153.32    3.23
   5  14   0    6.18    0.76
  -5  14   0    5.36    0.73
 -14   0   5    4.78    0.77
 -14   0   5    5.89    0.87
  -5 -14   0    3.52    0.56
   0   5 -14    4.41    0.56
   5 -14   0    3.38    0.84
   0  -5  14    4.21    0.68
 -14   0   6   37.57    1.44
  14   0   6   37.45    1.59
  -6  14   0   35.35    1.21
 -14   0   6   37.41    1.51
   6  14   0   36.59    1.31
  -6 -14   0   34.92    1.24
   0   6 -14   34.75    1.06
   6 -14   0   34.31    1.44
   0  -6  14   32.58    1.19
  -7  14   0   55.85    1.54
   0   7 -14   53.93    1.34
  -7 -14   0   59.06    1.57
   7 -14   0   57.62    1.76
   0  -7  14   57.74    1.56
 -14   0   7   57.54    1.66
 -14   0   8   40.46    1.45
   0   8 -14   43.84    1.23
 -14   0   8   39.71    1.34
   0  -8  14   44.21    1.46
 -14   0   9    2.50    0.69
   9 -14   0    1.46    0.73
 -14   0   9    1.73    0.61
   0  -9  14    2.88    0.65
 -14   0  10   27.75    1.22
 -14   0  10   27.08    1.01
 -14   0  11   13.88    0.92
 -14   0  11   16.42    0.84
 -14   0  12    4.38    0.57
 -14   0  12    4.53    0.63
 -14   1  12    7.87    0.71
 -14   1  11   14.06    0.91
 -14   1  11   20.33    0.88
 -14   1  10   11.80    0.92
 -14   1  10   11.04    0.79
 -14   1   9    5.28    0.80
 -14   1   9    6.07    0.72
   1  -9  14    5.92    0.72
 -14   1   8   10.95    0.89
   8 -14   1   11.77    1.04
   1   8 -14   10.90    0.75
   1  -8  14   11.73    0.98
 -14   1   8   11.30    0.93
  -8  14   1   11.79    0.90
  -7  14   1   31.65    1.16
 -14   1   7   35.06    1.31
 -14   1   7   31.62    1.39
  -7 -14  -1   36.01    1.24
   1   7 -14   33.75    1.07
   7 -14   1   33.19    1.41
 -14  -1  -7   34.77    1.64
   1  -7  14   29.75    1.30
  -6  14   1   29.91    1.17
  14  -1   6   33.11    1.59
 -14   1   6   32.33    1.42
 -14   1   6   33.20    1.30
  -6 -14  -1   32.86    1.17
   1   6 -14   33.42    1.05
   6 -14   1   31.43    1.47
 -14  -1  -6   34.73    1.67
   1  -6  14   31.32    1.26
  14  -1   5   15.82    1.19
  -5  14   1   17.41    0.90
 -14   1   5   13.87    1.03
 -14   1   5   18.39    1.10
   1   5 -14   18.06    0.81
   5 -14   1   14.94    1.18
   1  -5  14   16.35    0.98
 -14  -1  -5   16.39    1.19
 -14   1   4    8.18    1.09
  -4 -14  -1   10.67    0.75
 -14  -1  -4    7.86    1.18
 -14  -1  -4    9.14    1.13
   1  -4  14    8.23    0.80
 -14   1   4    8.94    1.06
   4 -14   1   10.13    0.90
  -1  -4 -14   10.17    0.19
  -1  -4 -14    9.56    0.21
   4  14  -1   12.46    0.80
 -14   1   3   35.05    1.57
  14  -1   3   35.53    1.66
 -14   1   3   34.96    1.64
 -14  -1  -3   39.78    1.73
  -3  14   1   35.90    1.22
   1   3 -14   41.15    0.97
   1  -3  14   38.61    1.24
   3 -14   1   38.53    1.47
   3  14  -1   37.10    1.25
 -14  -1  -3   38.11    1.72
 -14  -1  -2   50.67    1.83
 -14   1   2   46.28    1.78
  -2  14   1   50.58    1.33
  -1  -2 -14   50.20    0.69
 -14   1   2   55.08    1.96
  -1   2  14   49.04    0.83
 -14  -1  -2   51.87    1.98
   1  -2  14   47.66    1.29
   1   2 -14   43.20    0.92
   2  14  -1   47.85    1.43
   2 -14   1   52.29    1.51
  -1 -14  -1   32.16    1.10
 -14  -1  -1   28.37    1.44
 -14   1   1   32.81    1.61
 -14  -1  -1   34.55    1.57
  -1  -1 -14   32.86    0.65
  -1  14   1   34.20    1.20
   1  -1  14   36.03    1.07
  -1   1  14   31.72    0.80
   1  14  -1   29.82    1.15
   1   1 -14   36.70    0.79
 -14   1   1   32.00    1.52
   1 -14   1   31.98    1.27
 -14  -1   0    6.56    0.89
 -14  -1   0    6.23    0.96
 -14   1   0    6.25    1.20
  -1   0 -14    6.35    0.43
 -14   1   0    6.84    0.99
   0  14  -1    6.52    0.74
   0  14   1    5.84    0.69
  -1   0  14    7.49    0.55
   1   0 -14    8.69    0.42
   0 -14  -1    6.81    0.62
   0 -14   1    6.60    0.69
  -1 -14   1   29.33    1.19
 -14  -1   1   29.12    1.55
 -14   1  -1   32.32    1.72
  -1   1 -14   35.09    0.81
   1   1  14   33.62    0.92
  -1  14  -1   28.56    1.18
 -14   1  -1   35.29    1.67
   1  14   1   30.24    1.11
  -1  -1  14   30.48    0.92
 -14  -1   1   31.29    1.46
   1  -1 -14   33.82    0.62
   1 -14  -1   35.39    1.18
 -14  -1   2   51.02    1.90
  -1   2 -14   50.48    1.01
 -14   1  -2   47.61    1.93
  -2  14  -1   47.75    1.40
 -14   1  -2   53.02    2.02
  -1  -2  14   47.30    1.16
   2  14   1   48.31    1.36
   2 -14  -1   47.81    1.40
 -14  -1   3   39.46    1.58
   1   3  14   43.17    0.72
  -3 -14   1   40.84    1.30
  -3  14  -1   39.60    1.28
  -1   3 -14   43.49    1.01
 -14   1  -3   38.20    1.76
 -14  -1   3   39.96    1.53
   1  -3 -14   39.46    0.40
   3 -14  -1   41.38    1.38
  -1  -3  14   38.74    1.13
   3  14   1   41.83    1.24
 -14  -1   4   11.17    1.00
  -4 -14   1   11.86    0.84
  -1   4 -14   11.16    0.68
   4 -14  -1   11.49    0.94
  -1  -4  14    8.62    0.71
  -5  14  -1   17.79    1.01
 -14  -1   5   17.78    1.22
   5  14   1   17.78    0.98
  -5 -14   1   19.28    1.01
  -1   5 -14   20.22    0.81
   5 -14  -1   18.40    1.12
  -1  -5  14   18.43    0.93
 -14  -1   5   19.18    1.09
  -6  14  -1   30.12    1.15
 -14  -1   6   27.44    1.32
  -6 -14   1   30.91    1.22
   6 -14  -1   30.93    1.32
 -14  -1   6   31.87    1.36
  -1  -6  14   29.63    1.14
  -7  14  -1   35.90    1.30
 -14  -1   7   28.72    1.28
  -7 -14   1   35.78    1.30
   7  14   1   30.20    1.21
   7 -14  -1   31.93    1.35
 -14  -1   7   31.00    1.27
 -14  -1   8   10.80    0.92
  -1   8 -14   12.55    0.84
   8 -14  -1   13.00    1.06
 -14  -1   8   12.31    0.95
 -14  -1   9    7.97    0.90
 -14  -1   9    5.81    0.73
   9 -14  -1    7.97    0.94
  -1  -9  14    6.56    0.81
 -14  -1  10   10.83    0.89
 -14  -1  10   14.11    0.83
 -14  -1  11   17.29    0.86
 -14   2  11    2.28    0.64
 -14   2  11    1.77    0.50
 -14   2  10    5.99    0.74
 -14   2  10    5.02    0.65
 -14   2   9   51.62    1.64
   2  -9  14   57.31    1.74
 -14   2   9   55.32    1.48
  -9  14   2   52.51    1.44
 -14   2   8   24.34    1.09
 -14   2   8   21.50    1.21
  -8 -14  -2   23.30    0.97
   2   8 -14   23.95    1.00
   2  -8  14   23.79    1.25
  -8  14   2   22.54    1.00
  -7  14   2    3.42    0.66
 -14   2   7    4.09    0.80
 -14   2   7    5.25    0.68
  -7 -14  -2    3.26    0.60
   7 -14   2    3.24    0.76
   2  -7  14    3.71    0.78
 -14  -2  -6   41.47    1.75
  -6  14   2   41.26    1.25
 -14   2   6   39.84    1.52
  -6 -14  -2   45.45    1.27
 -14   2   6   40.87    1.46
   6 -14   2   39.53    1.56
   2   6 -14   38.52    1.10
   2  -6  14   41.28    1.43
  14  -2   5  119.01    2.82
  -5  14   2  127.69    2.03
 -14   2   5  119.02    2.57
  -2  -5 -14  125.92    0.62
  -5 -14  -2  128.18    2.02
   2  -5  14  120.87    2.24
   5 -14   2  124.82    2.53
   2   5 -14  131.28    1.79
 -14  -2  -5  135.74    2.86
 -14   2   5  118.55    2.46
  14  -2   4   18.07    1.32
 -14   2   4   19.20    1.15
  -2  -4 -14   19.46    0.36
  -4  14   2   21.21    0.93
 -14  -2  -4   21.01    1.31
 -14   2   4   16.67    1.26
  -4 -14  -2   20.51    0.93
 -14  -2  -4   21.18    1.26
   2  -4  14   17.75    1.05
  -2  -4 -14   19.05    0.43
   4 -14   2   18.79    1.21
   4  14  -2   21.04    1.05
  14  -2   3   45.32    1.74
 -14  -2  -3   43.80    1.76
 -14  -2  -3   48.34    1.86
 -14   2   3   46.17    1.82
  -3  14   2   46.10    1.28
 -14   2   3   42.64    1.75
   2  -3  14   44.27    1.34
   2   3 -14   45.60    1.00
   3 -14   2   46.47    1.60
   3  14  -2   45.39    1.44
 -14  -2  -2  101.42    2.42
 -14   2   2  103.09    2.54
 -14  -2  -2  107.95    2.68
 -14   2   2   96.23    2.50
  -2  14   2  101.60    1.81
   2  -2  14  100.77    1.87
  -2   2  14  102.47    1.10
   2  14  -2  103.89    2.06
   2   2 -14  101.90    1.34
   2 -14   2  102.33    2.14
  -1 -14  -2  124.92    1.92
  14  -2   1  111.62    2.60
  -2  -1 -14  130.02    1.30
 -14  -2  -1  135.75    2.92
 -14   2   1  132.25    2.99
 -14   2   1  131.96    2.95
  -1  14   2  122.23    1.94
   2  -1  14  124.18    1.96
   1  14  -2  126.28    2.22
  -2   1  14  126.57    1.40
 -14  -2  -1  122.42    2.64
   2   1 -14  123.31    1.33
   1 -14   2  119.90    2.26
   2   0 -14    7.92    0.41
 -14  -2   0    9.18    1.13
 -14   2   0    6.63    1.12
   2   0  14    8.32    0.67
   0  14  -2    6.11    0.67
   0  14   2    5.95    0.66
  -2   0  14    8.18    0.51
   0 -14  -2    5.61    0.68
   0 -14   2    6.92    0.76
  -1 -14   2  127.66    2.20
 -14  -2   1  125.06    2.74
   2  -1 -14  122.53    1.09
 -14   2  -1  121.79    2.81
  -1  14  -2  123.41    2.18
 -14  -2   1  134.19    2.67
   1  14   2  131.06    2.04
  -2  -1  14  123.80    1.61
   1 -14  -2  125.25    2.03
  -2 -14   2  103.70    2.02
 -14  -2   2   92.12    2.32
   2   2  14  106.25    1.45
 -14  -2   2  101.46    2.27
  -2  14  -2   97.56    1.97
 -14   2  -2  100.59    2.57
   2 -14  -2  100.30    1.89
   2  14   2   96.26    1.79
   3  14   2   46.13    1.29
   2  -3 -14   45.87    0.46
 -14  -2   3   50.37    1.67
 -14  -2   3   45.53    1.77
  -3 -14   2   47.07    1.40
  -3  14  -2   43.15    1.38
   3 -14  -2   40.79    1.32
  -2  -3  14   45.55    1.14
   4  14   2   20.49    0.97
 -14  -2   4   20.45    1.17
  -2   4 -14   19.40    0.78
  -4 -14   2   18.09    0.92
   4 -14  -2   19.35    1.04
  -2  -4  14   18.20    0.82
 -14  -2   4   20.86    1.20
 -14  -2   5  120.56    2.55
  -5  14  -2  125.27    2.22
  -2   5 -14  119.32    1.75
   5  14   2  127.19    2.11
   5 -14  -2  125.02    2.32
 -14  -2   5  125.21    2.43
  -2  -5  14  122.00    1.95
 -14  -2   6   42.10    1.61
  -2   6 -14   41.10    1.16
  -6 -14   2   45.33    1.43
   6  14   2   37.70    1.29
   6 -14  -2   37.05    1.38
 -14  -2   6   39.42    1.37
  -2  -6  14   39.42    1.21
 -14  -2   7    4.06    0.87
 -14  -2   7    3.25    0.76
   7  14   2    5.51    0.76
  -2  -7  14    3.84    0.68
  -2   8 -14   26.33    1.04
   8 -14  -2   26.41    1.23
   9 -14  -2   50.96    1.63
  -2  -9  14   55.93    1.57
 -14  -2  10    7.57    0.77
  10 -14  -2    5.58    0.88
 -14   3  11    9.89    0.85
 -14   3  10   15.76    1.02
 -14   3  10   20.13    0.95
  -9 -14  -3    7.08    0.71
  -9  14   3    5.20    0.67
 -14   3   9    6.66    0.72
 -14   3   8    8.45    0.93
 -14   3   8    8.96    0.78
  -8 -14  -3    8.86    0.74
 -14  -3  -8    9.67    1.03
   3  -8  14    8.13    1.00
   3   8 -14    8.21    0.67
  -8  14   3    8.54    0.76
  -7  14   3   21.72    0.95
 -14   3   7   23.20    1.30
 -14  -3  -7   24.37    1.34
  -7 -14  -3   23.32    0.97
 -14   3   7   23.70    1.14
   3  -7  14   21.42    1.16
 -14  -3  -6   46.55    1.73
 -14   3   6   43.65    1.69
  -6 -14  -3   48.71    1.29
   3  -6  14   45.68    1.60
   6 -14   3   43.06    1.79
   3   6 -14   44.83    1.14
 -14   3   6   39.95    1.54
 -14  -3  -5    6.86    1.06
  -3  -5 -14    8.73    0.31
  -5  14   3    9.02    0.72
 -14   3   5    9.64    1.09
 -14   3   5    9.24    1.11
  -5 -14  -3    8.81    0.72
   3  -5  14    6.02    0.85
   5 -14   3    8.36    1.08
   3   5 -14    8.10    0.63
  -3  -4 -14    9.12    0.42
  14  -3   4    8.14    1.19
  -4  14   3    7.32    0.65
  -4 -14  -3    8.42    0.71
 -14   3   4    8.10    1.06
   3  -4  14   11.20    0.87
 -14   3   4    9.49    1.10
   4 -14   3    6.69    0.98
 -14  -3  -4    8.74    1.02
  -3  -4 -14    9.49    0.35
  14  -3   3   27.90    1.42
 -14  -3  -3   31.16    1.63
 -14   3   3   28.14    1.50
  -3  14   3   28.12    0.99
 -14   3   3   33.00    1.51
   3  -3  14   31.25    1.21
 -14  -3  -3   24.96    1.33
   3 -14   3   29.16    1.32
   3  14  -3   28.44    1.20
   3   3 -14   29.38    0.82
  -3  -3 -14   28.02    0.59
  -3  -2 -14   69.76    0.97
   3   2 -14   62.03    1.08
  14  -3   2   70.48    2.18
 -14  -3  -2   66.49    2.14
  -2  14   3   66.39    1.44
   3  -2  14   66.92    1.62
   2  14  -3   70.45    1.75
  -3   2  14   63.44    0.86
   2 -14   3   68.70    1.81
 -14   3   2   70.03    2.30
  -1 -14  -3   19.53    0.87
   3   1 -14   20.76    0.63
  14  -3   1   20.89    1.27
 -14  -3  -1   23.14    1.39
 -14   3   1   22.41    1.42
   3  -1  14   21.50    1.01
 -14  -3  -1   17.19    1.23
  -1  14   3   20.52    0.91
   1  14  -3   17.65    1.07
  -3   1  14   20.05    0.59
   1 -14   3   23.13    1.18
  -3   0 -14    9.34    0.53
 -14  -3   0    8.91    1.11
   3   0 -14    8.12    0.42
 -14  -3   0   10.68    1.06
 -14   3   0    6.17    1.05
   3   0  14    7.82    0.67
   0  14  -3    7.11    0.84
   0  14   3    9.41    0.72
  -3   0  14    8.34    0.48
   0 -14  -3    7.19    0.65
   0 -14   3   10.10    0.95
  -1 -14   3   18.85    1.07
  -3   1 -14   18.49    0.69
 -14  -3   1   16.34    1.32
 -14  -3   1   19.75    1.25
  -1  14  -3   18.55    1.05
   3  -1 -14   19.51    0.52
   1  14   3   17.97    0.86
   1 -14  -3   20.42    0.90
  -3  -1  14   18.39    0.68
 -14  -3   2   67.61    1.93
  -2 -14   3   65.45    1.70
  -3   2 -14   69.20    1.25
 -14  -3   2   57.50    1.90
   3  -2 -14   64.42    0.75
   3   2  14   66.84    1.24
  -2  14  -3   66.46    1.67
 -14   3  -2   65.68    2.26
   2 -14  -3   66.01    1.50
   2  14   3   62.30    1.42
  -3  -2  14   58.27    1.16
 -14  -3   3   24.86    1.32
   3   3  14   29.18    0.78
  -3 -14   3   27.37    1.18
  -3  14  -3   23.93    1.13
   3 -14  -3   26.36    1.05
 -14  -3   3   29.15    1.40
  -3  -3  14   26.96    0.89
 -14  -3   4    7.40    1.00
  -3   4 -14    8.84    0.62
   4  14   3    8.85    0.74
   4 -14  -3   10.11    0.79
 -14  -3   4    8.13    0.82
  -3  -4  14    9.23    0.66
  -3   5 -14    9.87    0.66
  -5 -14   3   11.15    0.91
   5  14   3   10.48    0.75
   5 -14  -3    8.62    0.81
 -14  -3   5    8.44    0.97
  -3  -5  14    7.00    0.67
  -3   6 -14   47.50    1.26
   6  14   3   45.86    1.33
 -14  -3   6   48.83    1.49
  -3  -6  14   44.78    1.27
 -14  -3   7   24.10    1.14
   7  14   3   21.85    1.06
  -3  -7  14   21.47    0.99
  -3   8 -14    7.81    0.73
   8 -14  -3    7.12    0.83
   8  14   3    6.50    0.75
  -3  -8  14    7.06    0.76
 -14  -3   9    5.51    0.71
   9 -14  -3    5.01    0.77
  -3  -9  14    4.78    0.63
  10 -14  -3   20.91    1.15
 -14   4  10   18.09    1.07
 -10  14   4   19.08    0.92
 -14   4  10   18.02    0.91
 -14   4   9    5.39    0.67
 -14   4   9    4.95    0.76
  -9 -14  -4    7.06    0.60
  -9  14   4    5.27    0.68
 -14   4   8   33.28    1.40
 -14   4   8   37.25    1.25
  -8 -14  -4   35.73    1.14
   4  -8  14   32.80    1.51
   4   8 -14   35.15    1.10
  -8  14   4   33.45    1.09
  -7  14   4   34.59    1.11
 -14   4   7   36.00    1.42
  -7 -14  -4   34.97    1.10
   4  -7  14   31.35    1.34
 -14   4   7   32.07    1.32
 -14  -4  -7   36.43    1.42
  -6  14   4   29.26    1.02
 -14   4   6   27.72    1.34
  -6 -14  -4   29.38    1.00
   4  -6  14   27.69    1.32
  -4  -6 -14   30.82    0.60
 -14  -4  -6   28.91    1.29
   4   6 -14   26.21    0.89
 -14   4   5   15.94    1.18
  -5 -14  -4   18.48    0.79
  -4  -5 -14   19.11    0.51
   4  -5  14   18.91    1.08
   5 -14   4   16.16    1.24
  -4  -5 -14   19.18    0.52
 -14   4   5   18.94    1.21
   4   5 -14   17.91    0.79
   4   4 -14  107.29    1.55
  14  -4   4   89.48    2.50
  -4  14   4  111.21    1.76
  -4 -14  -4  108.28    1.70
  -4  -4 -14  112.74    1.33
 -14   4   4   99.69    2.38
   4  -4  14  104.54    2.19
 -14  -4  -4  121.87    2.52
 -14   4   4  110.65    2.61
   4 -14   4  110.32    2.50
  -4  -4 -14  114.37    1.21
   4   3 -14   56.72    1.09
 -14   4   3   56.33    1.88
  -3  14   4   57.20    1.29
 -14  -4  -3   62.24    1.80
   4  -3  14   64.80    1.70
 -14   4   3   57.46    2.07
   3 -14   4   60.69    1.83
  14  -4   2   19.02    1.33
   4   2 -14   17.71    0.65
 -14  -4  -2   16.83    1.18
 -14   4   2   21.04    1.42
   4  -2  14   20.19    1.07
  -2  14   4   21.12    0.88
   2  14  -4   21.63    1.03
   2 -14   4   18.29    1.06
  -1 -14  -4   45.36    1.11
  14  -4   1   44.36    1.70
 -14  -4  -1   51.89    1.68
   4   1 -14   43.38    0.87
 -14   4   1   44.22    1.89
   4  -1  14   45.59    1.34
   1  14  -4   44.52    1.38
  -1  14   4   47.30    1.18
   1 -14   4   48.79    1.51
  -4  -1 -14   48.53    0.97
  -4   1  14   44.93    0.80
 -14  -4   0  158.96    2.79
  14  -4   0  150.82    2.89
   4   0  14  157.69    2.25
 -14   4   0  152.65    3.13
   0  14  -4  157.63    2.48
   4   0 -14  155.85    1.47
   0  14   4  157.60    2.04
   0 -14  -4  155.57    2.01
  -4   0 -14  156.96    1.75
   0 -14   4  146.58    2.49
  -4   0  14  157.86    1.57
  -1 -14   4   46.57    1.44
  -4  -1  14   42.80    0.91
  14  -4  -1   42.45    1.58
   4   1  14   44.47    1.22
  -1  14  -4   44.62    1.38
 -14   4  -1   48.16    1.96
   1  14   4   44.43    1.15
 -14  -4   1   47.52    1.60
   4  -1 -14   43.71    0.77
  -4   1 -14   48.19    1.06
  -4   2 -14   19.46    0.78
   2  14   4   20.10    0.85
  -4  -2  14   19.95    0.72
  14  -4  -2   19.78    1.20
  -2 -14   4   18.29    0.98
   4   2  14   19.82    0.82
  -2  14  -4   21.37    1.02
   4  -2 -14   20.47    0.51
   2 -14  -4   17.91    0.83
 -14  -4   2   22.46    1.17
  -4   3 -14   53.89    1.21
  -4  -3  14   56.37    1.17
   4   3  14   56.64    1.12
   3  14   4   56.76    1.32
  -3 -14   4   59.90    1.62
 -14  -4   3   58.90    1.69
   3 -14  -4   56.44    1.39
  -4  -4  14  102.70    1.62
  -4   4 -14  110.81    1.72
   4  14   4  101.25    1.75
 -14  -4   4  107.65    2.27
   4 -14  -4  103.35    1.87
  -4  -5  14   17.29    0.80
  -4   5 -14   19.21    0.89
   5  14   4   16.32    0.90
 -14  -4   5   17.47    1.09
   5 -14  -4   17.15    0.89
  -4  -6  14   27.77    0.98
 -14  -4   6   26.79    1.16
   6 -14  -4   27.60    1.10
   6  14   4   26.13    1.08
  -4  -7  14   35.62    1.17
  -4   7 -14   35.04    1.15
   7 -14  -4   31.21    1.21
   7  14   4   30.93    1.16
   8  14   4   35.37    1.26
   8 -14  -4   36.70    1.29
  -4  -9  14    5.99    0.74
   9 -14  -4    7.17    0.74
  10 -14  -4   21.09    1.12
  11 -14  -4   10.44    0.81
 -11  14   5   17.57    0.91
 -14   5  10    3.99    0.71
 -10  14   5    3.36    0.58
 -14   5   9    5.19    0.78
 -14   5   9    6.49    0.73
  -9 -14  -5    4.47    0.64
  -9  14   5    6.32    0.67
  -8  14   5   10.83    0.72
   5   8 -14   11.27    0.80
 -14   5   8   12.35    0.94
   5  -8  14   12.89    1.09
  -8 -14  -5   12.60    0.75
 -14   5   8   10.04    0.83
   5   7 -14   31.20    1.03
  -7  14   5   32.42    1.02
 -14   5   7   32.78    1.38
 -14   5   7   32.01    1.40
  -7 -14  -5   36.18    1.08
   5  -7  14   31.14    1.42
  -6  14   5    9.81    0.65
 -14   5   6    8.53    1.04
  -6 -14  -5   10.79    0.66
 -14  -5  -6   12.26    0.89
   5  -6  14   10.04    1.00
  -5  -6 -14    9.83    0.50
 -14   5   6   11.45    0.96
   5   5 -14   16.88    0.77
  -5  14   5   18.81    0.81
  -5 -14  -5   19.97    0.78
 -14  -5  -5   18.12    1.06
  -5  -5 -14   18.84    0.60
  -5  -5 -14   18.59    0.61
 -14   5   5   20.46    1.19
   5   4 -14   11.35    0.64
 -14   5   4    9.80    1.09
  -4 -14  -5   11.87    0.68
 -14  -5  -4   10.65    1.00
  -4  14   5   10.23    0.65
 -14   5   4    9.09    1.02
  -5  -4 -14   10.01    0.56
   5  -4  14   10.34    0.91
  -5  -4 -14   11.81    0.55
 -14  -5  -3   43.12    1.56
  -3  14   5   39.53    1.06
   5  -3  14   44.22    1.55
  -5  -3 -14   41.23    0.91
   3 -14   5   40.96    1.62
 -14  -5  -2   24.49    1.24
  14  -5   2   19.67    1.42
 -14   5   2   23.12    1.46
   5  -2  14   23.63    1.13
   5   2 -14   20.57    0.70
  -2  14   5   22.80    0.84
  -5  -2 -14   20.69    0.71
   2 -14   5   24.83    1.30
  -1 -14  -5   33.45    0.93
  -5   1  14   36.41    0.73
   5  -1  14   38.65    1.33
 -14   5   1   34.69    1.69
   5   1 -14   33.59    0.81
  -1  14   5   35.60    1.00
  -5  -1 -14   36.16    0.92
   1 -14   5   34.02    1.43
 -14  -5  -1   37.91    1.46
  -5   0  14    8.97    0.47
   5   0  14    9.23    0.79
 -14   5   0    5.81    0.88
   0  14   5    6.33    0.57
 -14  -5   0    6.87    0.96
   0 -14  -5    6.63    0.57
   0 -14   5    6.99    0.95
  14  -5  -1   37.15    1.54
  -5  -1  14   33.94    0.82
   5   1  14   34.77    1.13
   5  -1 -14   36.84    0.76
 -14  -5   1   35.18    1.48
   1 -14  -5   31.13    0.96
  -5   1 -14   38.28    1.01
   1  14   5   33.66    0.98
  -1 -14   5   32.84    1.36
  -2 -14   5   18.51    0.99
  14  -5  -2   19.34    1.15
  -5  -2  14   21.62    0.74
   5   2  14   22.80    0.89
   5  -2 -14   20.73    0.59
 -14  -5   2   20.44    1.20
   2 -14  -5   21.73    0.86
  -5   2 -14   22.53    0.87
  14  -5  -3   38.36    1.55
   5   3  14   40.23    1.04
  -3 -14   5   39.04    1.39
  -5  -3  14   39.85    1.01
   3  14   5   40.60    1.08
 -14  -5   3   41.46    1.56
   3 -14  -5   39.89    1.14
  -5   3 -14   39.75    1.12
  -5  -4  14   11.16    0.65
   4  14   5   10.86    0.70
   4 -14  -5    9.33    0.72
  -5   4 -14   10.81    0.76
  -5   5 -14   18.20    0.89
  -5  -5  14   21.07    0.87
   5 -14  -5   19.73    0.91
   5  14   5   17.11    0.86
  -5   6 -14   12.10    0.78
  -5  -6  14   10.74    0.70
  -5   7 -14   33.22    1.11
   7 -14  -5   30.62    1.12
   7  14   5   32.47    1.11
   8  14   5   12.87    0.87
   8 -14  -5   10.14    0.80
   9 -14  -5    7.29    0.77
  10 -14  -5    3.19    0.60
  11 -14  -5   19.66    1.04
 -14   6   9   25.43    1.15
  -9 -14  -6   28.00    0.94
 -14   6   9   27.27    1.13
  -8  14   6   11.77    0.68
 -14   6   8   13.02    0.91
 -14   6   8   11.45    0.88
  -8 -14  -6   13.16    0.70
  -7  14   6   12.67    0.69
   6   7 -14   13.43    0.75
 -14   6   7   12.43    1.01
  -7 -14  -6   14.49    0.72
 -14   6   7   14.56    1.04
  -6  14   6   26.33    0.87
 -14   6   6   25.14    1.22
  -6 -14  -6   25.10    0.86
   6  -6  14   23.94    1.34
 -14   6   6   25.94    1.27
  -5  14   6   56.05    1.15
   6   5 -14   52.96    1.19
  -5 -14  -6   55.35    1.14
 -14   6   5   54.24    1.83
   6  -5  14   53.53    1.72
  -6  -5 -14   55.51    1.03
  -4 -14  -6   29.51    0.88
  -4  14   6   26.64    0.85
   6   4 -14   28.47    0.89
 -14   6   4   26.62    1.45
   6  -4  14   24.40    1.27
  -6  -4 -14   27.24    0.84
  -6  -4 -14   28.38    0.83
  -3 -14  -6   39.82    0.98
   6  -3  14   42.61    1.51
 -14   6   3   37.33    1.67
  -3  14   6   38.84    0.98
   6   3 -14   41.84    1.01
  -6  -3 -14   39.83    0.98
 -14  -6  -3   39.31    1.53
  -2 -14  -6   40.10    0.96
 -14   6   2   42.77    1.85
  -2  14   6   41.85    1.01
   6   2 -14   38.84    0.92
  -6  -2 -14   42.38    1.06
 -14  -6  -2   45.06    1.52
  14  -6   1   60.77    2.04
  -6   1  14   66.68    0.99
   6  -1  14   60.87    1.64
 -14   6   1   69.30    2.21
  -1  14   6   62.31    1.20
  -6  -1 -14   64.20    1.29
   6   1 -14   61.66    1.11
  -1 -14  -6   58.27    1.13
  14  -6   0   38.83    1.59
  -6   0  14   39.06    0.84
   6   0  14   36.61    1.29
   6   0 -14   37.07    0.83
  -6   0 -14   37.31    1.05
   0  14   6   36.40    0.95
   0 -14  -6   34.25    0.89
   1  14   6   65.52    1.24
  14  -6  -1   61.13    1.88
   6   1  14   61.20    1.49
  -6  -1  14   61.92    1.09
   1 -14  -6   61.94    1.21
  -6   1 -14   62.47    1.32
  14  -6  -2   44.36    1.63
   6   2  14   42.32    1.20
   2  14   6   38.35    0.99
  -6  -2  14   40.91    0.96
   2 -14  -6   40.77    1.06
   6  -2 -14   41.05    0.86
   6   3  14   43.15    1.12
  14  -6  -3   41.00    1.60
  -6  -3  14   40.31    1.03
   3  14   6   36.94    1.01
   3 -14  -6   37.49    1.05
  -6   3 -14   42.32    1.18
  -6  -4  14   27.41    0.93
   4  14   6   26.36    0.92
   4 -14  -6   25.31    0.93
  -6   4 -14   28.61    1.05
   5 -14  -6   51.60    1.27
   5  14   6   49.06    1.23
   6 -14  -6   21.76    0.91
   6  14   6   23.35    0.96
  -6   6 -14   23.70    1.02
  -6  -7  14   14.39    0.80
   7  14   6   12.76    0.77
   7 -14  -6   13.07    0.81
  -6  -8  14   14.06    0.84
   8 -14  -6   12.59    0.81
   8  14   6   13.25    0.84
   9 -14  -6   26.65    1.05
   9  14   6   24.85    1.09
  10 -14  -6    7.22    0.69
  11 -14  -6    3.29    0.65
  12 -14  -6    4.93    0.68
 -10 -14  -7   17.12    0.78
 -14   7   9    5.07    0.78
  -9 -14  -7    5.01    0.54
 -14   7   8    6.99    0.86
  -8 -14  -7    6.64    0.58
 -14   7   8    6.39    0.79
 -14   7   7    8.81    0.85
  -7 -14  -7    9.57    0.58
 -14   7   7    9.50    0.98
   7   6 -14   36.06    1.06
 -14   7   6   36.75    1.48
  -6 -14  -7   38.79    0.96
 -14   7   6   34.76    1.45
   7  -6  14   35.74    1.61
  -5  14   7    4.52    0.49
  -5 -14  -7    3.54    0.45
   7  -5  14    5.10    0.93
   7   5 -14    3.73    0.56
 -14   7   5    4.30    0.77
  -7  -5 -14    5.31    0.50
  -7  -5 -14    4.94    0.49
  -4 -14  -7    5.79    0.49
  -7  -4 -14    5.69    0.55
  -4  14   7    5.25    0.49
   7  -4  14    5.63    0.92
 -14   7   4    6.79    0.92
   7   4 -14    6.16    0.58
  -7  -4 -14    4.68    0.54
  -3 -14  -7   13.32    0.61
 -14   7   3   10.82    1.15
  -3  14   7   11.34    0.58
  -7  -3 -14   11.04    0.67
   7   3 -14   10.40    0.63
  -2 -14  -7   51.81    1.00
   7  -2  14   54.46    1.67
  -2  14   7   54.46    1.05
  -7  -2 -14   57.02    1.26
   7   1 -14    7.43    0.54
   7  -1  14    8.20    0.83
  -1  14   7    9.54    0.56
  -1 -14  -7    8.71    0.54
  14  -7   0    6.27    1.05
   7   0  14    4.80    0.73
  -7   0  14    5.88    0.45
   7   0 -14    6.21    0.50
  -7   0 -14    5.51    0.63
   0 -14  -7    6.72    0.50
   0  14   7    6.05    0.50
   1  14   7    8.02    0.53
  14  -7  -1    9.14    1.06
   7   1  14    7.46    0.75
  -7  -1  14    8.01    0.52
   7  -1 -14    8.94    0.54
   1 -14  -7    8.44    0.54
  -7   1 -14    8.81    0.68
   7   2  14   58.22    1.42
  -7  -2  14   54.77    1.13
  -7   2 -14   56.83    1.38
  14  -7  -3   12.13    1.08
  -7  -3  14   12.27    0.66
   3  14   7   11.57    0.64
   3 -14  -7   10.42    0.64
  -7   3 -14   13.78    0.78
  14  -7  -4    5.89    0.84
  -7  -4  14    4.46    0.56
   4 -14  -7    5.15    0.52
   4  14   7    5.32    0.56
  -7  -5  14    3.76    0.57
   5 -14  -7    4.25    0.54
  -7   5 -14    4.17    0.67
   5  14   7    4.28    0.57
   6  14   7   34.16    1.06
  -7  -6  14   37.65    1.16
   6 -14  -7   36.39    1.06
  -7  -7  14    7.61    0.72
   7 -14  -7    9.90    0.68
   7  14   7    9.38    0.73
   8 -14  -7    5.50    0.65
   8  14   7    6.07    0.70
   9 -14  -7    3.80    0.67
   9  14   7    2.30    0.67
 -10 -14  -8    5.81    0.51
  -9 -14  -8    9.69    0.61
 -14   8   8   18.17    1.04
 -14   8   8   17.22    1.03
  -8 -14  -8   19.56    0.76
 -14   8   7    7.19    0.82
  -7 -14  -8    9.22    0.57
 -14   8   7    8.67    0.98
  -6 -14  -8   11.90    0.59
 -14   8   6   12.79    0.93
   8   6 -14   11.40    0.74
  -5 -14  -8   24.32    0.74
   8  -5  14   22.11    1.28
  -8  -5 -14   24.84    0.89
  -8  -5 -14   23.50    0.81
  -8  -4 -14   35.69    1.03
  -4 -14  -8   34.83    0.82
  -8  -4 -14   36.76    1.05
   8   4 -14   34.13    1.03
  -3 -14  -8   19.84    0.64
   8   3 -14   19.29    0.77
  -2 -14  -8   22.47    0.65
   8   2 -14   21.30    0.79
   8  -2  14   23.08    1.20
  -8  -2 -14   21.74    0.91
   8  -1  14   27.34    1.21
  -8  -1 -14   30.24    1.04
  -1 -14  -8   28.68    0.74
   8   0 -14   46.16    1.05
   8   0  14   43.60    1.43
  -8   0 -14   43.51    1.24
   0 -14  -8   45.95    0.92
   8   1  14   25.33    1.14
  -8  -1  14   29.78    0.85
   8  -1 -14   28.74    0.86
  -8   1 -14   30.53    1.08
   1 -14  -8   25.58    0.75
   8   2  14   24.84    1.04
  14  -8  -2   23.30    1.32
  -8  -2  14   23.21    0.81
  -8   2 -14   22.67    1.01
   8   3  14   19.35    0.92
  -8  -3  14   17.82    0.77
   3 -14  -8   18.44    0.71
   3  14   8   19.36    0.73
  14  -8  -4   36.16    1.44
  -8  -4  14   35.39    1.05
  -8   4 -14   32.82    1.16
   4  14   8   35.97    0.97
  14  -8  -5   24.05    1.14
   5  14   8   21.85    0.81
  -8  -5  14   22.96    0.91
   5 -14  -8   21.94    0.81
  -8  -6  14   12.50    0.73
   6  14   8   10.95    0.69
  -8  -7  14    8.50    0.73
   7  14   8    7.09    0.66
   8  14   8   16.04    0.87
   9  14   8    9.42    0.74
  -9 -14  -9    1.15    0.43
  -8 -14  -9    5.80    0.51
  -7 -14  -9   25.07    0.78
 -14   9   7   20.96    1.07
  -6 -14  -9    1.17    0.37
 -14   9   6    1.47    0.70
  -5 -14  -9   11.60    0.54
  -9  -5 -14   10.40    0.69
   9   5 -14    9.38    0.64
  -9  -5 -14   10.02    0.63
  -9  -4 -14    8.93    0.64
  -4 -14  -9    8.32    0.48
   9  -4  14    8.29    0.97
  -9  -4 -14    7.29    0.64
  -3 -14  -9   28.70    0.70
   9   3 -14   25.78    0.88
   9  -3  14   27.35    1.39
  -9  -3 -14   27.82    1.00
  -2 -14  -9    3.90    0.38
   9  -2  14    3.53    0.81
   9  -1  14   22.71    1.18
  -9  -1 -14   20.19    0.97
   9   1 -14   21.63    0.83
   9   0  14    7.11    0.78
  -9   0 -14    6.21    0.70
  -9  -1  14   26.81    0.85
  -9   1 -14   23.72    1.01
  -9  -2  14    3.34    0.49
  -9   2 -14    2.96    0.66
  14  -9  -3   26.88    1.38
  -9  -3  14   27.77    0.93
  -9   3 -14   25.79    1.06
  -9  -4  14    7.71    0.62
  14  -9  -5   10.31    0.93
  -9  -5  14    9.21    0.73
  14  -9  -6    1.17    0.61
  -9  -6  14    1.02    0.43
  14  -9  -7   23.94    1.03
 -14  10   7    8.84    0.81
  10   5 -14   11.75    0.73
 -10  -5 -14   10.24    0.67
  10   4 -14   18.86    0.83
 -10  -4 -14   19.50    0.86
  10  -3  14   16.76    1.19
 -10  -3 -14   19.85    0.90
 -10  -3 -14   17.19    0.88
  10  -2  14    5.22    0.91
 -10  -2 -14    4.07    0.63
  10   2 -14    5.08    0.59
  10  -1  14   18.54    1.13
  10   1 -14   15.14    0.77
 -10  -1 -14   17.18    0.90
  10   0  14   29.05    1.28
  10   0 -14   28.17    0.98
  10   1  14   20.43    1.08
 -10   1 -14   18.26    0.99
 -10  -2  14    5.79    0.55
 -10   2 -14    6.06    0.70
 -10  -3  14   17.46    0.80
 -10  -4  14   19.22    0.83
 -10  -5  14    8.61    0.68
  14 -10  -6   11.24    0.81
  14 -10  -7   10.77    0.79
  14 -10  -8    5.83    0.67
 -11  -5 -14    3.83    0.54
 -11  -4 -14    4.45    0.58
 -11  -3 -14    4.11    0.64
  11   3 -14    2.56    0.51
  11  -2  14   27.78    1.29
 -11  -2 -14   26.52    1.07
  11  -1  14    2.60    0.77
  11   1 -14    2.32    0.54
 -11  -1 -14    3.27    0.62
  11   0  14    3.67    0.78
 -11   0 -14    1.70    0.58
  11   1  14    2.69    0.74
 -11  -3  14    4.01    0.56
 -11  -4  14    3.47    0.59
  14 -11  -6   18.64    0.97
  14 -11  -7    1.25    0.54
 -12  -5 -14   13.24    0.73
 -12  -4 -14    6.07    0.68
 -12  -4 -14    7.39    0.66
 -12  -3 -14    2.52    0.60
  12   2 -14   10.89    0.75
  12   1  14   12.76    0.94
  12   2  14   10.96    0.92
 -12  -3  14    4.15    0.62
   0   0  15    0.35    0.42
   0  15   0   -0.26    0.46
  -1 -15   0   94.00    1.86
 -15   0   1  105.01    2.57
  -1  15   0   98.06    1.89
   0   1 -15  100.58    1.24
   0  -1  15   92.65    1.54
   0  -1 -15   98.97    1.01
   1  15   0   93.95    1.87
 -15   0  -1   99.86    2.61
   1 -15   0  101.30    2.00
  -2 -15   0   43.14    1.33
  -2  15   0   47.61    1.39
   0   2 -15   43.00    0.91
   0  -2  15   45.18    1.21
   0  -2 -15   46.42    0.61
   2  15   0   45.25    1.38
 -15   0   2   44.75    1.77
   2 -15   0   41.04    1.35
  -3 -15   0   37.10    1.23
  -3  15   0   38.54    1.26
   0   3 -15   39.73    0.95
   0  -3  15   33.19    1.10
   3 -15   0   43.41    1.51
   3  15   0   36.85    1.27
   4  15   0    7.97    0.81
  -4  15   0    9.78    0.75
 -15   0   4    9.82    1.00
   0   4 -15    8.13    0.58
   4 -15   0    6.44    0.83
   0  -4  15    7.76    0.71
  -5  15   0  100.36    1.94
 -15   0   5  102.12    2.24
  -5 -15   0  107.35    1.98
   0   5 -15  100.47    1.58
   5 -15   0  100.78    2.18
   0  -5  15   98.65    1.88
 -15   0   6   18.41    1.13
  -6  15   0   13.48    0.90
  -6 -15   0   16.53    0.87
   0   6 -15   13.14    0.74
   6 -15   0   11.98    1.02
   0  -6  15   14.08    0.86
 -15   0   7    2.57    0.74
   7 -15   0    4.13    0.83
   0   7 -15    2.25    0.54
   0  -7  15    3.58    0.63
   0   8 -15   11.25    0.73
 -15   0   8    9.84    0.84
 -15   0   9   53.39    1.47
 -15   0  10    2.33    0.62
 -15   1  11    9.64    0.71
 -15   1  10    8.99    0.74
 -15   1   9    1.73    0.66
   1   8 -15    8.34    0.70
   1  -8  15    8.62    0.85
 -15   1   8    6.18    0.83
  -7  15   1   22.88    1.05
   1   7 -15   22.22    0.90
   1  -7  15   20.83    1.08
  -6  15   1   28.76    1.10
  -6 -15  -1   29.24    1.14
   1   6 -15   28.22    0.96
   6 -15   1   27.32    1.42
   1  -6  15   27.07    1.17
  -5 -15  -1    5.74    0.68
 -15   1   5    6.60    0.89
   1   5 -15    5.57    0.54
   5 -15   1    6.24    0.92
   1  -5  15    7.44    0.71
  -4 -15  -1    3.54    0.65
  -4  15   1    5.69    0.75
   1   4 -15    4.26    0.51
 -15   1   4    3.27    0.72
   1  -4  15    4.19    0.67
   4 -15   1    2.86    0.71
  -3 -15  -1   29.64    1.10
  -3  15   1   28.62    1.13
   1  -3  15   27.76    1.06
   1   3 -15   30.22    0.83
   3 -15   1   27.55    1.23
   3  15  -1   29.85    1.18
 -15   1   3   27.20    1.48
  -2 -15  -1   55.98    1.44
 -15   1   2   58.32    2.02
  -2  15   1   53.24    1.42
  -1  -2 -15   53.97    0.70
   1  -2  15   54.38    1.31
   1   2 -15   55.82    1.01
   2  15  -1   54.18    1.49
   2 -15   1   57.80    1.68
  -1 -15  -1   16.97    0.90
 -15  -1  -1   18.97    1.23
  -1  -1 -15   19.77    0.53
  -1  15   1   16.67    0.84
   1  -1  15   17.98    0.82
 -15   1   1   15.04    1.19
   1  15  -1   19.14    0.95
   1   1 -15   20.36    0.61
   1 -15   1   19.99    1.06
   0 -15  -1   -0.73    0.58
   0 -15   1    1.18    0.51
   1   0  15    1.26    0.45
 -15  -1   0    1.43    0.82
   0  15  -1    1.08    0.50
  -1   0  15    0.29    0.42
   0  15   1   -0.64    0.60
 -15   1   0    2.31    0.90
   1   0 -15    1.04    0.27
  -1 -15   1   18.17    0.95
  -1   1 -15   19.28    0.64
  -1  15  -1   20.95    0.97
 -15  -1   1   20.40    1.28
  -1  -1  15   19.93    0.79
   1  15   1   18.19    0.97
 -15   1  -1   19.34    1.49
   1 -15  -1   16.72    0.93
   1  -1 -15   20.99    0.50
  -2 -15   1   55.77    1.46
   1  -2 -15   53.22    0.62
  -1   2 -15   52.68    1.01
  -2  15  -1   53.80    1.43
 -15  -1   2   55.44    1.77
  -1  -2  15   54.02    1.23
   2 -15  -1   54.80    1.51
   2  15   1   53.04    1.38
  -3 -15   1   28.27    1.07
  -3  15  -1   26.89    1.08
 -15  -1   3   27.44    1.28
   3 -15  -1   27.14    1.12
  -1  -3  15   28.30    0.98
   1  -3 -15   27.70    0.34
   3  15   1   27.27    1.08
 -15  -1   4    4.27    0.91
  -4  15  -1    3.54    0.73
  -1   4 -15    3.20    0.51
   4 -15  -1    4.69    0.79
  -1  -4  15    3.71    0.57
   5  15   1    6.81    0.70
  -5 -15   1    6.87    0.64
  -1   5 -15    5.56    0.59
   5 -15  -1    6.01    0.71
  -1  -5  15    5.31    0.65
 -15  -1   5    5.58    0.70
  -1   6 -15   28.58    0.93
   6 -15  -1   29.95    1.31
  -1  -6  15   29.98    1.12
 -15  -1   6   29.60    1.33
  -1   7 -15   22.81    0.94
   7 -15  -1   26.52    1.29
 -15  -1   7   28.71    1.23
  -1  -7  15   22.06    0.99
  -1  -8  15    7.77    0.80
 -15   2  11    4.50    0.68
 -15   2  10   19.14    0.87
 -15   2   9    3.25    0.69
 -15   2   8   39.51    1.36
   2   8 -15   39.71    1.17
   2  -8  15   38.44    1.41
  -7  15   2   18.63    0.94
 -15   2   7   20.97    1.11
  -7 -15  -2   17.93    0.90
   2  -7  15   16.74    1.04
   2   7 -15   19.05    0.84
  -6  15   2   22.43    0.98
  -6 -15  -2   21.24    0.92
 -15   2   6   21.67    1.18
   2   6 -15   21.76    0.87
 -15   2   5    3.00    0.86
  -5 -15  -2    1.52    0.58
   2  -5  15    3.19    0.71
   5 -15   2    4.86    0.89
   2   5 -15    3.35    0.47
  -4 -15  -2  110.07    1.84
  -4  15   2  109.16    1.90
   4 -15   2  110.96    2.39
   2   4 -15  108.79    1.52
  -3 -15  -2   34.33    1.09
  -3  15   2   34.64    1.15
 -15   2   3   37.33    1.70
   2  -3  15   33.95    1.19
   3 -15   2   36.07    1.48
   2   3 -15   32.02    0.83
  -2 -15  -2    5.82    0.67
  -2  -2 -15    6.97    0.35
  -2  15   2    5.75    0.61
   2  -2  15    5.43    0.67
 -15   2   2    5.31    0.90
   2   2 -15    5.16    0.46
  -1 -15  -2   16.08    0.83
  -2  -1 -15   19.69    0.54
   2  -1  15   19.17    0.88
 -15   2   1   20.16    1.31
  -1  15   2   19.60    0.98
   1  15  -2   17.63    0.96
   1 -15   2   21.38    1.12
   2   1 -15   19.74    0.60
  -2   0 -15  158.22    1.49
   2   0  15  157.17    2.05
 -15   2   0  157.03    3.24
   0  15  -2  155.77    2.44
   0  15   2  148.91    2.17
  -2   0  15  153.28    1.69
   0 -15  -2  152.83    2.21
   0 -15   2  155.87    2.52
  -1 -15   2   17.82    1.00
  -2   1 -15   17.80    0.62
   2  -1 -15   18.47    0.46
 -15   2  -1   15.36    1.30
   2   1  15   20.37    0.80
  -1  15  -2   16.79    0.99
 -15  -2   1   21.57    1.24
   1  15   2   20.45    0.95
  -2  -1  15   18.10    0.71
   1 -15  -2   18.44    0.96
  -2 -15   2    5.91    0.78
  -2   2 -15    5.79    0.47
  -2  15  -2    5.76    0.80
   2  -2 -15    5.73    0.27
   2 -15  -2    3.88    0.63
  -2  -2  15    5.95    0.55
   2  15   2    4.53    0.65
   3  15   2   32.85    1.10
 -15  -2   3   35.24    1.50
  -3 -15   2   36.52    1.29
   3 -15  -2   30.33    1.15
  -2  -3  15   32.77    0.99
   4  15   2  104.76    1.88
  -2   4 -15  110.78    1.61
   4 -15  -2  105.69    2.05
   5  15   2    3.13    0.61
  -2   5 -15    4.19    0.54
   5 -15  -2    4.59    0.76
  -2  -5  15    3.13    0.53
  -2   6 -15   19.80    0.86
   6  15   2   22.28    0.98
   6 -15  -2   20.79    1.09
  -2  -6  15   21.00    0.94
  -2   7 -15   18.67    0.86
   7 -15  -2   16.96    1.02
  -2  -7  15   18.57    0.93
   8 -15  -2   37.69    1.37
  -2  -8  15   37.94    1.26
   9 -15  -2    1.57    0.75
 -15   3  10    6.94    0.82
 -15   3  10    4.02    0.67
 -15   3   9    2.03    0.67
 -15   3   9    2.88    0.63
  -8  15   3    6.31    0.68
 -15   3   8    5.70    0.78
 -15   3   8    4.76    0.84
   3  -8  15    5.28    0.80
  -7  15   3   29.48    1.04
 -15   3   7   27.81    1.36
  -7 -15  -3   29.84    1.07
   3  -7  15   27.78    1.30
   3   7 -15   27.64    0.95
  -6  15   3   15.85    0.85
 -15   3   6   17.04    1.21
  -6 -15  -3   15.36    0.86
 -15   3   6   16.22    1.08
   3   6 -15   16.43    0.75
 -15   3   5   10.08    1.09
  -5 -15  -3   11.21    0.68
 -15   3   5    9.82    1.09
   3  -5  15   10.07    0.83
   3   5 -15    9.05    0.60
   3   4 -15    1.44    0.41
  -4 -15  -3    2.77    0.50
  -4  15   3    2.33    0.58
   3  -4  15    1.05    0.64
 -15   3   4    2.63    0.91
 -15   3   3   38.17    1.70
  -3  -3 -15   44.43    0.69
  -3 -15  -3   39.94    1.11
  -3  15   3   40.91    1.15
   3  -3  15   39.15    1.32
   3 -15   3   40.54    1.57
   3   3 -15   41.17    0.93
  -3  -2 -15   27.58    0.62
  -2 -15  -3   26.87    0.97
  -2  15   3   23.58    0.98
   3  -2  15   25.27    1.07
   2 -15   3   28.45    1.33
 -15   3   2   25.82    1.42
  -1 -15  -3   28.62    1.01
   3   1 -15   30.08    0.71
   3  -1  15   27.95    1.05
 -15   3   1   26.82    1.58
  -1  15   3   27.49    0.98
   1 -15   3   30.61    1.33
   0 -15   3   -0.43    0.71
   3   0  15    0.61    0.51
   0  15   3   -0.52    0.54
  -3   1 -15   28.08    0.77
   3  -1 -15   27.53    0.58
   1  15   3   27.19    1.00
  -3  -1  15   29.35    0.81
  -1 -15   3   27.59    1.24
  -2 -15   3   27.12    1.15
  -3   2 -15   26.23    0.79
   2 -15  -3   28.58    1.03
  -3  -2  15   26.82    0.81
   2  15   3   25.22    0.98
  -3   3 -15   38.73    0.98
   3 -15  -3   39.33    1.21
  -3  -3  15   39.22    1.03
  -3   4 -15    2.10    0.47
   4  15   3    1.95    0.57
   4 -15  -3    2.77    0.60
  -3  -4  15    1.94    0.49
   5 -15  -3   10.34    0.87
  -3  -5  15   10.28    0.72
   6 -15  -3   16.01    0.93
  -3  -6  15   15.10    0.78
  -3   7 -15   26.63    1.00
  -3  -7  15   27.13    1.06
   8 -15  -3    4.49    0.71
  -3  -8  15    5.11    0.66
   9 -15  -3    3.47    0.73
 -15   4  10    2.83    0.71
 -15   4  10    3.70    0.67
 -15   4   9   37.73    1.22
 -15   4   9   35.61    1.40
  -9  15   4   33.26    1.10
  -8  15   4    8.91    0.69
 -15   4   8   10.99    0.94
 -15   4   8   10.74    0.87
  -8 -15  -4    9.36    0.67
  -7 -15  -4    5.86    0.60
   4  -7  15    6.05    0.81
   4   7 -15    5.73    0.61
 -15   4   6   10.91    0.99
  -6  15   4   10.56    0.74
  -6 -15  -4   10.40    0.69
   4  -6  15   11.36    0.91
   4   6 -15   11.26    0.66
   4   5 -15   71.64    1.33
  -5  15   4   69.96    1.42
  -5 -15  -4   73.06    1.42
   4  -5  15   70.01    1.81
 -15   4   4   15.44    1.23
  -4 -15  -4   13.55    0.70
  -4  15   4   16.27    0.78
  -3 -15  -4   34.56    1.01
 -15   4   3   34.17    1.69
  -3  15   4   36.10    1.08
   4  -3  15   33.13    1.27
  -4  -3 -15   36.35    0.73
  -2 -15  -4   26.35    0.89
   4   2 -15   24.62    0.70
   4  -2  15   25.03    1.09
  -2  15   4   25.68    0.94
   4   1 -15   71.81    1.05
   4  -1  15   68.71    1.59
  -1  15   4   72.26    1.41
  -1 -15  -4   70.78    1.38
  -4   0 -15   14.96    0.62
   4   0  15   14.61    0.82
   0  15   4   12.75    0.72
   0 -15  -4   12.87    0.71
  -4   1 -15   74.34    1.23
  15  -4  -1   75.01    2.10
   4   1  15   74.50    1.46
   1 -15  -4   73.89    1.46
   1  15   4   71.86    1.45
  -4  -1  15   69.20    1.13
   4  -1 -15   71.60    0.93
   2  15   4   26.46    0.97
   2 -15  -4   25.81    0.99
   4  -2 -15   26.22    0.56
  -4  -2  15   25.09    0.79
  -4   3 -15   34.66    0.97
   3  15   4   33.18    1.07
   3 -15  -4   30.81    1.09
  -4  -3  15   32.77    0.93
  -4  -4  15   13.08    0.70
   4  15   4   14.44    0.79
   4 -15  -4   12.99    0.84
  -4  -5  15   67.87    1.40
   5  15   4   66.62    1.47
   5 -15  -4   65.28    1.52
  -4  -6  15   10.16    0.72
  -4   6 -15   10.60    0.68
   6 -15  -4    9.42    0.72
   6  15   4   10.67    0.79
  -4  -7  15    5.21    0.61
  -4   7 -15    5.91    0.67
   7 -15  -4    5.23    0.69
   7  15   4    4.73    0.67
  -4  -8  15   10.47    0.75
   8 -15  -4    8.13    0.81
   9 -15  -4   34.13    1.25
  10 -15  -4    3.39    0.66
 -10  15   5    9.55    0.68
  -9  15   5    1.15    0.47
 -15   5   9    1.46    0.57
 -15   5   9    1.43    0.55
  -8  15   5    6.82    0.63
 -15   5   8    8.56    0.92
  -8 -15  -5    8.38    0.66
 -15   5   7   10.14    0.98
  -7  15   5    8.71    0.63
 -15   5   7    9.06    0.87
  -7 -15  -5    9.76    0.67
   5  -7  15    7.54    0.91
  -6 -15  -5   30.33    0.93
   5  -6  15   30.04    1.38
   5   5 -15    2.42    0.44
  -5  15   5    1.21    0.47
  -5 -15  -5    1.84    0.46
 -15   5   5    0.71    0.82
   5  -5  15    0.65    0.69
  -4 -15  -5    5.46    0.51
   5   4 -15    4.69    0.47
  -4  15   5    5.69    0.57
   5  -4  15    4.76    0.74
 -15   5   4    5.50    1.04
  -3 -15  -5    8.04    0.59
   5  -3  15    8.44    0.83
  -3  15   5   10.17    0.66
  -2 -15  -5   53.14    1.16
   5  -2  15   51.96    1.48
  -2  15   5   52.89    1.20
   5  -1  15    5.01    0.71
   5   1 -15    5.71    0.43
  -1  15   5    4.45    0.55
  -5  -1 -15    6.58    0.48
  -1 -15  -5    6.30    0.57
   5   0  15    3.78    0.63
   0  15   5    3.21    0.52
   0 -15  -5    4.63    0.49
   5   0 -15    3.36    0.37
  -5   0 -15    2.49    0.45
  -5  -1  15    5.82    0.47
   5   1  15    6.65    0.66
   1 -15  -5    5.33    0.55
   1  15   5    6.26    0.57
  -5  -2  15   54.16    1.07
   2 -15  -5   53.15    1.24
  -5   2 -15   56.16    1.19
  -5  -3  15    8.45    0.57
   3  15   5    9.79    0.67
   3 -15  -5    9.21    0.68
  -5   3 -15   10.96    0.70
  -5   4 -15    4.88    0.59
  -5  -4  15    5.20    0.55
   4  15   5    4.22    0.57
   4 -15  -5    3.46    0.59
  -5  -5  15    2.15    0.51
   5 -15  -5    2.74    0.55
  -5  -6  15   30.34    1.03
  -5   6 -15   32.70    1.08
   6 -15  -5   30.82    1.10
   6  15   5   29.05    1.06
  -5  -7  15   11.05    0.71
   7 -15  -5    9.69    0.78
   7  15   5    9.09    0.71
  -5  -8  15    6.46    0.69
   8 -15  -5    5.73    0.69
   9 -15  -5    2.83    0.59
  10 -15  -5   10.05    0.83
 -15   6   9    5.05    0.77
 -15   6   8   23.59    1.14
  -8 -15  -6   25.10    0.90
   6   7 -15    6.11    0.59
 -15   6   7    8.56    0.93
  -7 -15  -6    6.68    0.59
 -15   6   7    6.27    0.90
  -6  15   6   14.27    0.72
   6   6 -15   13.64    0.69
 -15   6   6   11.81    1.09
  -6 -15  -6   14.40    0.67
   6  -6  15   13.40    1.07
  -5 -15  -6   15.95    0.68
  -5  15   6   14.43    0.68
   6  -5  15   14.96    1.08
  -4  15   6   57.86    1.18
   6  -4  15   59.12    1.75
  -3 -15  -6   14.50    0.63
   6  -3  15   13.86    0.96
  -3  15   6   13.24    0.66
   6   3 -15   13.89    0.63
  -2 -15  -6   14.20    0.65
   6  -2  15   12.47    0.96
  -2  15   6   12.32    0.64
   6   2 -15   11.61    0.57
  -6  -2 -15   13.24    0.63
  -1  15   6   18.36    0.74
  -6  -1 -15   18.86    0.74
   6   1 -15   18.14    0.65
  -1 -15  -6   17.55    0.70
   6   0  15   78.62    1.70
   6   0 -15   76.21    1.12
   0 -15  -6   76.99    1.31
   1  15   6   17.65    0.74
   6   1  15   18.10    0.93
   1 -15  -6   18.04    0.74
  -6   1 -15   20.14    0.81
   2  15   6   12.49    0.64
  -6  -2  15   12.34    0.61
   2 -15  -6   13.90    0.71
  -6   2 -15   11.84    0.71
  15  -6  -3   16.41    1.15
  -6  -3  15   16.95    0.72
   3  15   6   14.04    0.72
   3 -15  -6   12.38    0.70
  -6   3 -15   15.17    0.81
  15  -6  -4   58.47    1.70
  -6  -4  15   57.76    1.22
   4  15   6   53.16    1.22
   4 -15  -6   53.00    1.23
  -6  -5  15   15.18    0.76
   5 -15  -6   12.46    0.75
   5  15   6   12.16    0.72
  -6   5 -15   15.15    0.80
  -6  -6  15   11.53    0.70
   6 -15  -6   12.95    0.77
   6  15   6   10.98    0.75
   7  15   6    6.06    0.61
  -6  -7  15    5.27    0.64
   7 -15  -6    5.97    0.68
   8  15   6   20.16    0.89
   8 -15  -6   19.64    0.91
   9 -15  -6    8.44    0.76
  10 -15  -6   10.78    0.81
  -9 -15  -7    1.28    0.47
 -15   7   8    4.29    0.71
  -8 -15  -7    3.30    0.50
 -15   7   7   21.39    1.17
  -7 -15  -7   22.49    0.82
  -6 -15  -7    3.67    0.46
   7   6 -15    4.53    0.48
   7  -6  15    5.66    0.81
 -15   7   6    4.89    0.92
  -5 -15  -7   10.20    0.59
   7  -5  15    9.30    1.02
   7  -4  15    1.82    0.71
   7   4 -15    0.43    0.44
  -3 -15  -7   29.17    0.80
   7   3 -15   27.76    0.83
  -2 -15  -7    5.09    0.46
  -7  -2 -15    6.31    0.58
   7   2 -15    6.52    0.50
   7   1 -15   22.12    0.72
  -1 -15  -7   21.18    0.72
   0  15   7    0.46    0.40
   7   0  15    1.49    0.59
  -7   0 -15    0.88    0.45
   1  15   7   22.66    0.76
   7   1  15   22.22    1.02
   1 -15  -7   22.50    0.77
   2 -15  -7    5.49    0.53
  -7  -3  15   30.81    0.89
   3  15   7   27.91    0.87
   3 -15  -7   25.85    0.87
  -7   3 -15   32.07    1.05
  -7  -4  15    1.73    0.46
   4 -15  -7    2.81    0.47
   4  15   7    1.59    0.46
  -7   4 -15    3.46    0.59
  15  -7  -5   11.98    0.94
  -7  -5  15   10.65    0.70
   5  15   7    8.34    0.64
  -7   5 -15    9.47    0.76
   6  15   7    3.89    0.52
   6 -15  -7    1.61    0.56
   7  15   7   19.04    0.84
  -9 -15  -8   15.34    0.70
  -8 -15  -8    8.44    0.59
 -15   8   7    7.79    0.88
  -7 -15  -8    6.28    0.51
  -6 -15  -8    6.38    0.51
   8   6 -15    5.31    0.55
  -5 -15  -8   26.67    0.77
   8  -5  15   26.83    1.38
   8  -4  15   21.04    1.26
   8   4 -15   16.66    0.74
   8  -3  15   16.05    1.08
  -8  -3 -15   18.71    0.81
   8   3 -15   16.94    0.72
  -2 -15  -8    4.83    0.43
   8   2 -15    4.56    0.50
   8  -2  15    5.49    0.81
  -8  -2 -15    3.57    0.55
   8  -1  15   27.32    1.20
  -8  -1 -15   27.73    0.96
  -1 -15  -8   26.17    0.73
   8   0  15   24.94    1.13
  -8   0 -15   22.40    0.91
   0 -15  -8   23.89    0.72
   1 -15  -8   25.80    0.77
  -8   1 -15   27.97    1.00
  -8  -3  15   18.32    0.74
  -8   3 -15   20.96    0.94
  -8  -4  15   17.17    0.74
  -8   4 -15   21.27    0.98
  -8  -5  15   24.35    0.89
  -8  -6  15    4.28    0.54
   9   5 -15    0.82    0.46
   9  -4  15    4.20    0.85
   9   3 -15    2.07    0.43
   9  -3  15    1.38    0.75
   9  -2  15   31.22    1.34
  -9  -2 -15   30.19    1.04
   9  -1  15    1.49    0.61
  -9  -1 -15    1.32    0.48
   9   0  15    3.69    0.71
  -9   0 -15    2.68    0.58
  -9   2 -15   29.61    1.11
  -9   3 -15    2.09    0.58
  -9  -4  15    2.09    0.51
  -9  -5  15    0.83    0.47
  -9  -6  15   19.98    0.83
  10   4 -15   12.52    0.70
 -10  -3 -15    5.41    0.63
  10  -2  15    6.81    0.84
 -10  -2 -15    5.05    0.66
  10   2 -15    5.43    0.59
  10  -1  15   10.81    1.00
  10   1 -15   11.60    0.69
  10   0  15   14.63    1.01
 -10   0 -15   16.35    0.87
 -10   1 -15   12.97    0.85
 -10  -5  15   12.33    0.73
 -11  -3 -15   12.06    0.79
  11   3 -15   10.58    0.70
 -11  -2 -15   -0.39    0.49
  11  -1  15   12.82    0.97
 -11  -1 -15    7.04    0.73
   0  16   0    0.14    0.58
   0 -16   0   -0.01    0.58
  -1  16   0   32.99    1.20
   0   1 -16   31.73    0.74
   1  16   0   34.29    1.21
   0  -1 -16   33.37    0.61
   1 -16   0   34.78    1.26
  -1 -16   0   31.40    1.15
  -2 -16   0    0.76    0.58
  -2  16   0   -0.61    0.66
   0   2 -16    0.29    0.34
   2 -16   0   -0.42    0.66
   0  -3  16   39.02    1.13
   3 -16   0   44.78    1.48
   0   4 -16    2.65    0.46
   0  -4  16    1.61    0.55
   4 -16   0    1.56    0.63
   0   5 -16   10.66    0.64
   5 -16   0   10.40    0.85
   0  -5  16    9.37    0.80
   0  -6  16    1.78    0.54
   0   7 -16   35.34    1.04
   0  -7  16   30.87    1.17
   0  -8  16    3.50    0.61
   1  -8  16   15.10    0.94
   1   7 -16   10.13    0.68
   1  -7  16    9.79    0.81
   1  -6  16    9.95    0.82
   1   5 -16   22.97    0.81
   1  -5  16   20.51    0.99
  -4 -16  -1   40.38    1.24
  -4  16   1   40.54    1.27
   1  -4  16   39.86    1.24
   1   4 -16   38.95    0.94
  -3 -16  -1   27.97    1.07
  -3  16   1   26.25    1.09
   1  -3  16   25.67    0.99
   3 -16   1   28.61    1.30
  -2 -16  -1   13.31    0.81
  -2  16   1   12.94    0.87
   1  -2  16   15.48    0.81
   1   2 -16   15.66    0.60
   2 -16   1   14.77    1.00
  -1  -1 -16   33.52    0.64
  -1  16   1   30.96    1.16
   1   1 -16   32.30    0.72
   1 -16   1   30.38    1.22
  -1 -16  -1   32.06    1.14
  -1   0 -16   57.08    0.89
   0 -16  -1   53.48    1.44
   0 -16   1   56.71    1.56
   1  16   1   28.21    1.12
  -1 -16   1   29.15    1.18
  -2 -16   1   13.60    0.90
  -1   2 -16   15.20    0.62
   2 -16  -1   13.66    0.83
   2  16   1   13.66    0.91
  -1   3 -16   26.65    0.80
  -1  -3  16   23.80    0.91
   3 -16  -1   28.42    1.21
   3  16   1   24.08    1.08
  -1   4 -16   38.84    0.98
   4 -16  -1   41.26    1.41
  -1   5 -16   19.16    0.79
   5 -16  -1   20.27    1.10
  -1  -5  16   22.43    0.95
   6 -16  -1   10.10    0.84
  -1  -6  16   12.40    0.78
  -1   7 -16   11.18    0.67
  -1  -7  16   10.84    0.75
  -1  -8  16   15.89    0.92
   2  -7  16    2.90    0.69
   2   7 -16    2.77    0.49
  -6  16   2   36.27    1.21
   2  -6  16   42.89    1.43
  -5  16   2    2.05    0.49
  -5 -16  -2    2.82    0.55
   2  -5  16    0.35    0.62
   2   5 -16    0.03    0.41
  -4  16   2    2.26    0.60
   2  -4  16    2.59    0.63
   2   4 -16    3.09    0.46
  -3 -16  -2    2.01    0.56
   2  -3  16    0.94    0.55
  -2 -16  -2   66.35    1.45
  -2  16   2   66.22    1.52
   2  -2  16   65.84    1.49
   2   2 -16   63.19    1.02
  -1 -16  -2    1.06    0.58
   2   1 -16    0.75    0.31
  -1  16   2    0.06    0.53
  -2   0 -16    0.07    0.31
   0  16   2   -0.19    0.46
   0 -16  -2   -0.51    0.53
  -2   1 -16    1.43    0.37
   1  16   2    0.42    0.49
  -2   2 -16   65.61    1.11
   2 -16  -2   63.43    1.53
   2  16   2   63.73    1.49
   3  16   2    2.41    0.61
  -2   3 -16    2.94    0.43
  -2  -3  16    1.80    0.47
   4  16   2    5.22    0.64
  -2   4 -16    4.00    0.50
   4 -16  -2    5.28    0.73
  -2  -4  16    3.52    0.55
  -2   5 -16    1.12    0.45
   5 -16  -2    0.57    0.50
  -2  -5  16    1.63    0.51
  -2   6 -16   36.03    1.03
  -2  -6  16   36.80    1.16
  -2   7 -16    2.86    0.50
   7 -16  -2    2.71    0.69
  -7  16   3    3.93    0.58
   3  -7  16    2.74    0.72
   3   7 -16    2.44    0.52
  -6 -16  -3   12.43    0.75
   3  -6  16    8.85    0.87
  -5 -16  -3   37.52    1.11
  -5  16   3   34.35    1.07
   3  -5  16   35.15    1.32
   3   5 -16   35.71    0.95
  -4  16   3   19.78    0.89
   3  -4  16   20.80    1.00
   3   4 -16   20.66    0.71
  -3 -16  -3   17.68    0.83
  -3  16   3   16.39    0.80
  -2 -16  -3   26.19    0.97
   3  -2  16   25.86    1.04
  -2  16   3   23.06    0.93
   3   1 -16   35.97    0.73
  -1  16   3   35.49    1.14
  -1 -16  -3   35.92    1.08
  -3   0 -16   22.19    0.66
   0  16   3   20.54    0.92
   0 -16  -3   19.85    0.92
   1  16   3   33.98    1.06
   1 -16  -3   35.84    1.10
   2 -16  -3   24.68    1.01
   2  16   3   25.62    0.97
   3 -16  -3   16.25    0.89
  -3  -3  16   16.29    0.73
   4  16   3   15.85    0.84
   4 -16  -3   16.82    0.91
   5 -16  -3   32.06    1.20
  -3  -5  16   33.23    1.00
  -3   6 -16   10.65    0.64
  -3  -6  16    9.01    0.71
   7 -16  -3    2.99    0.64
  -3  -7  16    3.50    0.56
   8 -16  -3   10.64    0.87
  -3  -8  16   11.45    0.75
  -8  16   4    2.52    0.58
  -7  16   4   31.65    1.04
   4   7 -16   30.14    0.96
  -6 -16  -4    2.35    0.47
   4  -6  16    2.22    0.73
   4   6 -16    2.90    0.49
   4   5 -16    8.96    0.57
  -5  16   4    7.88    0.64
   4  -5  16    7.11    0.87
  -4  16   4    3.57    0.57
   4  -4  16    1.52    0.59
  -3 -16  -4   32.09    0.99
   4   3 -16   35.50    0.83
  -3  16   4   33.75    1.06
   4  -3  16   35.21    1.27
  -2 -16  -4    3.48    0.50
   4   2 -16    4.41    0.41
   4  -2  16    3.49    0.63
  -2  16   4    3.02    0.51
  -1  16   4   24.27    0.93
  -1 -16  -4   24.42    0.90
  -4   0 -16    1.45    0.37
   0  16   4    1.04    0.50
   0 -16  -4    1.65    0.45
   1 -16  -4   22.76    0.88
   1  16   4   23.30    0.90
   2  16   4    3.53    0.59
   2 -16  -4    2.63    0.54
   3  16   4   35.90    1.10
  -4   3 -16   37.45    0.97
   3 -16  -4   36.76    1.15
  -4  -4  16    1.24    0.45
  -4   4 -16    2.90    0.46
   4  16   4    2.08    0.55
   4 -16  -4    2.03    0.59
   5  16   4    7.37    0.68
   5 -16  -4    7.51    0.68
  -4  -5  16    8.01    0.63
  -4   6 -16    2.88    0.49
   6 -16  -4    4.27    0.64
   7 -16  -4   27.31    1.09
  -4  -7  16   27.98    1.02
   8 -16  -4    6.71    0.75
   9 -16  -4    0.84    0.63
  -7  16   5   12.16    0.71
  -7 -16  -5   12.30    0.71
   5   6 -16    7.53    0.57
  -6  16   5    9.34    0.63
  -6 -16  -5    8.55    0.58
   5   5 -16    5.36    0.48
  -5 -16  -5    3.90    0.51
  -5  16   5    5.05    0.54
   5  -5  16    6.41    0.85
   5   4 -16   34.18    0.86
  -4  16   5   35.68    1.01
   5  -4  16   35.85    1.33
   5   3 -16   18.89    0.67
  -3  16   5   19.39    0.82
  -2 -16  -5    1.62    0.45
   5   2 -16    2.33    0.39
  -2  16   5    1.34    0.47
  -1  16   5   12.57    0.71
  -1 -16  -5   13.56    0.68
   0 -16  -5   54.93    1.18
  -5   0 -16   54.05    1.06
   1 -16  -5   11.60    0.68
   1  16   5   13.11    0.72
  -5   1 -16   12.25    0.62
  -5   2 -16    2.81    0.46
   2 -16  -5    0.36    0.49
   3  16   5   19.20    0.81
   3 -16  -5   17.81    0.84
  -5  -4  16   38.24    1.00
   4  16   5   35.52    1.07
   4 -16  -5   35.07    1.08
  -5   5 -16    4.78    0.52
   5  16   5    3.79    0.53
   5 -16  -5    4.68    0.59
  -5  -6  16    7.17    0.63
   6 -16  -5    7.35    0.72
  -5  -7  16   11.47    0.75
   7 -16  -5   11.25    0.78
   8 -16  -5   12.73    0.78
   9 -16  -5    2.20    0.58
  -7 -16  -6    6.31    0.56
   6   6 -16   20.23    0.79
  -6 -16  -6   23.63    0.80
   6  -6  16   21.01    1.23
  -5 -16  -6    2.82    0.43
   6  -5  16    5.56    0.83
  -4 -16  -6    3.82    0.47
   6   4 -16    3.15    0.43
   6  -4  16    3.52    0.78
  -3 -16  -6    5.40    0.51
   6  -3  16    4.86    0.74
   6   3 -16    4.34    0.46
  -2 -16  -6   37.35    0.95
   6  -2  16   36.55    1.31
  -2  16   6   39.64    1.01
  -1  16   6    3.48    0.50
  -1 -16  -6    4.65    0.51
   0  16   6    0.50    0.40
  -6   0 -16    1.36    0.42
   1 -16  -6    4.20    0.51
  -6   1 -16    3.12    0.49
   2  16   6   35.03    0.96
   2 -16  -6   35.54    1.00
   3 -16  -6    4.93    0.56
  -6   3 -16    5.37    0.58
  -6   4 -16    2.03    0.49
   4  16   6    2.38    0.49
   4 -16  -6    1.89    0.52
  -6   5 -16    4.51    0.60
   5 -16  -6    3.44    0.54
   6 -16  -6   19.03    0.86
   6  16   6   18.69    0.87
  -6  -7  16    4.18    0.57
   7 -16  -6    4.41    0.67
  -8 -16  -7    4.29    0.53
  -7 -16  -7    1.64    0.42
  -6 -16  -7    7.57    0.56
   7   6 -16    4.23    0.54
  -5 -16  -7   25.42    0.78
   7  -5  16   22.16    1.19
   7   5 -16   22.67    0.80
  -4 -16  -7    5.33    0.48
   7  -4  16    5.07    0.74
   7   4 -16    4.00    0.49
  -3 -16  -7    9.55    0.56
   7  -3  16    7.76    0.85
   7   3 -16    7.43    0.55
   7   2 -16   15.57    0.65
  -2 -16  -7   14.67    0.64
  -1 -16  -7   22.16    0.74
  -7   0 -16    2.50    0.48
   0 -16  -7    2.11    0.40
   1 -16  -7   23.05    0.78
  -7   1 -16   26.00    0.88
   2 -16  -7   15.09    0.70
  -7   2 -16   16.92    0.76
  -7   3 -16    8.82    0.69
  -7   4 -16    3.76    0.59
  -7  -6  16    6.53    0.60
   8   5 -16    2.99    0.49
   8  -4  16    1.33    0.75
   8  -3  16   19.44    1.15
   8  -2  16    7.88    0.86
  -8   0 -16    2.14    0.50
  -8   1 -16   13.41    0.72
  -8   2 -16   10.27    0.69
  -8   3 -16   16.55    0.83
   9  -3  16    6.24    0.86
   9   3 -16    6.82    0.57
   9  -2  16    0.20    0.67
  -9   1 -16    4.56    0.61
  -9   2 -16    2.64    0.57
  10   4 -16    1.82    0.44
  10  -2  16   14.76    1.00
 -10  -1 -16    6.57    0.67
 -10   0 -16   -0.32    0.55
   0   3 -17    3.33    0.43
   0   4 -17    1.51    0.43
   0   5 -17    2.94    0.46
   0  -5  17    2.98    0.63
   0   6 -17   18.35    0.75
   0  -6  17   16.35    0.87
   0  -7  17    2.45    0.60
   1  -7  17    4.18    0.70
   1   6 -17    9.76    0.63
   1  -6  17    8.95    0.77
   1  -5  17   28.14    1.10
   1   5 -17   23.85    0.78
   1   4 -17   24.79    0.77
   1   3 -17   15.15    0.63
   1   2 -17   14.84    0.57
  -1 -17  -1   29.04    1.11
   0 -17  -1   27.95    1.08
   1 -17  -1   29.83    1.16
   2 -17  -1   13.42    0.90
  -1   3 -17   14.72    0.63
   3 -17  -1   16.40    0.97
  -1   4 -17   22.06    0.76
  -1   5 -17   27.14    0.86
  -1   6 -17    9.33    0.65
  -1  -6  17    8.55    0.71
  -1  -7  17    4.37    0.61
   2  -7  17   11.41    0.93
   2  -6  17    0.68    0.57
   2   6 -17   -0.17    0.40
   2  -5  17    4.27    0.65
   2   5 -17    4.67    0.50
   2   4 -17    3.39    0.44
  -3 -17  -2   15.21    0.81
  -2  17   2    1.12    0.55
  -1  17   2   11.66    0.76
  -1 -17  -2   10.47    0.71
   0  17   2    5.88    0.61
   0 -17  -2    3.78    0.49
   1 -17  -2   13.06    0.81
   2 -17  -2    0.02    0.58
  -2   3 -17   15.79    0.65
   3 -17  -2   14.20    0.91
  -2   4 -17    5.55    0.52
   4 -17  -2    3.57    0.64
   5 -17  -2    5.57    0.68
  -2   6 -17    0.31    0.41
  -2  -6  17    0.49    0.49
  -2  -7  17   12.57    0.80
   3  -6  17    8.70    0.81
   3   6 -17    8.81    0.59
   3  -5  17    8.78    0.77
   3   5 -17   10.23    0.59
  -4 -17  -3   32.31    1.02
  -4  17   3   32.20    1.03
   3   4 -17   31.65    0.83
  -3 -17  -3   16.12    0.83
  -3  17   3   16.69    0.83
  -2 -17  -3    5.49    0.61
  -2  17   3    4.84    0.63
  -1  17   3   14.82    0.83
  -1 -17  -3   14.91    0.81
   0  17   3   45.74    1.23
   0 -17  -3   50.19    1.26
  -3   1 -17   15.97    0.60
   1 -17  -3   13.70    0.75
   1  17   3   14.05    0.81
   2 -17  -3    6.58    0.66
   2  17   3    4.90    0.64
  -3   3 -17   16.13    0.65
   3 -17  -3   15.82    0.86
  -3   4 -17   31.76    0.90
   4 -17  -3   28.68    1.06
  -3   5 -17   11.17    0.66
   5 -17  -3    7.02    0.75
  -3   6 -17   11.22    0.64
   6 -17  -3    8.56    0.75
  -3  -7  17    8.44    0.70
  -6  17   4   14.46    0.74
   4  -6  17   14.40    1.02
  -5  17   4    3.02    0.55
  -4 -17  -4    1.70    0.47
   4   3 -17    2.02    0.38
  -3  17   4    2.69    0.57
  -2 -17  -4   23.24    0.87
  -2  17   4   19.32    0.86
  -1  17   4    3.54    0.57
  -1 -17  -4    3.43    0.48
   0  17   4   -0.47    0.46
   0 -17  -4    0.76    0.43
   1 -17  -4    3.46    0.50
   1  17   4    2.86    0.51
   2  17   4   19.62    0.85
  -4   2 -17   22.17    0.74
   2 -17  -4   22.01    0.91
   3  17   4    3.04    0.55
  -4   3 -17    2.55    0.46
   3 -17  -4    1.40    0.48
   4 -17  -4    2.00    0.58
   5 -17  -4    2.31    0.55
   6 -17  -4   14.20    0.81
  -4  -7  17    2.20    0.55
   5   6 -17    5.84    0.50
   5  -6  17    7.85    0.84
   5  -5  17   24.99    1.20
  -4 -17  -5    6.07    0.51
  -3 -17  -5    9.17    0.58
  -3  17   5   10.55    0.69
  -2 -17  -5   16.44    0.74
  -2  17   5   13.95    0.74
  -1  17   5   25.68    0.88
  -1 -17  -5   24.80    0.85
   0  17   5    4.94    0.53
   0 -17  -5    4.99    0.56
  -5   1 -17   28.79    0.81
   1 -17  -5   28.58    0.91
  -5   2 -17   15.37    0.67
   2 -17  -5   15.03    0.76
  -5   3 -17    9.81    0.61
   3  17   5    8.50    0.61
   3 -17  -5    8.51    0.71
   4  17   5    4.84    0.53
   4 -17  -5    5.57    0.61
  -5   5 -17   28.39    0.93
   5 -17  -5   26.26    0.98
   6 -17  -5    5.68    0.61
   7 -17  -5    2.64    0.52
   8 -17  -5    3.49    0.60
  -6 -17  -6    2.12    0.43
   6   6 -17    0.76    0.43
   6  -5  17    1.89    0.65
  -4 -17  -6    3.41    0.47
  -3 -17  -6   10.18    0.58
  -2 -17  -6    1.14    0.41
  -1 -17  -6    6.08    0.53
   0 -17  -6    4.34    0.50
   1 -17  -6    8.73    0.61
  -6   1 -17    7.24    0.56
   2 -17  -6    2.02    0.51
  -6   2 -17    3.45    0.51
   3 -17  -6    8.40    0.64
  -6   4 -17    3.33    0.54
   7   5 -17    0.09    0.44
  -7   1 -17    4.19    0.53
  -7   3 -17    7.56    0.63
  -8   2 -17   11.27    0.70
   0   6 -18    2.91    0.51
  -1   6 -18    8.64    0.61
   3   6 -18   12.03    0.64
   0 -18  -3    1.31    0.49
   1 -18  -3    5.18    0.55
   2 -18  -3   22.51    0.92
   3 -18  -3    6.11    0.64
  -2 -18  -4    2.75    0.52
  -1  18   4    2.95    0.49
  -1 -18  -4    2.97    0.55
   1 -18  -4    1.16    0.46
   2 -18  -4    1.78    0.53
   3 -18  -4    2.52    0.57
  -4   4 -18   17.40    0.74
   4 -18  -4   15.51    0.85
  -4   5 -18    2.43    0.50
   5 -18  -4    1.30    0.53
  -3 -18  -5   12.79    0.64
  -2 -18  -5    4.38    0.49
  -1 -18  -5    8.41    0.60
   0 -18  -5    2.17    0.46
   1 -18  -5    7.96    0.59
   2 -18  -5    4.28    0.56
   3 -18  -5   13.65    0.72
  -5   4 -18    0.48    0.47
   4 -18  -5    1.26    0.50
  -4 -18  -6    2.29    0.43
  -3 -18  -6    6.49    0.51
   0   0   0    0.00    0.00

TITL MnSi_high in P2(1)3
REM P2(1)3 (#198 in standard setting)
CELL 0.15800   4.565868   4.566202   4.566202  90.0000  90.0000  90.0000
ZERR    4.00   0.000105   0.000059   0.000059   0.0000   0.0000   0.0000
LATT -1
SYMM -x+1/2,-y, z+1/2
SYMM -x, y+1/2,-z+1/2
SYMM  x+1/2,-y+1/2,-z
SYMM  z, x, y
SYMM  z+1/2,-x+1/2,-y
SYMM -z+1/2,-x, y+1/2
SYMM -z, x+1/2,-y+1/2
SYMM  y, z, x
SYMM -y, z+1/2,-x+1/2
SYMM  y+1/2,-z+1/2,-x
SYMM -y+1/2,-z, x+1/2
SFAC Si Mn
UNIT 4.00 4.00
TREF
HKLF 4
END
_computing_structure_solution     'SHELXT 2014/5 (Sheldrick, 2014)'
;
_shelx_hkl_checksum              91008
loop_
_space_group_symop_operation_xyz
'x, y, z'
'-x+1/2, -y, z+1/2'
'-x, y+1/2, -z+1/2'
'x+1/2, -y+1/2, -z'
'z, x, y'
'z+1/2, -x+1/2, -y'
'-z+1/2, -x, y+1/2'
'-z, x+1/2, -y+1/2'
'y, z, x'
'-y, z+1/2, -x+1/2'
'y+1/2, -z+1/2, -x'
'-y+1/2, -z, x+1/2'
loop_
_atom_site_label
_atom_site_type_symbol
_atom_site_fract_x
_atom_site_fract_y
_atom_site_fract_z
_atom_site_U_iso_or_equiv
_atom_site_adp_type
_atom_site_occupancy
_atom_site_site_symmetry_order
_atom_site_calc_flag
_atom_site_refinement_flags_posn
_atom_site_refinement_flags_adp
_atom_site_refinement_flags_occupancy
Mn01 Mn 0.13688(2) 0.13688(2) 0.13688(2) 0.00446(1) Uani 1 3 d S T P
Si02 Si -0.15445(4) -0.15445(4) -0.15445(4) 0.00570(3) Uani 1 3 d S T P
loop_
_atom_site_aniso_label
_atom_site_aniso_U_11
_atom_site_aniso_U_22
_atom_site_aniso_U_33
_atom_site_aniso_U_23
_atom_site_aniso_U_13
_atom_site_aniso_U_12
Mn01 0.00446(1) 0.00446(1) 0.00446(1) -0.00004(1) -0.00004(1) -0.00004(1)
Si02 0.00570(3) 0.00570(3) 0.00570(3) -0.00061(3) -0.00061(3) -0.00061(3)
loop_
_atom_type_symbol
_atom_type_description
_atom_type_scat_dispersion_real
_atom_type_scat_dispersion_imag
_atom_type_scat_source
Si Si -0.0074 0.0028 'International Tables Vol C Tables 4.2.6.8 and 6.1.1.4'
Mn Mn 0.0004 0.0375 'International Tables Vol C Tables 4.2.6.8 and 6.1.1.4'
loop_
_geom_angle_atom_site_label_1
_geom_angle_atom_site_label_2
_geom_angle_atom_site_label_3
_geom_angle
_geom_angle_site_symmetry_1
_geom_angle_site_symmetry_3
Si02 Mn01 Si02 73.666(2) . 4_545
Si02 Mn01 Si02 73.666(2) . 3_554
Si02 Mn01 Si02 112.418(2) 4_545 3_554
Si02 Mn01 Si02 73.666(2) . 2_455
Si02 Mn01 Si02 112.418(2) 4_545 2_455
Si02 Mn01 Si02 112.418(2) 3_554 2_455
Si02 Mn01 Si02 140.278(2) . 4
Si02 Mn01 Si02 134.507(7) 4_545 4
Si02 Mn01 Si02 69.425(3) 3_554 4
Si02 Mn01 Si02 107.420(10) 2_455 4
Si02 Mn01 Si02 140.278(2) . 3
Si02 Mn01 Si02 107.420(10) 4_545 3
Si02 Mn01 Si02 134.507(7) 3_554 3
Si02 Mn01 Si02 69.425(3) 2_455 3
Si02 Mn01 Si02 67.207(3) 4 3
Si02 Mn01 Si02 140.278(2) . 2
Si02 Mn01 Si02 69.425(3) 4_545 2
Si02 Mn01 Si02 107.420(10) 3_554 2
Si02 Mn01 Si02 134.507(7) 2_455 2
Si02 Mn01 Si02 67.207(3) 4 2
Si02 Mn01 Si02 67.207(3) 3 2
Si02 Mn01 Mn01 58.974(3) . 2_554
Si02 Mn01 Mn01 58.090(5) 4_545 2_554
Si02 Mn01 Mn01 54.334(4) 3_554 2_554
Si02 Mn01 Mn01 132.594(5) 2_455 2_554
Si02 Mn01 Mn01 107.552(6) 4 2_554
Si02 Mn01 Mn01 155.640(6) 3 2_554
Si02 Mn01 Mn01 88.669(3) 2 2_554
Si02 Mn01 Mn01 58.974(3) . 3_545
Si02 Mn01 Mn01 54.334(4) 4_545 3_545
Si02 Mn01 Mn01 132.594(5) 3_554 3_545
Si02 Mn01 Mn01 58.090(5) 2_455 3_545
Si02 Mn01 Mn01 155.640(6) 4 3_545
Si02 Mn01 Mn01 88.669(3) 3 3_545
Si02 Mn01 Mn01 107.552(6) 2 3_545
Mn01 Mn01 Mn01 95.826(4) 2_554 3_545
Si02 Mn01 Mn01 58.974(3) . 4_455
Si02 Mn01 Mn01 132.594(5) 4_545 4_455
Si02 Mn01 Mn01 58.090(5) 3_554 4_455
Si02 Mn01 Mn01 54.334(4) 2_455 4_455
Si02 Mn01 Mn01 88.669(3) 4 4_455
Si02 Mn01 Mn01 107.552(6) 3 4_455
Si02 Mn01 Mn01 155.640(6) 2 4_455
Mn01 Mn01 Mn01 95.826(4) 2_554 4_455
Mn01 Mn01 Mn01 95.826(4) 3_545 4_455
Si02 Mn01 Mn01 115.212(3) . 3
Si02 Mn01 Mn01 155.872(5) 4_545 3
Si02 Mn01 Mn01 91.709(4) 3_554 3
Si02 Mn01 Mn01 54.333(4) 2_455 3
Si02 Mn01 Mn01 53.091(6) 4 3
Si02 Mn01 Mn01 50.756(7) 3 3
Si02 Mn01 Mn01 104.492(4) 2 3
Mn01 Mn01 Mn01 146.030(1) 2_554 3
Mn01 Mn01 Mn01 109.2 3_545 3
Mn01 Mn01 Mn01 60.0 4_455 3
Si02 Mn01 Mn01 115.212(3) . 2
Si02 Mn01 Mn01 54.333(4) 4_545 2
Si02 Mn01 Mn01 155.872(5) 3_554 2
Si02 Mn01 Mn01 91.709(4) 2_455 2
Si02 Mn01 Mn01 104.492(4) 4 2
Si02 Mn01 Mn01 53.091(6) 3 2
Si02 Mn01 Mn01 50.756(7) 2 2
Mn01 Mn01 Mn01 109.2 2_554 2
Mn01 Mn01 Mn01 60.0 3_545 2
Mn01 Mn01 Mn01 146.030(1) 4_455 2
Mn01 Mn01 Mn01 103.169(3) 3 2
Mn01 Si02 Mn01 137.680(5) . 3_544
Mn01 Si02 Mn01 137.680(5) . 2_454
Mn01 Si02 Mn01 71.333(7) 3_544 2_454
Mn01 Si02 Mn01 137.680(5) . 4_445
Mn01 Si02 Mn01 71.333(7) 3_544 4_445
Mn01 Si02 Mn01 71.333(7) 2_454 4_445
Mn01 Si02 Mn01 70.270(6) . 4_455
Mn01 Si02 Mn01 114.152(5) 3_544 4_455
Mn01 Si02 Mn01 68.819(2) 2_454 4_455
Mn01 Si02 Mn01 134.507(7) 4_445 4_455
Mn01 Si02 Mn01 70.270(6) . 2_554
Mn01 Si02 Mn01 68.819(2) 3_544 2_554
Mn01 Si02 Mn01 134.507(7) 2_454 2_554
Mn01 Si02 Mn01 114.152(5) 4_445 2_554
Mn01 Si02 Mn01 109.211(6) 4_455 2_554
Mn01 Si02 Mn01 70.270(6) . 3_545
Mn01 Si02 Mn01 134.507(7) 3_544 3_545
Mn01 Si02 Mn01 114.152(5) 2_454 3_545
Mn01 Si02 Mn01 68.819(2) 4_445 3_545
Mn01 Si02 Mn01 109.211(6) 4_455 3_545
Mn01 Si02 Mn01 109.211(6) 2_554 3_545
Mn01 Si02 Si02 54.750(9) . 4_545
Mn01 Si02 Si02 107.985(7) 3_544 4_545
Mn01 Si02 Si02 161.951(7) 2_454 4_545
Mn01 Si02 Si02 91.184(2) 4_445 4_545
Mn01 Si02 Si02 124.980(15) 4_455 4_545
Mn01 Si02 Si02 56.396(1) 2_554 4_545
Mn01 Si02 Si02 52.817(7) 3_545 4_545
Mn01 Si02 Si02 54.750(9) . 3_554
Mn01 Si02 Si02 91.184(2) 3_544 3_554
Mn01 Si02 Si02 107.985(7) 2_454 3_554
Mn01 Si02 Si02 161.951(7) 4_445 3_554
Mn01 Si02 Si02 56.396(1) 4_455 3_554
Mn01 Si02 Si02 52.817(7) 2_554 3_554
Mn01 Si02 Si02 124.980(15) 3_545 3_554
Si02 Si02 Si02 90.020(12) 4_545 3_554
Mn01 Si02 Si02 54.750(9) . 2_455
Mn01 Si02 Si02 161.951(7) 3_544 2_455
Mn01 Si02 Si02 91.184(2) 2_454 2_455
Mn01 Si02 Si02 107.985(7) 4_445 2_455
Mn01 Si02 Si02 52.817(7) 4_455 2_455
Mn01 Si02 Si02 124.980(15) 2_554 2_455
Mn01 Si02 Si02 56.396(1) 3_545 2_455
Si02 Si02 Si02 90.020(12) 4_545 2_455
Si02 Si02 Si02 90.020(12) 3_554 2_455
Mn01 Si02 Si02 110.920(9) . 3_544
Mn01 Si02 Si02 51.584(8) 3_544 3_544
Mn01 Si02 Si02 111.274(14) 2_454 3_544
Mn01 Si02 Si02 57.758(4) 4_445 3_544
Mn01 Si02 Si02 161.178(4) 4_455 3_544
Mn01 Si02 Si02 56.396(1) 2_554 3_544
Mn01 Si02 Si02 88.197(4) 3_545 3_544
Si02 Si02 Si02 60.0 4_545 3_544
Si02 Si02 Si02 108.006(3) 3_554 3_544
Si02 Si02 Si02 144.009(6) 2_455 3_544
Mn01 Si02 Si02 110.920(9) . 2_454
Mn01 Si02 Si02 57.758(4) 3_544 2_454
Mn01 Si02 Si02 51.584(8) 2_454 2_454
Mn01 Si02 Si02 111.274(14) 4_445 2_454
Mn01 Si02 Si02 56.396(1) 4_455 2_454
Mn01 Si02 Si02 88.197(4) 2_554 2_454
Mn01 Si02 Si02 161.177(4) 3_545 2_454
Si02 Si02 Si02 144.009(6) 4_545 2_454
Si02 Si02 Si02 60.0 3_554 2_454
Si02 Si02 Si02 108.006(4) 2_455 2_454
Si02 Si02 Si02 107.985(9) 3_544 2_454
loop_
_geom_bond_atom_site_label_1
_geom_bond_atom_site_label_2
_geom_bond_distance
_geom_bond_site_symmetry_2
Mn01 Si02 2.3040(3) .
Mn01 Si02 2.4014(2) 4_545
Mn01 Si02 2.4014(2) 3_554
Mn01 Si02 2.4014(2) 2_455
Mn01 Si02 2.54946(13) 4
Mn01 Si02 2.54946(13) 3
Mn01 Si02 2.54946(13) 2
Mn01 Mn01 2.80041(6) 2_554
Mn01 Mn01 2.80041(6) 3_545
Mn01 Mn01 2.80041(6) 4_455
Mn01 Mn01 2.80043(6) 3
Mn01 Mn01 2.80043(7) 2
Si02 Mn01 2.4015(2) 3_544
Si02 Mn01 2.4015(2) 2_454
Si02 Mn01 2.4015(2) 4_445
Si02 Mn01 2.54944(13) 4_455
Si02 Mn01 2.54944(14) 2_554
Si02 Mn01 2.54944(13) 3_545
Si02 Si02 2.82196(9) 4_545
Si02 Si02 2.82196(9) 3_554
Si02 Si02 2.82196(8) 2_455
Si02 Si02 2.82197(9) 3_544
Si02 Si02 2.82197(9) 2_454
