#------------------------------------------------------------------------------
#$Date: 2017-03-04 16:22:02 +0200 (Sat, 04 Mar 2017) $
#$Revision: 193599 $
#$URL: file:///home/coder/svn-repositories/cod/cif/4/03/21/4032146.cif $
#------------------------------------------------------------------------------
#
# This file is available in the Crystallography Open Database (COD),
# http://www.crystallography.net/
#
# All data on this site have been placed in the public domain by the
# contributors.
#
data_4032146
loop_
_publ_author_name
'Miyoshi, Hirokazu'
'Miki, Masahito'
'Hirano, Shintaro'
'Shimizu, Akihiro'
'Kishi, Ryohei'
'Fukuda, Kotaro'
'Shiomi, Daisuke'
'Sato, Kazunobu'
'Takui, Takeji'
'Hisaki, Ichiro'
'Nakano, Masayoshi'
'Tobe, Yoshito'
_publ_section_title
;
 Fluoreno[2,3-b]fluorene vs Indeno[2,1-b]fluorene: Unusual Relationship
 between the Number of \p Electrons and Excitation Energy in
 m-Quinodimethane-Type Singlet Diradicaloids.
;
_journal_issue                   3
_journal_name_full               'The Journal of organic chemistry'
_journal_page_first              1380
_journal_page_last               1388
_journal_paper_doi               10.1021/acs.joc.6b02500
_journal_volume                  82
_journal_year                    2017
_chemical_formula_moiety         'C51 H43'
_chemical_formula_sum            'C51 H43'
_chemical_formula_weight         655.90
_space_group_crystal_system      monoclinic
_space_group_IT_number           14
_space_group_name_Hall           '-P 2yn'
_space_group_name_H-M_alt        'P 1 21/n 1'
_symmetry_space_group_name_Hall  '-P 2yn'
_symmetry_space_group_name_H-M   'P 1 21/n 1'
_atom_sites_solution_hydrogens   geom
_atom_sites_solution_primary     direct
_atom_sites_solution_secondary   difmap
_cell_angle_alpha                90.0000
_cell_angle_beta                 101.6294(7)
_cell_angle_gamma                90.0000
_cell_formula_units_Z            4
_cell_length_a                   19.8806(4)
_cell_length_b                   7.95310(10)
_cell_length_c                   24.0117(5)
_cell_measurement_reflns_used    25168
_cell_measurement_temperature    93
_cell_measurement_theta_max      28.745
_cell_measurement_theta_min      1.673
_cell_volume                     3718.61(12)
_computing_cell_refinement       HKL2000
_computing_data_collection       HKL2000
_computing_data_reduction        HKL2000
_computing_molecular_graphics    'CrystalStructure 4.2'
_computing_publication_material  'CrystalStructure 4.2 (Rigaku, 2015)'
_computing_structure_refinement  'SHELXL Version 2014/7 (Sheldrick, 2008)'
_computing_structure_solution    'SHELXD Version 2013/2 (Sheldrick, 2008)'
_diffrn_ambient_temperature      93
_diffrn_measured_fraction_theta_full 0.990
_diffrn_measured_fraction_theta_max 0.989
_diffrn_measurement_device_type  'SPring-8, BL38B1, CCD(MX225HE Rayonix)'
_diffrn_radiation_type           synchrotron
_diffrn_radiation_wavelength     0.80000
_diffrn_reflns_av_R_equivalents  0.041
_diffrn_reflns_Laue_measured_fraction_full 0.990
_diffrn_reflns_Laue_measured_fraction_max 0.989
_diffrn_reflns_limit_h_max       23
_diffrn_reflns_limit_h_min       0
_diffrn_reflns_limit_k_max       9
_diffrn_reflns_limit_k_min       0
_diffrn_reflns_limit_l_max       28
_diffrn_reflns_limit_l_min       -28
_diffrn_reflns_number            25168
_diffrn_reflns_point_group_measured_fraction_full 0.990
_diffrn_reflns_point_group_measured_fraction_max 0.989
_diffrn_reflns_theta_full        28.685
_diffrn_reflns_theta_max         28.745
_diffrn_reflns_theta_min         1.673
_diffrn_standards_number         0
_exptl_absorpt_coefficient_mu    0.000
_exptl_absorpt_correction_type   none
_exptl_crystal_colour            green
_exptl_crystal_density_diffrn    1.171
_exptl_crystal_density_method    'not measured'
_exptl_crystal_description       plate
_exptl_crystal_F_000             1396.00
_exptl_crystal_size_max          0.20
_exptl_crystal_size_mid          0.03
_exptl_crystal_size_min          0.02
_refine_diff_density_max         0.16
_refine_diff_density_min         -0.19
_refine_ls_extinction_method     none
_refine_ls_goodness_of_fit_ref   1.065
_refine_ls_hydrogen_treatment    constr
_refine_ls_number_parameters     467
_refine_ls_number_reflns         6705
_refine_ls_number_restraints     0
_refine_ls_R_factor_all          0.0568
_refine_ls_R_factor_gt           0.0488
_refine_ls_shift/su_max          0.001
_refine_ls_structure_factor_coef Fsqd
_refine_ls_weighting_details
'w = 1/[\s^2^(Fo^2^)+(0.0650P)^2^+1.2950P] where P=(Fo^2^+2Fc^2^)/3'
_refine_ls_weighting_scheme      calc
_refine_ls_wR_factor_gt          0.1253
_refine_ls_wR_factor_ref         0.1329
_reflns_Friedel_coverage         0.000
_reflns_number_gt                5787
_reflns_number_total             6705
_reflns_threshold_expression     F^2^>2.0\s(F^2^)
_cod_data_source_file            jo6b02500_si_002.cif
_cod_data_source_block           6b
_cod_depositor_comments          'Adding full bibliography for 4032146.cif.'
_cod_database_code               4032146
_shelx_res_file
;

    shelxl.res created by SHELXL-2014/7


TITL Template texray.inf
CELL  0.80000 19.88060 7.95310 24.01170 90.000 101.629 90.000
ZERR  4 0.00040 0.00010 0.00050 0.000 0.001 0.000
LATT 1
SYMM 1/2-X, 1/2+Y, 1/2-Z
SFAC C H
DISP H 0.000  0.000  0.64
UNIT 204 172
SHEL 99999.000000 0.831620
L.S. 100
FMAP 2
PLAN -25
WPDB -2
HTAB
BOND $H
CONF
LIST 4
TEMP -180
ACTA
WGHT    0.065000    1.295000
FVAR       1.38718   0.49299
C1    1    0.935356    0.893746    0.259762    11.00000    0.04178    0.02640 =
         0.02617   -0.00055    0.00313   -0.00119
C2    1    0.903683    0.826572    0.206369    11.00000    0.04553    0.02559 =
         0.02709   -0.00158    0.00488    0.00128
AFIX  43
H2    2    0.928182    0.755131    0.187103    11.00000   -1.20000
AFIX   0
C3    1    0.836101    0.867156    0.182711    11.00000    0.04283    0.02477 =
         0.02528    0.00033    0.00150    0.00008
C4    1    0.791749    0.815051    0.130732    11.00000    0.04476    0.02414 =
         0.02682   -0.00062    0.00089   -0.00060
C5    1    0.727233    0.895399    0.128427    11.00000    0.04431    0.02513 =
         0.02664    0.00164    0.00039    0.00030
C6    1    0.665481    0.885513    0.087511    11.00000    0.04964    0.02814 =
         0.02959   -0.00087   -0.00138   -0.00086
AFIX  43
H6    2    0.662800    0.820215    0.055008    11.00000   -1.20000
AFIX   0
C7    1    0.609294    0.974458    0.096675    11.00000    0.04595    0.03221 =
         0.03623    0.00080   -0.00534    0.00238
AFIX  43
H7    2    0.568378    0.968742    0.069959    11.00000   -1.20000
AFIX   0
C8    1    0.612490    1.073645    0.145536    11.00000    0.04708    0.03415 =
         0.03617    0.00131    0.00095    0.00685
AFIX  43
H8    2    0.573642    1.131817    0.150728    11.00000   -1.20000
AFIX   0
C9    1    0.672543    1.086117    0.186050    11.00000    0.04767    0.03088 =
         0.02970   -0.00098    0.00132    0.00520
AFIX  43
H9    2    0.674433    1.152778    0.218150    11.00000   -1.20000
AFIX   0
C10   1    0.730116    0.997132    0.177938    11.00000    0.04556    0.02603 =
         0.02586    0.00152    0.00191    0.00063
C11   1    0.798504    0.981404    0.212184    11.00000    0.04327    0.02501 =
         0.02670    0.00025    0.00256    0.00140
C12   1    0.829326    1.050289    0.263384    11.00000    0.04410    0.02743 =
         0.02745   -0.00061    0.00360    0.00276
AFIX  43
H12   2    0.805187    1.126162    0.281386    11.00000   -1.20000
AFIX   0
C13   1    0.897399    1.006826    0.288924    11.00000    0.04320    0.02593 =
         0.02732   -0.00106    0.00291   -0.00028
C14   1    0.928497    1.069818    0.343009    11.00000    0.04607    0.02903 =
         0.02813   -0.00310    0.00447    0.00099
AFIX  43
H14   2    0.904195    1.142743    0.361938    11.00000   -1.20000
AFIX   0
C15   1    0.994023    1.024404    0.367724    11.00000    0.04440    0.02830 =
         0.02667   -0.00212    0.00203   -0.00067
C16   1    1.036957    1.065110    0.422089    11.00000    0.04605    0.02928 =
         0.02836   -0.00168    0.00102   -0.00187
C17   1    1.024752    1.158159    0.468204    11.00000    0.05107    0.03263 =
         0.03078   -0.00332    0.00234    0.00131
AFIX  43
H17   2    0.982845    1.211789    0.466649    11.00000   -1.20000
AFIX   0
C18   1    1.076187    1.169206    0.516341    11.00000    0.05992    0.03629 =
         0.03034   -0.00465   -0.00009   -0.00099
AFIX  43
H18   2    1.068356    1.230536    0.547394    11.00000   -1.20000
AFIX   0
C19   1    1.139760    1.090224    0.519414    11.00000    0.05510    0.04341 =
         0.03009   -0.00434   -0.00794   -0.00034
AFIX  43
H19   2    1.173639    1.101916    0.552092    11.00000   -1.20000
AFIX   0
C20   1    1.152905    0.995545    0.474831    11.00000    0.04755    0.03888 =
         0.03355   -0.00222   -0.00370    0.00060
AFIX  43
H20   2    1.195109    0.942643    0.477219    11.00000   -1.20000
AFIX   0
C21   1    1.101004    0.980322    0.425364    11.00000    0.04510    0.03193 =
         0.03058   -0.00013   -0.00025   -0.00075
C22   1    1.099485    0.886397    0.374671    11.00000    0.04268    0.03032 =
         0.02880   -0.00034    0.00026   -0.00097
C23   1    1.033125    0.912754    0.338763    11.00000    0.04234    0.02780 =
         0.02760   -0.00029    0.00260   -0.00051
C24   1    1.003707    0.849358    0.285699    11.00000    0.04242    0.02753 =
         0.02798   -0.00114    0.00449    0.00030
AFIX  43
H24   2    1.028758    0.777597    0.267023    11.00000   -1.20000
AFIX   0
C25   1    0.808929    0.705412    0.085901    11.00000    0.04073    0.02881 =
         0.02569   -0.00285    0.00005   -0.00182
C26   1    0.814937    0.776637    0.033596    11.00000    0.04653    0.03241 =
         0.02777   -0.00154    0.00033   -0.00318
C27   1    0.828439    0.672828   -0.009483    11.00000    0.05321    0.03911 =
         0.02702   -0.00171    0.00363   -0.00331
AFIX  43
H27   2    0.831857    0.719922   -0.044255    11.00000   -1.20000
AFIX   0
C28   1    0.836907    0.500941   -0.001776    11.00000    0.05106    0.03861 =
         0.03109   -0.00793    0.00381   -0.00135
C29   1    0.831547    0.432923    0.050526    11.00000    0.05091    0.02616 =
         0.03554   -0.00514    0.00048    0.00069
AFIX  43
H29   2    0.837759    0.317841    0.056231    11.00000   -1.20000
AFIX   0
C30   1    0.817251    0.531047    0.094409    11.00000    0.04332    0.02892 =
         0.02996   -0.00201    0.00063   -0.00114
C31   1    0.808220    0.963710    0.023757    11.00000    0.06752    0.03333 =
         0.03509    0.00305    0.00661   -0.00172
AFIX 137
H31A  2    0.760732    0.995301    0.018249    11.00000   -1.20000
H31B  2    0.825729    0.992929   -0.009421    11.00000   -1.20000
H31C  2    0.833925    1.021980    0.056179    11.00000   -1.20000
AFIX   0
C32   1    0.849096    0.390460   -0.049577    11.00000    0.07727    0.04779 =
         0.03883   -0.01290    0.01020    0.00319
PART 1
AFIX 137
H32A  2    0.896848    0.360999   -0.043504    21.00000   -1.20000
H32B  2    0.836222    0.449724   -0.084954    21.00000   -1.20000
H32C  2    0.822002    0.290110   -0.050794    21.00000   -1.20000
AFIX 137
PART 2
H32D  2    0.877181    0.296566   -0.034280   -21.00000   -1.20000
H32E  2    0.872002    0.453910   -0.074245   -21.00000   -1.20000
H32F  2    0.805891    0.350357   -0.070728   -21.00000   -1.20000
AFIX   0
PART 0
C33   1    0.807432    0.449486    0.149019    11.00000    0.06032    0.03081 =
         0.03597    0.00272    0.00762    0.00125
AFIX 137
H33A  2    0.841910    0.489772    0.180044    11.00000   -1.20000
H33B  2    0.811404    0.329689    0.145985    11.00000   -1.20000
H33C  2    0.762742    0.477159    0.155736    11.00000   -1.20000
AFIX   0
C34   1    1.156404    0.779838    0.363607    11.00000    0.04058    0.03274 =
         0.02509   -0.00282   -0.00267   -0.00015
C35   1    1.205957    0.847934    0.335692    11.00000    0.04585    0.03216 =
         0.02682   -0.00065   -0.00062   -0.00065
C36   1    1.260638    0.747992    0.327434    11.00000    0.04346    0.03850 =
         0.02957   -0.00129    0.00227   -0.00222
AFIX  43
H36   2    1.293108    0.793104    0.308697    11.00000   -1.20000
AFIX   0
C37   1    1.268003    0.582366    0.346472    11.00000    0.04382    0.03861 =
         0.02847   -0.00299   -0.00152    0.00253
C38   1    1.218418    0.518024    0.374105    11.00000    0.05018    0.02935 =
         0.03398    0.00116   -0.00086    0.00141
AFIX  43
H38   2    1.222669    0.407607    0.387090    11.00000   -1.20000
AFIX   0
C39   1    1.162711    0.612886    0.383011    11.00000    0.04449    0.03323 =
         0.02994   -0.00096   -0.00013   -0.00246
C40   1    1.200426    1.028495    0.316139    11.00000    0.05943    0.03539 =
         0.04277    0.00483    0.01012    0.00106
AFIX 137
H40A  2    1.237891    1.054575    0.297882    11.00000   -1.20000
H40B  2    1.202122    1.101075    0.348339    11.00000   -1.20000
H40C  2    1.157743    1.044788    0.289749    11.00000   -1.20000
AFIX   0
C41   1    1.328014    0.476576    0.338333    11.00000    0.05282    0.04492 =
         0.04389    0.00154    0.00497    0.00904
AFIX 137
H41A  2    1.350370    0.430330    0.374238    11.00000   -1.20000
H41B  2    1.359935    0.545022    0.323305    11.00000   -1.20000
H41C  2    1.312028    0.386873    0.312264    11.00000   -1.20000
AFIX   0
C42   1    1.110077    0.536693    0.412863    11.00000    0.05541    0.03900 =
         0.04830    0.00440    0.01100   -0.00285
AFIX 137
H42A  2    1.125254    0.427340    0.427019    11.00000   -1.20000
H42B  2    1.066960    0.526726    0.386565    11.00000   -1.20000
H42C  2    1.104541    0.607555    0.443993    11.00000   -1.20000
AFIX   0
C43   1    1.101217    0.515571    0.228657    11.00000    0.04673    0.04456 =
         0.07058   -0.02041    0.00968   -0.00113
AFIX  43
H43   2    1.140024    0.576227    0.245432    11.00000   -1.20000
AFIX   0
C44   1    1.066593    0.555955    0.175036    11.00000    0.08506    0.04535 =
         0.05674   -0.00737    0.03234   -0.00626
AFIX  43
H44   2    1.081722    0.645039    0.155676    11.00000   -1.20000
AFIX   0
C45   1    1.010206    0.466606    0.149900    11.00000    0.08856    0.05734 =
         0.04106   -0.00742   -0.00350    0.01536
AFIX  43
H45   2    0.987179    0.494104    0.113370    11.00000   -1.20000
AFIX   0
C46   1    0.987348    0.335882    0.178502    11.00000    0.05190    0.05688 =
         0.08030   -0.01904   -0.00382   -0.00614
AFIX  43
H46   2    0.948882    0.274495    0.161424    11.00000   -1.20000
AFIX   0
C47   1    1.021800    0.295997    0.232803    11.00000    0.08365    0.04046 =
         0.07012    0.00388    0.02096   -0.00831
AFIX  43
H47   2    1.006452    0.208212    0.252597    11.00000   -1.20000
AFIX   0
C48   1    1.078708    0.386609    0.257286    11.00000    0.07584    0.04184 =
         0.04720   -0.00624   -0.00965    0.01450
AFIX  43
H48   2    1.102116    0.359718    0.293756    11.00000   -1.20000
AFIX   0
C49   1    0.999648    1.020317    0.056701    11.00000    0.05286    0.13482 =
         0.08725   -0.02692   -0.00317    0.00824
AFIX  43
H49   2    0.999517    1.033727    0.095155    11.00000   -1.20000
AFIX   0
C50   1    0.984953    0.868434    0.031049    11.00000    0.06613    0.09719 =
         0.11534    0.00425    0.00608    0.00925
AFIX  43
H50   2    0.974448    0.777848    0.052259    11.00000   -1.20000
AFIX   0
C51   1    0.985357    0.846806   -0.024978    11.00000    0.06558    0.09163 =
         0.13374   -0.04652    0.00740    0.00090
AFIX  43
H51   2    0.975472    0.741964   -0.041793    11.00000   -1.20000
AFIX   0
HKLF 4

REM  Template texray.inf
REM R1 =  0.0488 for    5787 Fo > 4sig(Fo)  and  0.0568 for all    6705 data
REM    467 parameters refined using      0 restraints

END

WGHT      0.0718      1.3232

REM No hydrogen bonds found for HTAB generation

REM Highest difference peak  0.163,  deepest hole -0.186,  1-sigma level  0.036
Q1    1   1.1005  0.4710  0.1910  11.00000  0.05    0.16
Q2    1   0.8209  0.8578  0.1564  11.00000  0.05    0.16
Q3    1   0.8690  0.6033  0.0086  11.00000  0.05    0.15
Q4    1   0.8765  1.1227  0.3728  11.00000  0.05    0.15
Q5    1   0.8214  0.9279  0.1995  11.00000  0.05    0.14
Q6    1   0.7870  1.0380  0.0558  11.00000  0.05    0.14
Q7    1   0.9174  1.0352  0.3165  11.00000  0.05    0.14
Q8    1   0.8652  0.2560 -0.0346  11.00000  0.05    0.14
Q9    1   0.6591  1.1301  0.2398  11.00000  0.05    0.13
Q10   1   0.8152  0.6265  0.0938  11.00000  0.05    0.13
Q11   1   0.7653  1.0270  0.0497  11.00000  0.05    0.13
Q12   1   0.8393  0.2787  0.0757  11.00000  0.05    0.13
Q13   1   0.6198  0.8807  0.1022  11.00000  0.05    0.13
Q14   1   0.9178  0.8753  0.2319  11.00000  0.05    0.13
Q15   1   1.1986  0.9195  0.3228  11.00000  0.05    0.13
Q16   1   1.0209  0.9169  0.3121  11.00000  0.05    0.12
Q17   1   0.8003  0.5477  0.1879  11.00000  0.05    0.12
Q18   1   1.1373  0.9592  0.5198  11.00000  0.05    0.12
Q19   1   0.8816  1.0052  0.0456  11.00000  0.05    0.12
Q20   1   0.8403  0.5642 -0.0006  11.00000  0.05    0.12
Q21   1   0.9580  1.1836  0.4703  11.00000  0.05    0.12
Q22   1   0.9525  0.8842  0.2703  11.00000  0.05    0.12
Q23   1   1.3191  0.3462  0.3413  11.00000  0.05    0.12
Q24   1   0.6993  1.2321  0.2115  11.00000  0.05    0.11
Q25   1   0.9181  1.0268  0.2366  11.00000  0.05    0.11
;
_shelx_res_checksum              21000
_shelx_hkl_file
;
   0   0   2  446.40   16.90
   0   0   3   -1.50    1.80
   0   0   4 3344.00   80.10
   0   0   5    2.10    2.60
   0   0   7    0.20    3.30
   0   0   8  293.10   12.70
   0   0   9   -8.10    5.00
   0   0  10 5367.90  130.10
   0   0  11  -13.70    5.10
   0   0  12 1427.30   38.30
   0   0  13   -3.40    4.80
   0   0  14   -1.60    3.60
   0   0  15   -1.00    8.00
   0   0  16 1265.40   38.40
   0   0  17   -5.90    3.90
   0   0  18 1393.30   58.70
   0   0  19  -12.50    4.70
   0   0  20 1744.10   53.60
   0   0  21   -2.80    5.30
   0   0  22  220.80   13.00
   0   0  23   -3.40    5.70
   0   0  24  793.40   30.00
   0   0  25    7.40    9.30
   0   0  26  429.80   19.00
   0   0  27   -7.60    8.10
   0   0  28  163.60   11.00
   0   0  29   -1.30    7.10
   0   1   0   -0.10    0.80
   0   1   2 1061.40   18.60
   0   1   3  699.40   14.00
   0   1   6 1363.90   30.30
   0   1   7   75.30    3.90
   0   1   8 5288.60  104.90
   0   1   9   99.80    4.10
   0   1  10  209.30    6.40
   0   1  11 1159.70   24.10
   0   1  12  678.80   15.80
   0   1  13 8752.90  145.00
   0   1  14  922.80   19.40
   0   1  15  200.50    7.50
   0   1  16  119.90    5.30
   0   1  17   61.10    4.50
   0   1  18  853.20   18.50
   0   1  19   41.20    4.40
   0   1  20 2279.20   42.60
   0   1  21    5.10    5.20
   0   1  22  826.90   18.90
   0   1  23  114.30    6.90
   0   1  24  123.90    6.50
   0   1  25  210.20    9.20
   0   1  26   -2.50    5.30
   0   1  27    7.70    5.10
   0   1  28   59.30    5.60
   0   1  29    9.90    6.50
   0   2   2  838.00   15.90
   0   2   3 2111.20   44.40
   0   2   4 8291.10  197.80
   0   2   5  166.50    4.40
   0   2   6    9.90    1.50
   0   2   7  194.80    6.00
   0   2   8   58.80    3.20
   0   2   9 3330.50   59.20
   0   2  10    2.70    2.70
   0   2  11 1176.70   28.30
   0   2  12 2387.40   52.40
   0   2  13  188.50    7.10
   0   2  14  727.30   23.30
   0   2  15  175.80    5.90
   0   2  16  170.80    5.80
   0   2  17  943.60   27.60
   0   2  18   13.90    4.10
   0   2  19  652.60   16.20
   0   2  20   70.00    5.00
   0   2  21  112.40    7.20
   0   2  22   27.20    4.20
   0   2  23   -0.50    5.20
   0   2  24   86.20    6.40
   0   2  25 1476.30   29.00
   0   2  26    7.00    4.90
   0   2  27   44.50    5.80
   0   2  28   12.50    6.10
   0   2  29   81.60    9.60
   0   2  30   92.20    6.90
   0   3   0   -1.40    1.40
   0   3   1  243.00    5.90
   0   3   2    6.70    1.50
   0   3   3  605.30   15.10
   0   3   4  834.80   17.10
   0   3   5   24.90    1.50
   0   3   6  859.70   18.20
   0   3   7  198.20    6.40
   0   3   8 4022.80   68.40
   0   3   9  492.00   11.90
   0   3  10  574.60   13.20
   0   3  11  196.00    6.80
   0   3  12   93.90    4.50
   0   3  13   37.50    2.70
   0   3  14  116.50    4.70
   0   3  15  940.70   20.30
   0   3  16  224.30    7.50
   0   3  17   47.80    4.40
   0   3  18  525.30   16.10
   0   3  19  329.10   10.80
   0   3  20  326.00   10.10
   0   3  21  330.30   10.10
   0   3  22  172.90    7.40
   0   3  23  102.20    6.00
   0   3  24  681.70   16.50
   0   3  25  100.50    7.10
   0   3  26    1.60    4.90
   0   3  27  172.40   10.50
   0   3  28  217.30   11.80
   0   3  29   55.00    7.80
   0   4   0 1633.40   46.40
   0   4   112077.60  273.30
   0   4   2  100.00    3.30
   0   4   3  809.00   16.30
   0   4   4   46.40    2.20
   0   4   5 1675.00   30.90
   0   4   6   26.70    1.60
   0   4   7   64.70    3.10
   0   4   8  496.70   12.20
   0   4   9  326.90   10.00
   0   4  10  813.40   18.40
   0   4  11   -0.20    1.70
   0   4  12  171.50    5.90
   0   4  13  266.00    8.60
   0   4  14  678.50   16.70
   0   4  15   41.70    4.00
   0   4  16  281.90   10.10
   0   4  17  311.10    9.80
   0   4  18   19.70    4.00
   0   4  19   88.10    4.60
   0   4  20   59.70    4.40
   0   4  21  153.50    7.70
   0   4  22  363.10   10.60
   0   4  23  213.90    7.30
   0   4  24    8.90    4.50
   0   4  25   22.80    5.30
   0   4  26   92.00    9.40
   0   4  27    0.20    7.20
   0   5   0   -3.60    2.10
   0   5   1  873.80   17.20
   0   5   2   22.40    1.60
   0   5   3  166.50    4.90
   0   5   4  199.90    5.30
   0   5   5   13.50    3.50
   0   5   6  387.40   14.20
   0   5   7    4.80    4.90
   0   5   8  979.80   32.70
   0   5   9 1149.40   38.50
   0   5  10  129.60    8.90
   0   5  11  395.40   15.70
   0   5  12  658.70   23.40
   0   5  13  364.90   11.10
   0   5  14 1307.70   28.00
   0   5  15  280.80    8.60
   0   5  16   61.50    4.30
   0   5  17   70.50    4.50
   0   5  18  201.90    7.30
   0   5  19  623.70   14.40
   0   5  20  513.80   13.30
   0   5  21  496.80   12.40
   0   5  22   87.70    5.10
   0   5  23   -6.90    3.70
   0   5  24    7.80    4.40
   0   6   0 1752.40   47.80
   0   6   1 1654.30   33.20
   0   6   2   68.10    3.10
   0   6   3  166.50    4.70
   0   6   4 1937.80   34.00
   0   6   5   18.50    3.60
   0   6   6  134.50    7.80
   0   6   7 1188.10   39.00
   0   6   8   20.40    3.60
   0   6   9 1251.50   35.50
   0   6  10 3764.90   91.90
   0   6  11  373.00   14.10
   0   6  12  436.50   15.70
   0   6  13  630.90   18.80
   0   6  14  345.10   15.20
   0   6  15   91.40    9.60
   0   6  16   21.60   11.00
   0   6  17  280.70   21.30
   0   6  18    2.60   10.20
   0   6  19    4.10    5.00
   0   6  20  241.20   12.10
   0   6  21  538.60   16.00
   0   7   0    4.40    2.60
   0   7   1   54.80    2.80
   0   7   2  793.10   16.70
   0   7   3  436.10    8.90
   0   7   4 1131.30   45.90
   0   7   5  317.60   11.10
   0   7   6   -1.50    3.90
   0   7   7  233.70    8.40
   0   7   8  196.90    8.60
   0   7   9  361.40   14.00
   0   7  10  192.20    9.50
   0   7  11   88.20    7.20
   0   7  12   84.20    6.40
   0   7  13   78.10    8.10
   0   7  14    8.40    5.50
   0   7  15  105.00    7.50
   0   7  16  141.90    8.20
   0   7  17  150.30    8.40
   0   7  18   -1.40    5.30
   0   7  19   54.80    6.20
   0   8   0  192.60    7.90
   0   8   1    0.10    1.50
   0   8   2   61.20    2.20
   0   8   3    6.80    3.50
   0   8   4   23.70    3.70
   0   8   5  229.70    9.90
   0   8   6   54.80    5.20
   0   8   7  912.70   26.80
   0   8   8   15.60    4.70
   0   8   9  727.70   22.30
   0   8  10  356.90   14.00
   0   8  11   36.40    5.80
   0   8  12  150.00    8.50
   0   8  13   12.80    6.20
   0   8  14  347.50   13.10
   0   8  15  492.30   15.20
   0   8  16  222.80    9.40
   0   8  17   99.80    7.90
   0   9   0   -1.00    2.00
   0   9   1  259.50    9.70
   0   9   2   95.50    4.80
   0   9   3  144.00    7.20
   0   9   4  192.80    9.40
   0   9   5   16.80    4.20
   0   9   6  431.90   13.60
   0   9   7    4.20    5.00
   0   9   8   32.20    6.00
   0   9   9  290.90   14.00
   0   9  10   81.80    7.70
   0   9  11  100.20    7.10
   0   9  12  129.20   16.80
   0   9  13   15.90    5.30
   0   9  14   61.00    9.00
   0   9  15  284.00    8.90
   1   0 -29   -6.60    6.10
   1   0 -28   -6.00    8.30
   1   0 -27  980.60   28.80
   1   0 -26    0.90    6.70
   1   0 -25  260.40   13.40
   1   0 -24   -3.60    6.20
   1   0 -23  334.00   14.90
   1   0 -22   10.70    6.50
   1   0 -21 2070.20   53.90
   1   0 -20   -4.30    5.90
   1   0 -19 8747.20  213.40
   1   0 -18   -3.10    5.50
   1   0 -17  586.50   19.20
   1   0 -16   -4.30    4.00
   1   0 -15 1696.00   46.90
   1   0 -14   -8.60    5.80
   1   0 -13 1078.90   31.70
   1   0 -12    2.50    3.40
   1   0 -11 1340.10   38.50
   1   0 -10   -3.10    3.30
   1   0  -9 2229.00   60.50
   1   0  -8   -5.60    3.00
   1   0  -7   30.60    3.80
   1   0  -6    2.30    4.10
   1   0  -5  959.10   27.80
   1   0  -4    7.80    3.00
   1   0  -2    0.80    1.30
   1   0   0    3.60    1.10
   1   0   1    8.80    0.90
   1   0   2    4.50    3.00
   1   0   3 7718.20  246.40
   1   0   4   10.30    5.20
   1   0   6   -1.40    3.60
   1   0   7  207.80   10.40
   1   0   8   -2.60    5.00
   1   0   913439.50  306.80
   1   0  10    1.40    4.70
   1   0  11 6524.00  158.20
   1   0  12   -1.00    3.70
   1   0  13 1979.00   52.40
   1   0  14   -2.00    3.50
   1   0  15  509.20   17.20
   1   0  16   -4.60    4.20
   1   0  17 1484.10   43.00
   1   0  18    1.00    7.00
   1   0  19   26.90    5.90
   1   0  20   -6.30    5.80
   1   0  21  182.40   11.20
   1   0  22    2.10    6.40
   1   0  23 1279.20   40.30
   1   0  24    0.80    8.20
   1   0  25   22.40    6.50
   1   0  26  -20.20    5.70
   1   0  27   50.40   16.70
   1   0  28    8.20    7.80
   1   1 -29   15.60    7.10
   1   1 -28    6.70    5.00
   1   1 -27  235.90    8.80
   1   1 -26  242.40    8.70
   1   1 -25  648.40   15.20
   1   1 -24   97.60    7.30
   1   1 -23  707.60   18.00
   1   1 -22  488.80   14.30
   1   1 -21  139.50    6.20
   1   1 -20  633.50   15.40
   1   1 -19  171.20    6.50
   1   1 -18 2620.40   50.00
   1   1 -17    3.40    3.50
   1   1 -16 1080.70   22.90
   1   1 -15   49.40    3.50
   1   1 -14 2488.50   53.80
   1   1 -13  506.70   12.70
   1   1 -1212826.80  209.20
   1   1 -11 2981.20   54.30
   1   1 -10    5.30    2.70
   1   1  -9  791.40   19.00
   1   1  -8  904.90   22.50
   1   1  -7 3983.70   79.90
   1   1  -6 3863.20   75.50
   1   1  -5 4671.90   79.30
   1   1  -3 7595.80  238.60
   1   1  -2  110.00    3.10
   1   1   1 7729.50  262.20
   1   1   2 7893.30  181.70
   1   1   4 2037.00   37.50
   1   1   5   19.30    3.00
   1   1   7  933.30   28.40
   1   1   8   24.60    2.80
   1   1   9  993.70   20.40
   1   1  10 2335.10   44.50
   1   1  11  643.80   15.00
   1   1  12  219.00    7.50
   1   1  13  662.90   16.00
   1   1  14    1.10    3.10
   1   1  15   67.10    4.10
   1   1  16   -2.90    3.20
   1   1  17  147.60    6.10
   1   1  18  294.90    9.40
   1   1  19  787.30   17.70
   1   1  20 3422.60   59.40
   1   1  21  296.10    9.30
   1   1  22 5058.20   87.70
   1   1  23 1173.00   26.80
   1   1  24 1322.50   27.20
   1   1  25    3.00    4.70
   1   1  26  731.70   17.00
   1   1  27   64.70    6.50
   1   1  28   15.70    4.70
   1   1  29   22.60    7.40
   1   2 -29   26.50    9.20
   1   2 -28   60.00    9.00
   1   2 -27  518.60   14.10
   1   2 -26  743.80   15.70
   1   2 -25  615.00   13.70
   1   2 -24  152.10    7.40
   1   2 -23  782.90   17.40
   1   2 -22    8.00    5.60
   1   2 -21   11.10    3.90
   1   2 -20  470.40   12.10
   1   2 -19 1210.20   24.10
   1   2 -18  395.40   11.30
   1   2 -17 1281.10   27.50
   1   2 -16  198.90    8.60
   1   2 -15   42.80    3.60
   1   2 -14 1052.50   27.10
   1   2 -13  186.30    6.80
   1   2 -12 2242.60   50.40
   1   2 -11  398.40   10.20
   1   2 -10  712.90   15.80
   1   2  -9  514.20   12.60
   1   2  -8  484.00   11.70
   1   2  -7  598.60   13.80
   1   2  -6    9.90    1.30
   1   2  -5 2120.20   39.10
   1   2  -4 3196.20   54.90
   1   2  -310493.50  241.60
   1   2  -1 9224.60  291.70
   1   2   1  561.00   13.10
   1   2   2 1218.10   36.40
   1   2   3   23.90    6.30
   1   2   4  327.40    7.70
   1   2   5  176.60    4.90
   1   2   6   -0.40    1.50
   1   2   7 3823.30   66.90
   1   2   8 2266.10   42.70
   1   2   9  537.70   12.20
   1   2  10   40.80    3.30
   1   2  11  542.50   16.40
   1   2  12 3156.30   67.00
   1   2  13    5.00    2.40
   1   2  14  163.00    5.50
   1   2  15   -1.40    3.20
   1   2  16   33.30    4.30
   1   2  17    6.80    2.80
   1   2  18   -0.20    3.70
   1   2  19  897.00   20.00
   1   2  20   15.20    5.10
   1   2  21  534.50   13.80
   1   2  22   -7.80    4.50
   1   2  23  590.00   16.10
   1   2  24  148.70    8.10
   1   2  25    3.00    4.20
   1   2  26  114.50    7.60
   1   2  27  120.50    6.60
   1   2  28  166.80    7.80
   1   2  29   -2.70    8.40
   1   2  30  167.10   10.70
   1   3 -29   56.50    5.90
   1   3 -28   10.30    9.20
   1   3 -27   39.10    6.70
   1   3 -26  747.30   18.90
   1   3 -25  185.80    7.70
   1   3 -24   78.30    6.20
   1   3 -23    2.30    4.80
   1   3 -22   97.60    6.30
   1   3 -21  360.30   11.50
   1   3 -20  158.40    7.10
   1   3 -19 1007.30   25.00
   1   3 -18   77.80    5.70
   1   3 -17   59.80    4.60
   1   3 -16  535.10   13.60
   1   3 -15  351.40   11.00
   1   3 -14   78.70    3.90
   1   3 -13  919.60   21.20
   1   3 -12  381.00   10.80
   1   3 -11 1019.60   22.60
   1   3 -10    3.10    2.10
   1   3  -9 4732.60   80.40
   1   3  -8   17.70    1.90
   1   3  -7  975.20   20.30
   1   3  -610483.00  247.90
   1   3  -5 5701.50  109.30
   1   3  -4 1505.30   28.40
   1   3  -3 1400.90   27.00
   1   3  -2 1839.40   32.70
   1   3  -1    2.70    1.90
   1   3   0 2200.10   39.10
   1   3   1 3282.50   58.30
   1   3   2 7936.50  190.10
   1   3   3  495.90   16.60
   1   3   4   87.50    6.30
   1   3   5 3196.40   82.10
   1   3   6  760.90   15.70
   1   3   7  135.20    4.60
   1   3   8 3597.10   62.50
   1   3   9 3084.90   54.50
   1   3  10 1419.90   30.00
   1   3  11   82.20    4.50
   1   3  12 2457.30   45.60
   1   3  13   62.10    3.20
   1   3  14 1017.20   23.00
   1   3  15  132.80    5.80
   1   3  16  750.80   16.90
   1   3  17    9.20    3.40
   1   3  18  436.50   15.90
   1   3  19  312.30   10.70
   1   3  20   21.20    4.10
   1   3  21  409.10   11.50
   1   3  22   -5.70    5.40
   1   3  23   25.50    5.00
   1   3  24   -2.60    4.80
   1   3  25  205.20    8.20
   1   3  26  381.80   11.30
   1   3  27   25.30    4.60
   1   4 -27   -8.80    4.60
   1   4 -26   28.70    7.00
   1   4 -25  148.90    7.80
   1   4 -24   22.10    4.30
   1   4 -23    0.40    4.00
   1   4 -22   93.20    5.40
   1   4 -21  554.40   14.10
   1   4 -20   10.30    4.10
   1   4 -19  166.60    6.10
   1   4 -18   -0.20    3.40
   1   4 -17 2798.00   49.50
   1   4 -16  515.00   13.00
   1   4 -15  828.10   19.20
   1   4 -14  314.90    9.10
   1   4 -13 1233.80   25.20
   1   4 -12  170.10    6.00
   1   4 -11  664.20   16.00
   1   4 -10   10.30    2.10
   1   4  -9  314.70    8.50
   1   4  -8   82.70    4.10
   1   4  -7  433.80   11.20
   1   4  -6  940.30   19.80
   1   4  -5   54.50    2.70
   1   4  -4  154.80    5.30
   1   4  -3  468.10   11.10
   1   4  -2 2062.50   43.40
   1   4  -1  840.10   20.60
   1   4   0 3174.80   56.50
   1   4   1  113.70    3.30
   1   4   2   56.60    2.20
   1   4   3  355.30    8.90
   1   4   4  181.30    8.00
   1   4   5 2009.80   54.90
   1   4   6 1801.90   52.10
   1   4   7   12.20    4.40
   1   4   8  187.40    9.50
   1   4   9  381.60    8.80
   1   4  10   30.60    2.40
   1   4  11   73.90    4.00
   1   4  12 1480.50   28.50
   1   4  13  597.00   15.00
   1   4  14  105.20    5.10
   1   4  15  365.70   10.90
   1   4  16 1748.70   34.90
   1   4  17  983.10   22.80
   1   4  18  142.20    6.00
   1   4  19    4.20    4.10
   1   4  20   -2.10    4.20
   1   4  21  314.00   11.50
   1   4  22    6.20    5.00
   1   4  23  653.00   17.30
   1   4  24   -1.20    4.90
   1   4  25  261.20    8.80
   1   4  26    3.50    5.50
   1   5 -24  143.60    9.50
   1   5 -23   15.00    5.00
   1   5 -22  176.30    7.30
   1   5 -21  273.10    9.00
   1   5 -20  188.30    7.20
   1   5 -19  121.90    6.40
   1   5 -18  390.90   10.80
   1   5 -17  145.80    8.90
   1   5 -16   55.60    4.10
   1   5 -15  835.60   19.50
   1   5 -14    0.50    2.60
   1   5 -13 1459.70   28.50
   1   5 -12 1907.00   35.20
   1   5 -11   23.40    2.60
   1   5 -10 1210.20   24.30
   1   5  -9  466.50   11.40
   1   5  -8 1469.40   34.00
   1   5  -7    8.70    1.70
   1   5  -6 1306.20   25.10
   1   5  -5   73.30    3.20
   1   5  -4   62.00    2.80
   1   5  -3 1370.90   25.60
   1   5  -2  177.10    4.80
   1   5  -1  251.80    7.30
   1   5   0   11.80    1.70
   1   5   1  737.20   16.00
   1   5   2  181.70    5.20
   1   5   3  553.40   11.20
   1   5   4   16.40    3.20
   1   5   5  405.70   14.00
   1   5   6 1339.30   39.20
   1   5   7  641.60   29.50
   1   5   8   82.70    5.90
   1   5   9  513.00   17.40
   1   5  10 1152.50   35.50
   1   5  11   75.60    9.20
   1   5  12 1476.00   40.60
   1   5  13  451.80   17.90
   1   5  14  475.60   13.20
   1   5  15  363.20    9.70
   1   5  16   28.70    2.50
   1   5  17  388.30   11.60
   1   5  18   15.00    2.70
   1   5  19   59.70    3.80
   1   5  20   59.40    4.50
   1   5  21   86.00    4.90
   1   5  22    1.30    3.50
   1   5  23    0.40    3.00
   1   6 -22   44.00   14.20
   1   6 -21  122.70    5.20
   1   6 -20   60.90    2.80
   1   6 -19    4.40    2.20
   1   6 -18    8.50    7.10
   1   6 -17  498.80   21.00
   1   6 -16    7.40    5.70
   1   6 -15    4.60    7.10
   1   6 -14   70.10    8.20
   1   6 -13 1336.80   43.80
   1   6 -12 2410.30   67.50
   1   6 -11    8.40    6.00
   1   6 -10  534.80   21.80
   1   6  -9  676.50   29.30
   1   6  -8    5.60    3.60
   1   6  -7  506.90   17.80
   1   6  -6  784.70   18.20
   1   6  -5  494.80   11.40
   1   6  -4   17.80    1.70
   1   6  -3  308.30    8.00
   1   6  -2  546.70   12.40
   1   6  -1   -2.00    1.50
   1   6   0    3.30    1.50
   1   6   1  502.70   12.00
   1   6   2 1021.70   21.50
   1   6   3 1582.90   40.80
   1   6   4  427.20   22.50
   1   6   5   57.50    4.50
   1   6   6  308.40   11.10
   1   6   7   55.80    5.30
   1   6   8   37.50    4.50
   1   6   9  721.80   24.80
   1   6  10  895.10   28.70
   1   6  11  209.90   10.50
   1   6  12   78.40    6.20
   1   6  13  235.00   11.00
   1   6  14  110.90    8.10
   1   6  15    6.50    4.70
   1   6  16   88.80    6.70
   1   6  17    5.30    5.40
   1   6  18   12.10    5.10
   1   6  19   -2.00    4.30
   1   6  20   -3.50    4.40
   1   6  21   87.40    6.00
   1   7 -20   91.70    6.50
   1   7 -19    4.20    4.50
   1   7 -18   17.30    4.60
   1   7 -17  204.60   10.30
   1   7 -16   22.40    4.90
   1   7 -15  396.50   14.10
   1   7 -14  401.80   15.00
   1   7 -13  107.10    6.80
   1   7 -12  756.00   23.20
   1   7 -11   16.80    4.40
   1   7 -10  669.50   22.10
   1   7  -9    5.90    4.30
   1   7  -8  321.90   12.50
   1   7  -7  811.20   25.20
   1   7  -6  303.10   11.10
   1   7  -5  212.10    8.60
   1   7  -4  219.80    5.50
   1   7  -3  286.00    7.90
   1   7  -2  448.90   10.50
   1   7  -1   26.60    2.20
   1   7   0  449.90   11.10
   1   7   1  765.40   16.30
   1   7   2  123.20    3.90
   1   7   3  921.70   28.50
   1   7   4  182.40    8.20
   1   7   5   43.00    4.40
   1   7   6  543.70   19.00
   1   7   7  229.20    9.80
   1   7   8  125.40    7.10
   1   7   9 3097.00   77.30
   1   7  10  172.30    8.80
   1   7  11   22.90    5.00
   1   7  12  519.20   18.10
   1   7  13   61.10    5.70
   1   7  14  602.40   20.90
   1   7  15  294.80   12.80
   1   7  16  120.00   13.50
   1   7  17   67.10    7.00
   1   7  18   18.30    5.60
   1   7  19    2.50    4.10
   1   8 -18   74.30   12.90
   1   8 -17   -2.70    5.40
   1   8 -16  130.50    6.70
   1   8 -15   62.30    6.90
   1   8 -14    3.80    4.40
   1   8 -13   -5.10    4.50
   1   8 -12  159.60    9.10
   1   8 -11   16.40    6.50
   1   8 -10  458.00   16.50
   1   8  -9  116.80    7.20
   1   8  -8   90.90    6.90
   1   8  -7   28.20    4.30
   1   8  -6    1.50    3.00
   1   8  -5    5.80    3.80
   1   8  -4  172.10    7.30
   1   8  -3  598.70   12.40
   1   8  -2    0.60    1.70
   1   8  -1   76.60    3.50
   1   8   0   59.90    2.80
   1   8   1  261.20    6.20
   1   8   2 1019.80   27.50
   1   8   3    2.40    2.70
   1   8   4   34.50    4.70
   1   8   5    6.10    4.00
   1   8   6  225.60   10.10
   1   8   7  156.50    9.80
   1   8   8  590.40   21.40
   1   8   9 2075.50   52.40
   1   8  10   67.20    7.10
   1   8  11  136.80    7.50
   1   8  12   23.70    4.80
   1   8  13  359.40   13.60
   1   8  14   26.00    5.70
   1   8  15    1.60    5.10
   1   8  16   -2.00    6.40
   1   9 -15    8.60    6.10
   1   9 -14   -0.80    6.60
   1   9 -13   61.30    6.20
   1   9 -12    4.40    4.20
   1   9 -11   93.60    6.30
   1   9 -10   88.90    7.70
   1   9  -9   72.90    7.20
   1   9  -8  174.40    8.90
   1   9  -7  243.10    9.70
   1   9  -6    9.30    4.90
   1   9  -5  308.00   12.50
   1   9  -4  234.80    8.90
   1   9  -3   -4.60    2.90
   1   9  -2  308.80   11.00
   1   9  -1  216.70    5.40
   1   9   0   31.40    3.70
   1   9   1  311.80   11.10
   1   9   2  105.40    6.50
   1   9   3   19.10    4.50
   1   9   4   19.30    4.20
   1   9   5  102.00    7.80
   1   9   6  207.00    9.30
   1   9   7  118.30    8.00
   1   9   8   65.30    7.40
   1   9   9  179.40   11.30
   1   9  10   32.10    6.30
   1   9  11  127.50    9.10
   1   9  12   57.80    6.80
   1   9  13   50.30    5.40
   1   9  14   16.20   10.60
   2   0 -29    0.80    6.10
   2   0 -28  215.40   14.00
   2   0 -27  -12.00    6.70
   2   0 -26  367.40   16.90
   2   0 -25    4.90    6.10
   2   0 -24   87.40   10.20
   2   0 -23    5.10    6.30
   2   0 -22  468.40   19.20
   2   0 -21   -2.90    5.50
   2   0 -20  847.60   27.20
   2   0 -19   -4.50    6.20
   2   0 -18   25.50    5.30
   2   0 -17   -5.80    3.80
   2   0 -16 3393.20   85.30
   2   0 -15   -1.90    4.00
   2   0 -14 7829.20  188.30
   2   0 -13   -4.90    3.60
   2   0 -12  993.80   28.20
   2   0 -11    7.90    4.00
   2   0 -10 2765.30   74.00
   2   0  -9    5.10    3.10
   2   0  -8 1166.80   34.80
   2   0  -7   -3.40    3.10
   2   0  -6 5343.00  128.20
   2   0  -5    6.50    2.50
   2   0  -4 2477.80   63.40
   2   0  -3   -1.60    1.90
   2   0  -1    4.80    1.40
   2   0   0 4180.20  133.50
   2   0   1    0.60    1.10
   2   0   3   -0.20    2.50
   2   0   5    0.50    4.50
   2   0   7    0.40    5.10
   2   0   8  558.80   18.40
   2   0   9   -2.30    4.60
   2   0  10 3497.10   93.30
   2   0  11    9.20    5.50
   2   0  12  537.50   18.30
   2   0  13    3.80    4.30
   2   0  14 1625.90   48.60
   2   0  15    4.60    5.20
   2   0  16   -1.00    3.90
   2   0  17    2.00    5.10
   2   0  18   29.30    6.40
   2   0  19   -7.70    5.60
   2   0  20   63.40    9.70
   2   0  21   -0.70    4.80
   2   0  22 6870.80  169.30
   2   0  23   13.50    8.10
   2   0  24  456.20   28.70
   2   0  25   -2.30    6.40
   2   0  26   10.10    8.10
   2   0  27   -8.20   12.60
   2   1 -30   -3.70   15.00
   2   1 -29    2.80    6.50
   2   1 -28   60.00    6.00
   2   1 -27   18.50    5.20
   2   1 -26   60.70    6.30
   2   1 -25  367.70   11.40
   2   1 -24  436.60   13.10
   2   1 -23   85.70    6.00
   2   1 -22    7.10    4.00
   2   1 -21  736.60   18.10
   2   1 -20  254.90    8.30
   2   1 -19    0.20    4.00
   2   1 -18 1724.60   33.50
   2   1 -17   -0.10    3.70
   2   1 -16   57.00    4.40
   2   1 -15   -0.10    2.50
   2   1 -14  201.00    6.10
   2   1 -13   14.10    3.20
   2   1 -12  719.10   16.20
   2   1 -11  540.20   12.70
   2   1 -10  190.80    6.60
   2   1  -9 4182.80   84.60
   2   1  -8 4312.50   86.90
   2   1  -7 1378.70   30.60
   2   1  -6  588.40   13.30
   2   1  -2  460.00   10.10
   2   1   0 3105.90   74.70
   2   1   1 2077.20   50.90
   2   1   2 1520.20   27.90
   2   1   3 3403.10  117.20
   2   1   511763.80  387.60
   2   1   6 2243.70   49.80
   2   1   7 9130.00  153.90
   2   1   8 4301.50   91.00
   2   1   9 2349.50   43.10
   2   1  10 7828.20  134.00
   2   1  11 5750.00  100.90
   2   1  12   51.60    3.90
   2   1  13  292.60    8.60
   2   1  14   55.40    3.90
   2   1  15  292.00    9.40
   2   1  16    8.90    3.10
   2   1  17   51.60    5.20
   2   1  18  294.90   11.10
   2   1  19 2882.30   57.20
   2   1  20  370.10   11.30
   2   1  21 3523.20   65.00
   2   1  22  136.20    7.20
   2   1  23  346.50   10.80
   2   1  24    5.10    5.40
   2   1  25   13.40    4.60
   2   1  26   10.10    6.00
   2   1  27    3.70    5.00
   2   1  28   31.20    5.20
   2   1  29   34.00    6.40
   2   2 -30  111.10    8.50
   2   2 -29  106.00   10.20
   2   2 -28   94.40    6.70
   2   2 -27  108.70    6.40
   2   2 -26   11.30    5.30
   2   2 -25   29.90    5.20
   2   2 -24  339.60   10.80
   2   2 -23   17.00    5.10
   2   2 -22   31.40    4.70
   2   2 -21  928.80   22.80
   2   2 -20  194.50    7.50
   2   2 -19  121.10    6.20
   2   2 -18  258.70   10.70
   2   2 -17   53.50    4.00
   2   2 -16  155.00    7.30
   2   2 -15    1.70    2.70
   2   2 -14 1065.40   26.20
   2   2 -13   24.30    3.30
   2   2 -12  134.60    5.20
   2   2 -11 7720.70  128.30
   2   2 -10  909.80   19.10
   2   2  -913764.80  261.40
   2   2  -8  213.80    6.20
   2   2  -7  954.80   19.60
   2   2  -6 3785.00   67.20
   2   2  -511684.50  391.70
   2   2  -2 5719.50  109.60
   2   2  -1 5363.80  101.20
   2   2   0 3645.50   61.00
   2   2   1  732.20   13.90
   2   2   2   85.40    4.90
   2   2   3  822.40   26.20
   2   2   4  204.10    5.50
   2   2   5 2498.00   54.20
   2   2   6  626.60   15.70
   2   2   7 2944.40   54.40
   2   2   8  109.50    4.90
   2   2   9 2703.00   58.10
   2   2  10 2824.80   77.90
   2   2  11 2705.70   55.60
   2   2  12 2144.70   47.50
   2   2  13  462.60   12.20
   2   2  14  395.00   11.50
   2   2  15  239.30    8.90
   2   2  16  203.20    9.40
   2   2  17  653.40   20.70
   2   2  18   75.00    5.70
   2   2  19  121.50    6.40
   2   2  20  149.00    6.50
   2   2  21  126.20    6.80
   2   2  22    4.30    4.30
   2   2  23    8.00    5.10
   2   2  24  128.40    6.60
   2   2  25   21.90    4.80
   2   2  26    1.20    5.80
   2   2  27    2.90    4.60
   2   2  28   87.50    6.60
   2   2  29   -3.50    6.50
   2   2  30   21.10    7.20
   2   3 -29   14.90    5.20
   2   3 -27   29.60    5.60
   2   3 -26  210.40    8.70
   2   3 -25  182.00    8.40
   2   3 -24 1868.60   33.90
   2   3 -23   35.60    4.80
   2   3 -22    2.90    3.70
   2   3 -21 1316.50   29.80
   2   3 -20    7.10    3.90
   2   3 -19  136.90    6.70
   2   3 -18 1481.00   28.90
   2   3 -17  793.00   16.30
   2   3 -16  817.90   17.90
   2   3 -15  707.90   15.90
   2   3 -14   23.50    3.10
   2   3 -13  193.10    6.50
   2   3 -12   -0.20    1.80
   2   3 -11   85.80    3.70
   2   3 -10  296.90    7.90
   2   3  -9  585.50   14.10
   2   3  -8 1019.60   21.00
   2   3  -7  336.70    8.90
   2   3  -6 1727.50   33.10
   2   3  -5  194.60    5.20
   2   3  -4 9063.60  172.90
   2   3  -3 3813.60   68.10
   2   3  -2 1653.20   32.00
   2   3  -1   84.60    3.00
   2   3   0 6105.40  123.50
   2   3   1  426.50   11.90
   2   3   2 1284.30   37.40
   2   3   3  247.00   11.90
   2   3   4  338.00   14.60
   2   3   5  356.50   13.90
   2   3   6 1397.60   43.50
   2   3   7 5848.70  114.20
   2   3   8    1.50    1.30
   2   3   9  241.80    7.80
   2   3  10  111.50    4.30
   2   3  11  207.20    8.10
   2   3  12  360.00   10.20
   2   3  13 2986.60   56.90
   2   3  14    1.10    3.10
   2   3  15    2.20    2.70
   2   3  16   24.10    3.30
   2   3  17   37.40    4.50
   2   3  18  674.00   21.60
   2   3  19   88.50    5.00
   2   3  20   16.50    3.90
   2   3  21    2.60    5.00
   2   3  22   29.60    4.50
   2   3  23  208.80    9.30
   2   3  24  238.70    7.70
   2   3  25   -7.10    4.80
   2   3  26    4.40    5.10
   2   3  27   38.40    5.30
   2   3  28    7.30    9.60
   2   4 -27   84.20    6.50
   2   4 -26  121.10    8.00
   2   4 -25  118.70    7.50
   2   4 -24  119.20    6.50
   2   4 -23  212.20    9.60
   2   4 -22    5.40    4.60
   2   4 -21   87.00    5.70
   2   4 -20 1323.10   27.80
   2   4 -19    3.20    4.10
   2   4 -18   34.90    3.90
   2   4 -17  238.00    7.50
   2   4 -16  396.50   10.60
   2   4 -15  853.00   21.90
   2   4 -14  134.10    5.10
   2   4 -13 1691.70   35.80
   2   4 -12  360.90   10.80
   2   4 -11  437.90   12.00
   2   4 -10   82.70    4.00
   2   4  -9   53.90    2.80
   2   4  -8  259.10    7.30
   2   4  -7  330.30    9.00
   2   4  -6 3545.20   65.10
   2   4  -5  260.50    7.10
   2   4  -417416.10  395.50
   2   4  -3  141.50    4.60
   2   4  -2  136.90    4.90
   2   4  -1   95.50    3.70
   2   4   0 4942.40   84.20
   2   4   1  609.20   12.80
   2   4   2  382.20    8.20
   2   4   3  139.70    7.10
   2   4   4  171.90    8.60
   2   4   5 5373.10  134.90
   2   4   6  430.80   14.40
   2   4   7  196.60   11.60
   2   4   8  809.00   27.40
   2   4   9 3172.40   84.70
   2   4  10   30.70    1.50
   2   4  11  120.60    4.00
   2   4  12    0.10    1.80
   2   4  13  122.70    4.80
   2   4  14 2466.30   46.50
   2   4  15  274.60    8.10
   2   4  16 3658.30   65.80
   2   4  17  233.10    7.20
   2   4  18    0.10    2.60
   2   4  19  295.50    9.80
   2   4  20   32.90    4.10
   2   4  21   24.60    4.10
   2   4  22   99.60    5.30
   2   4  23  210.80    8.00
   2   4  24   16.20    4.10
   2   4  25   74.40    6.90
   2   4  26   16.90    4.90
   2   5 -25    4.90    4.80
   2   5 -23    7.50    4.40
   2   5 -22   93.70    5.80
   2   5 -21   93.80    5.50
   2   5 -20   36.80    4.40
   2   5 -19   59.60    4.70
   2   5 -18  157.70    7.70
   2   5 -17    9.40    3.40
   2   5 -16   50.90    3.90
   2   5 -15  327.20    9.60
   2   5 -14  816.20   17.30
   2   5 -13 3414.80   59.40
   2   5 -12  620.00   16.50
   2   5 -11  162.30    5.40
   2   5 -10   23.90    2.30
   2   5  -9    8.40    2.50
   2   5  -8   28.40    2.20
   2   5  -7    9.20    1.70
   2   5  -6  392.40   11.00
   2   5  -5  173.40    6.40
   2   5  -4 1386.30   29.10
   2   5  -3   60.10    3.00
   2   5  -2 2011.10   36.60
   2   5  -1   -0.70    1.30
   2   5   0 2338.80   44.00
   2   5   1  188.80    5.50
   2   5   2  167.60    4.40
   2   5   3  967.60   28.80
   2   5   4   42.10    4.00
   2   5   5 1370.80   44.90
   2   5   6  393.10   15.90
   2   5   7   43.80    5.20
   2   5   8   69.00    4.80
   2   5   9   58.00    4.60
   2   5  10  261.40   10.80
   2   5  11 4570.70  115.20
   2   5  12   15.20    4.60
   2   5  13  375.40   14.60
   2   5  14   96.50    7.90
   2   5  15  271.30    7.90
   2   5  16  118.40    4.10
   2   5  17   20.50    2.10
   2   5  18  401.00    9.40
   2   5  19   89.50    4.40
   2   5  20   22.30    2.90
   2   5  21   28.90    3.00
   2   5  22   20.90    2.90
   2   5  23   53.10    4.60
   2   6 -22   12.20    5.90
   2   6 -21  195.50    7.20
   2   6 -20  131.80    8.30
   2   6 -19   57.20    4.00
   2   6 -18   50.10    4.40
   2   6 -17   26.80    3.30
   2   6 -16  134.60    6.10
   2   6 -15    3.90    2.00
   2   6 -14    1.20    1.80
   2   6 -13  434.00   14.10
   2   6 -12 1225.00   35.80
   2   6 -11 1781.20   33.00
   2   6 -10   95.90    4.90
   2   6  -9  416.80   10.10
   2   6  -8  133.40    5.70
   2   6  -7   12.90    2.00
   2   6  -6  195.80    5.70
   2   6  -5  192.80    5.80
   2   6  -4  631.30   14.40
   2   6  -3   16.70    2.00
   2   6  -2  159.00    5.10
   2   6  -1   20.50    2.10
   2   6   0   90.70    4.10
   2   6   1  240.00    7.10
   2   6   2  869.40   21.70
   2   6   3    7.20    3.00
   2   6   4    4.80    3.20
   2   6   5  280.80   12.30
   2   6   6    0.20    6.00
   2   6   7  596.00   18.40
   2   6   8   30.10    4.80
   2   6   9 1130.50   33.20
   2   6  10  176.30    9.10
   2   6  11  996.70   31.50
   2   6  12  653.80   23.20
   2   6  13   91.50    7.20
   2   6  14   -5.50    4.80
   2   6  15  108.20    8.20
   2   6  16    9.90    8.20
   2   6  17   64.10    7.00
   2   6  18  102.30    8.20
   2   6  19    6.80    5.00
   2   6  20  128.50    8.80
   2   6  21    7.70    4.70
   2   7 -20   11.50    4.40
   2   7 -19  177.70   12.60
   2   7 -18    2.90    6.50
   2   7 -17   25.90    8.10
   2   7 -16   75.00   11.50
   2   7 -15  224.70   15.70
   2   7 -14    1.50    4.20
   2   7 -13 1842.80   45.80
   2   7 -12 1714.00   44.50
   2   7 -11   38.40    5.40
   2   7 -10 1249.50   36.20
   2   7  -9   63.30    5.40
   2   7  -8  251.70   13.60
   2   7  -7  333.90   11.70
   2   7  -6   51.10    2.50
   2   7  -5  121.30    4.60
   2   7  -4   10.10    2.20
   2   7  -3  301.10    7.70
   2   7  -2  491.90   11.70
   2   7  -1  309.90    8.40
   2   7   0    6.50    1.90
   2   7   1  319.30    8.10
   2   7   2  570.40   19.00
   2   7   3   -2.10    3.60
   2   7   4  539.90   18.50
   2   7   5   59.20    5.80
   2   7   6  690.00   21.20
   2   7   7  123.40    7.30
   2   7   8    4.40    4.20
   2   7   9  500.50   19.50
   2   7  10  116.50    7.10
   2   7  11  161.50    9.20
   2   7  12  210.00   10.80
   2   7  13  220.80   18.50
   2   7  14  497.10   17.30
   2   7  15  166.10    9.30
   2   7  16   -1.00    5.00
   2   7  17   40.00    7.40
   2   7  18    4.10    5.50
   2   7  19    6.90    5.70
   2   8 -18  703.00   19.80
   2   8 -17   23.90   10.60
   2   8 -16    5.00    5.00
   2   8 -15    3.70    5.20
   2   8 -14   38.10    5.30
   2   8 -13   15.70    4.20
   2   8 -12  494.50   18.40
   2   8 -11   35.90    6.40
   2   8 -10  456.00   16.20
   2   8  -9   -1.40    3.70
   2   8  -8    5.10    4.10
   2   8  -7  909.50   26.00
   2   8  -6  104.40    6.10
   2   8  -5  215.60    9.10
   2   8  -4  289.10    7.20
   2   8  -3   71.10    3.20
   2   8  -2   -0.80    1.80
   2   8  -1  513.20   12.00
   2   8   0  295.10    7.50
   2   8   1    0.70    3.00
   2   8   2   23.30    3.70
   2   8   3    3.70    2.80
   2   8   4   23.20    4.50
   2   8   5  150.80    8.40
   2   8   6  661.30   21.80
   2   8   7   49.90    5.60
   2   8   8 1295.70   36.30
   2   8   9  675.70   23.30
   2   8  10   25.70    6.00
   2   8  11  342.20   14.50
   2   8  12    3.30    5.50
   2   8  13  298.70   12.50
   2   8  14  147.30    9.80
   2   8  15   49.60    6.20
   2   8  16   22.00    5.20
   2   9 -16   10.00    9.30
   2   9 -15  232.70    9.60
   2   9 -14  232.50   10.20
   2   9 -13   97.30    7.70
   2   9 -12  166.80    8.40
   2   9 -11  165.30    7.50
   2   9 -10   14.70    4.90
   2   9  -9  113.90    7.40
   2   9  -8    6.60    4.10
   2   9  -7   28.60    4.80
   2   9  -6  126.60    7.20
   2   9  -5  127.20    7.90
   2   9  -4   61.60    5.40
   2   9  -3  712.70   20.90
   2   9  -2   -0.80    1.50
   2   9  -1   16.30    1.70
   2   9   0  433.90   13.70
   2   9   1   20.40    4.10
   2   9   2    1.40    2.90
   2   9   3   52.90    5.10
   2   9   4   20.60    4.10
   2   9   5  146.60    9.20
   2   9   6  890.00   27.40
   2   9   7   -1.40    5.10
   2   9   8  186.80   10.30
   2   9   9   -1.40    5.70
   2   9  10  190.60    9.90
   2   9  11    3.30    4.60
   2   9  12   15.50    6.30
   2   9  13   18.40    6.10
   3   0 -29    7.70    5.90
   3   0 -28    2.00    7.50
   3   0 -27    4.60    6.50
   3   0 -26    0.30    6.30
   3   0 -25  237.90   13.30
   3   0 -24    0.70    5.70
   3   0 -23 1215.30   37.30
   3   0 -22    2.40    5.60
   3   0 -21 4180.70  103.20
   3   0 -20   -8.10    7.90
   3   0 -19 2199.30   55.50
   3   0 -18    4.60    4.90
   3   0 -17 3465.80   88.10
   3   0 -16    2.60    5.00
   3   0 -15  981.70   31.00
   3   0 -14    5.80    4.70
   3   0 -13 1998.90   55.20
   3   0 -12   -2.00    4.30
   3   0 -11   38.00    4.40
   3   0 -10    0.90    3.10
   3   0  -9  346.40   16.50
   3   0  -8    2.60    3.80
   3   0  -7 6216.60  148.90
   3   0  -6    3.00    3.20
   3   0  -5 2305.20   64.10
   3   0  -4    6.20    3.30
   3   0  -3  113.10    6.60
   3   0  -2    0.90    2.00
   3   0  -1  140.60    5.30
   3   0   0    0.90    1.50
   3   0   1 4062.80   97.40
   3   0   2    2.00    2.40
   3   0   4    5.60    3.60
   3   0   522869.20  729.70
   3   0   6   -5.70    2.90
   3   0   7 5780.10  139.80
   3   0   8    1.20    5.40
   3   0   9  350.50   13.30
   3   0  10    0.40    4.50
   3   0  11  382.10   15.70
   3   0  12   -2.80    4.40
   3   0  13  354.20   13.90
   3   0  14    7.10    6.20
   3   0  15  101.40    8.80
   3   0  16   -0.40    6.30
   3   0  17    6.70    6.30
   3   0  18   13.80    6.60
   3   0  19 2590.50   68.30
   3   0  20   -1.80    6.20
   3   0  21 2500.90   68.30
   3   0  22   -2.80    6.30
   3   0  23  227.50   15.60
   3   0  24    3.90    6.20
   3   0  25  163.70   13.90
   3   0  26   -4.50    4.70
   3   0  27   10.60    9.50
   3   1 -30   19.50    9.30
   3   1 -29    8.90    6.40
   3   1 -28  190.80    7.50
   3   1 -27  221.80    8.00
   3   1 -26  142.60    7.10
   3   1 -25  181.00    8.00
   3   1 -24 1244.50   25.80
   3   1 -23   19.10    4.50
   3   1 -22 1720.50   34.10
   3   1 -21 1555.90   31.20
   3   1 -20 1447.60   29.20
   3   1 -19 1373.50   27.80
   3   1 -18  619.10   14.60
   3   1 -17 1037.80   22.70
   3   1 -16  192.00    6.90
   3   1 -15 1883.70   37.00
   3   1 -14  242.50    6.80
   3   1 -13  877.20   19.80
   3   1 -12 2058.00   38.70
   3   1 -11  837.60   17.40
   3   1 -10 1466.30   33.90
   3   1  -9  277.50    8.30
   3   1  -8   51.40    3.30
   3   1  -7 6921.40  118.70
   3   1  -6 1587.40   29.40
   3   1  -5  264.70    6.60
   3   1  -3 5495.30  108.00
   3   1   1 1020.80   22.10
   3   1   3 5321.70  174.00
   3   1   4  853.50   22.70
   3   1   5 1627.50   31.50
   3   1   7   38.10    2.70
   3   1   8   55.40    4.30
   3   1   9 2915.10   55.90
   3   1  10  178.20    8.60
   3   1  11  411.10    9.70
   3   1  12 1594.60   33.80
   3   1  13    0.90    3.00
   3   1  14  416.70   11.80
   3   1  15   56.10    4.30
   3   1  16  597.30   18.20
   3   1  17   50.50    4.10
   3   1  18   95.70    5.40
   3   1  19  120.30    7.10
   3   1  20  639.90   15.10
   3   1  21  876.20   20.70
   3   1  22 1810.20   37.10
   3   1  23  131.40    7.00
   3   1  24  103.00    6.30
   3   1  25   53.00    5.00
   3   1  26    8.00    4.10
   3   1  27    0.90    3.80
   3   1  28   23.50    6.30
   3   1  29   33.30    5.10
   3   2 -30   52.30    8.50
   3   2 -29    5.50    7.40
   3   2 -28   43.40    6.80
   3   2 -27   11.00    5.30
   3   2 -26   -1.80    5.20
   3   2 -25   -0.10    5.10
   3   2 -24    0.20    4.40
   3   2 -23   83.50    5.70
   3   2 -22  281.10   10.10
   3   2 -21  242.00    8.50
   3   2 -20  485.50   13.70
   3   2 -19   55.70    4.70
   3   2 -18  199.50    7.10
   3   2 -17    6.80    3.10
   3   2 -16    9.30    2.80
   3   2 -15  232.30    8.10
   3   2 -14   15.50    3.50
   3   2 -13   58.90    3.50
   3   2 -12  495.00   11.70
   3   2 -11  116.00    4.40
   3   2 -10 1527.20   29.10
   3   2  -9 3107.30   57.30
   3   2  -8 4545.20   79.30
   3   2  -7   70.70    2.70
   3   2  -6 4443.80   78.10
   3   2  -5  818.90   17.40
   3   2  -3  592.60   13.90
   3   2  -2 3190.60   54.80
   3   2  -1 5889.50  115.70
   3   2   0   22.30    1.40
   3   2   1  462.90    9.90
   3   2   2 4635.30  112.60
   3   2   3 1196.00   23.30
   3   2   4   10.50    1.40
   3   2   5  804.30   25.40
   3   2   6   15.50    1.80
   3   2   7 8999.20  170.50
   3   2   8 4271.70   75.10
   3   2   9 2259.30   46.80
   3   2  10 7678.20  175.30
   3   2  11 1391.00   33.70
   3   2  12  788.70   17.10
   3   2  13 5372.60   94.20
   3   2  14 2974.20   58.70
   3   2  15  214.20    7.70
   3   2  16  797.90   25.20
   3   2  17  142.80    6.20
   3   2  18  367.10   11.10
   3   2  19 3559.20   66.00
   3   2  20  136.60    6.50
   3   2  21    0.30    4.20
   3   2  22  320.10   10.40
   3   2  23    6.30    3.70
   3   2  24   15.30    3.70
   3   2  25   50.20    4.10
   3   2  26  242.30    9.00
   3   2  27   91.90    6.40
   3   2  28   93.20    7.90
   3   2  29   71.50    6.70
   3   3 -30  330.00   30.10
   3   3 -29   81.50    7.70
   3   3 -28   -7.30    6.70
   3   3 -27   39.40    7.80
   3   3 -26   94.20    6.50
   3   3 -25   55.80    5.40
   3   3 -24   77.60    5.30
   3   3 -23  151.20    7.00
   3   3 -22  455.70   13.60
   3   3 -21  288.80   10.40
   3   3 -20  159.80    6.60
   3   3 -19   10.10    3.20
   3   3 -18  810.10   18.70
   3   3 -17  470.70   12.10
   3   3 -16 2644.70   48.30
   3   3 -15   40.50    3.40
   3   3 -14  594.40   13.40
   3   3 -13  541.90   13.70
   3   3 -12 1614.60   30.10
   3   3 -11   94.10    4.40
   3   3 -10  351.80    8.60
   3   3  -9   39.50    2.40
   3   3  -8  196.40    5.60
   3   3  -7  679.30   15.20
   3   3  -6 2758.90   50.00
   3   3  -5   57.00    2.90
   3   3  -3 2077.40   38.00
   3   3  -2 5606.10  110.90
   3   3  -1  240.10    5.90
   3   3   0 1503.00   28.70
   3   3   1    0.30    0.90
   3   3   2  542.00   13.00
   3   3   3  463.70   17.40
   3   3   4 3582.90   92.40
   3   3   5 1364.50   35.60
   3   3   6 2322.10   62.80
   3   3   7 1131.70   21.80
   3   3   8  956.60   19.50
   3   3   9 2254.70   42.00
   3   3  10    3.90    1.60
   3   3  11 3782.80   79.00
   3   3  12    2.10    2.00
   3   3  13   14.50    2.40
   3   3  14  724.70   16.50
   3   3  15  249.00   10.80
   3   3  16 1825.20   40.50
   3   3  17  193.40    7.90
   3   3  18 1363.40   28.90
   3   3  19 1221.30   25.80
   3   3  20    3.90    3.70
   3   3  21    5.80    3.90
   3   3  22 2593.90   45.30
   3   3  23  167.90    6.40
   3   3  24   16.80    3.80
   3   3  25   38.30    4.10
   3   3  26    7.10    5.60
   3   3  27   -0.80    6.30
   3   4 -28    0.60   18.60
   3   4 -27    9.70    5.60
   3   4 -26   24.90    7.80
   3   4 -25  868.00   18.00
   3   4 -24   96.60    6.00
   3   4 -23   29.00    5.10
   3   4 -22  428.70   11.70
   3   4 -21  374.30   10.40
   3   4 -20    2.00    4.40
   3   4 -19   69.70    4.30
   3   4 -18   11.40    3.90
   3   4 -17   34.10    3.80
   3   4 -16 3063.00   54.20
   3   4 -15 1974.20   37.80
   3   4 -14  993.90   21.50
   3   4 -13  658.20   15.10
   3   4 -12  426.50   10.10
   3   4 -11 1844.80   36.10
   3   4 -10 1594.80   33.00
   3   4  -9  849.50   18.20
   3   4  -8  721.00   14.60
   3   4  -7  120.60    4.10
   3   4  -6 8964.90  147.50
   3   4  -5 2040.60   36.90
   3   4  -4 3872.20   66.50
   3   4  -3  701.20   15.00
   3   4  -2  310.80    7.80
   3   4  -1 1141.20   26.90
   3   4   0 3185.10   56.50
   3   4   1 1761.70   32.40
   3   4   2 1850.80   49.90
   3   4   3    7.70    3.90
   3   4   4  895.10   26.30
   3   4   5  126.00    7.20
   3   4   6 1878.80   49.60
   3   4   7 2522.00   67.10
   3   4   8  225.40   10.00
   3   4   9  345.20   14.40
   3   4  10   14.50    5.40
   3   4  11   20.00    1.40
   3   4  12   54.80    2.40
   3   4  13  900.80   19.50
   3   4  14  455.40   10.90
   3   4  15  835.70   18.50
   3   4  16  383.90    9.40
   3   4  17   90.20    4.20
   3   4  18    3.30    2.90
   3   4  19    1.40    3.30
   3   4  20  841.50   18.90
   3   4  21   -1.50    2.60
   3   4  22 1033.50   27.20
   3   4  23  284.30   10.00
   3   4  24  120.10    5.40
   3   4  25    9.30    3.80
   3   5 -25    7.90    6.30
   3   5 -24  163.80    6.00
   3   5 -23   25.80    4.60
   3   5 -22   13.90    5.40
   3   5 -21   95.60    5.30
   3   5 -20  363.10   10.50
   3   5 -19   48.70    4.60
   3   5 -18   20.30    4.50
   3   5 -17  361.30   10.80
   3   5 -16  439.20   13.40
   3   5 -15 3580.80   64.30
   3   5 -14   17.70    3.20
   3   5 -13  842.00   19.00
   3   5 -12 1887.20   36.60
   3   5 -11  185.40    6.70
   3   5 -10  390.50   11.20
   3   5  -9   18.50    2.40
   3   5  -8 2379.30   47.70
   3   5  -7 1327.20   38.10
   3   5  -6    0.50    1.40
   3   5  -5  662.30   15.60
   3   5  -4  180.10    6.00
   3   5  -3  621.10   13.60
   3   5  -2 1544.90   30.80
   3   5  -1  115.40    3.90
   3   5   0 3082.90   55.50
   3   5   1   31.40    1.70
   3   5   2  375.40   13.20
   3   5   3 1288.50   40.30
   3   5   4 1240.80   34.90
   3   5   5    4.70    4.40
   3   5   6   22.80    4.70
   3   5   7  332.80   18.40
   3   5   8  154.40    8.60
   3   5   9   35.50    4.60
   3   5  10 1995.10   58.30
   3   5  11  713.90   23.60
   3   5  12  252.60   12.20
   3   5  13   -3.00    4.20
   3   5  14  388.30   14.60
   3   5  15 1516.90   41.60
   3   5  16   30.60    1.80
   3   5  17  116.90    4.20
   3   5  18  370.60    9.00
   3   5  19   11.60    2.20
   3   5  20   82.40    4.40
   3   5  21   33.10    3.50
   3   5  22  370.70    8.50
   3   6 -22   66.80    4.30
   3   6 -21   67.90    4.80
   3   6 -20   41.40    5.00
   3   6 -19    6.30    4.00
   3   6 -18   27.80    3.90
   3   6 -17    8.80    3.80
   3   6 -16   50.40    4.00
   3   6 -15  261.20    8.40
   3   6 -14   31.90    2.90
   3   6 -13  228.40    7.80
   3   6 -12   45.30    3.40
   3   6 -11  759.00   18.40
   3   6 -10  126.00    6.10
   3   6  -9 1310.30   30.90
   3   6  -8 1216.70   25.10
   3   6  -7   28.40    2.80
   3   6  -6 2830.20   54.90
   3   6  -5  328.50    9.30
   3   6  -4  482.30   11.30
   3   6  -3   12.20    1.50
   3   6  -2   27.90    2.30
   3   6  -1   23.40    2.00
   3   6   0   21.10    1.90
   3   6   1  226.80    5.80
   3   6   2   10.10    3.30
   3   6   3   11.90    3.00
   3   6   4    0.30    4.00
   3   6   5   57.10    5.20
   3   6   6   -0.10    2.90
   3   6   7  554.40   20.50
   3   6   8 1093.10   31.00
   3   6   9 3492.30   81.30
   3   6  10 1153.30   34.10
   3   6  11  527.40   17.40
   3   6  12  154.50    8.30
   3   6  13  157.00   10.40
   3   6  14   -2.40    4.10
   3   6  15  685.00   24.10
   3   6  16   14.20    5.10
   3   6  17   52.20    7.20
   3   6  18   10.60    6.10
   3   6  19  111.60    9.00
   3   6  20   40.80    5.90
   3   7 -20    7.00    6.40
   3   7 -19  123.10   11.00
   3   7 -18   25.00    8.50
   3   7 -17   24.30    9.60
   3   7 -16    6.40    6.00
   3   7 -15  906.60   29.60
   3   7 -14  105.10    8.40
   3   7 -13   93.30    8.80
   3   7 -12  587.00   21.30
   3   7 -11  223.70   10.90
   3   7 -10  124.80   10.60
   3   7  -9   22.10    2.10
   3   7  -8 2146.60   39.70
   3   7  -7   31.40    2.80
   3   7  -6    0.60    2.00
   3   7  -5   44.00    2.80
   3   7  -4    9.50    2.20
   3   7  -3  920.20   20.80
   3   7  -2  740.90   16.60
   3   7  -1  202.50    6.10
   3   7   0    7.00    1.90
   3   7   1  347.60   14.10
   3   7   2    1.10    4.20
   3   7   3   61.80    5.80
   3   7   4 2215.10   57.70
   3   7   5   93.90    5.90
   3   7   6  141.30    9.30
   3   7   7 1023.50   35.40
   3   7   8 1716.00   46.90
   3   7   9   35.70    5.20
   3   7  10  438.60   16.70
   3   7  11   17.90    5.80
   3   7  12  155.20    9.40
   3   7  13  154.50    9.60
   3   7  14   70.40    6.40
   3   7  15  321.20   14.00
   3   7  16   -4.90    4.50
   3   7  17   23.90    5.30
   3   7  18   -2.70    5.40
   3   8 -18   24.40    5.40
   3   8 -17  258.40   11.10
   3   8 -16 1023.50   36.50
   3   8 -15   98.00    8.50
   3   8 -14   58.00   10.00
   3   8 -13   38.10    7.20
   3   8 -12  132.50   12.60
   3   8 -11   11.40    4.00
   3   8 -10  288.30   13.00
   3   8  -9   88.40    6.50
   3   8  -8  353.20   12.30
   3   8  -7  117.10    5.90
   3   8  -6    3.10    1.70
   3   8  -5  858.70   15.50
   3   8  -4   44.10    2.50
   3   8  -3   -0.40    1.70
   3   8  -2   23.20    2.30
   3   8  -1  777.50   15.10
   3   8   0  429.10   13.30
   3   8   1  333.90   12.40
   3   8   2    5.30    3.80
   3   8   3   40.10    4.70
   3   8   4  301.50   14.00
   3   8   5  703.60   21.90
   3   8   6  463.60   19.50
   3   8   7    1.50    5.50
   3   8   8   20.70    5.40
   3   8   9  154.80   11.00
   3   8  10   61.60    6.40
   3   8  11   17.90    4.30
   3   8  12   -5.20    5.90
   3   8  13   -4.20    4.60
   3   8  14    2.20    4.50
   3   8  15   13.00    5.90
   3   8  16   12.80    5.40
   3   9 -16  138.20   13.10
   3   9 -15   87.00    8.40
   3   9 -14  198.80   13.50
   3   9 -13   -1.30    5.80
   3   9 -12  153.50    7.80
   3   9 -11   45.40    5.20
   3   9 -10   44.70    6.20
   3   9  -9   99.00    8.10
   3   9  -8   19.20    4.70
   3   9  -7   74.70    5.10
   3   9  -6   16.20    3.40
   3   9  -5  120.00    5.90
   3   9  -4  641.00   18.90
   3   9  -3   65.00    3.00
   3   9  -2   71.50    2.80
   3   9  -1   28.80    3.90
   3   9   0    7.10    3.20
   3   9   1  199.70    9.60
   3   9   2  168.40    9.10
   3   9   3  219.70    8.70
   3   9   4   20.80    5.60
   3   9   5  549.00   18.80
   3   9   6  549.80   21.00
   3   9   7   54.60    7.30
   3   9   8  127.10    9.20
   3   9   9  177.80   11.10
   3   9  10   29.10    7.00
   3   9  11    8.30    5.10
   3   9  12  215.80   11.50
   3   9  13   26.60    5.30
   4   0 -29    3.90    5.80
   4   0 -28   12.50    5.60
   4   0 -27    5.80    6.00
   4   0 -26  304.40   15.30
   4   0 -25    6.50    8.10
   4   0 -24  534.60   22.40
   4   0 -23   -1.60    6.40
   4   0 -22   19.90    7.90
   4   0 -21   -6.10    8.20
   4   0 -20 1872.10   48.60
   4   0 -19    1.10    5.40
   4   0 -18   31.80    5.90
   4   0 -17   -3.00    4.50
   4   0 -16   20.50    4.80
   4   0 -15   -7.80    3.60
   4   0 -14   99.70    6.70
   4   0 -13    0.80    3.20
   4   0 -12   30.30    4.40
   4   0 -11   -3.00    3.20
   4   0 -10    4.90    3.40
   4   0  -9    1.70    3.30
   4   0  -8 2354.80   61.30
   4   0  -7    1.00    3.10
   4   0  -6 8751.70  282.20
   4   0  -5    2.60    3.20
   4   0  -4 9190.70  299.20
   4   0  -3    1.50    3.70
   4   0  -2 2740.30   70.60
   4   0  -1    4.60    2.70
   4   0   0   36.40    2.60
   4   0   1    5.90    2.90
   4   0   3   -1.60    2.30
   4   0   4 1721.60   43.70
   4   0   5   -0.90    3.30
   4   0   617232.30  551.60
   4   0   7   -1.90    3.20
   4   0   8 5480.90  132.60
   4   0   9    1.60    3.20
   4   0  1020898.50  666.60
   4   0  11   -2.40    3.10
   4   0  12  282.20   11.20
   4   0  13    1.00    5.80
   4   0  14  658.00   24.10
   4   0  15   -6.00    4.50
   4   0  16   88.90    7.90
   4   0  17    2.40    5.50
   4   0  18 1202.60   35.40
   4   0  19    7.80    6.30
   4   0  20  499.00   17.20
   4   0  21   -1.10    4.30
   4   0  22    1.70    4.60
   4   0  23   -9.10    7.40
   4   0  24    3.50    4.70
   4   0  25   -5.80    5.30
   4   0  26  208.70    9.10
   4   0  27   -5.90    5.50
   4   0  28  374.30   13.20
   4   1 -30   18.50    7.20
   4   1 -29    3.70    6.60
   4   1 -28   13.60    4.10
   4   1 -27   80.40    6.50
   4   1 -26   20.20    5.50
   4   1 -25   39.00    4.60
   4   1 -24    1.90    5.70
   4   1 -23  278.90    9.60
   4   1 -22  252.40    9.10
   4   1 -21  691.10   16.60
   4   1 -20    6.20    3.70
   4   1 -19  593.00   14.20
   4   1 -18  712.00   18.70
   4   1 -17 3744.20   66.80
   4   1 -16 1807.40   37.40
   4   1 -15  235.20    7.20
   4   1 -14  582.40   13.50
   4   1 -13 5020.90   88.50
   4   1 -12   22.20    3.30
   4   1 -11  131.30    4.80
   4   1 -10  285.40    8.10
   4   1  -9 2084.80   44.50
   4   1  -8 5223.30   88.40
   4   1  -7 3400.40   59.00
   4   1  -2 1021.20   20.20
   4   1  -1 4691.40   90.60
   4   1   0  679.00   14.50
   4   1   2    6.50    1.60
   4   1   3 7776.50  251.10
   4   1   4 4201.40   80.80
   4   1   5   10.30    2.30
   4   1   6  214.00    6.60
   4   1   7 2620.80   48.40
   4   1   8   82.20    3.90
   4   1   9  120.70    5.00
   4   1  10 9987.10  165.70
   4   1  1110031.50  165.70
   4   1  12  566.70   16.20
   4   1  13  603.00   14.40
   4   1  14 1167.60   31.30
   4   1  15  431.90   14.30
   4   1  16  876.50   23.90
   4   1  17   78.60    6.40
   4   1  18  439.70   10.90
   4   1  19 1232.70   28.70
   4   1  20  746.20   16.70
   4   1  21  137.50    6.00
   4   1  22  180.10    7.10
   4   1  23  313.70    9.60
   4   1  24    0.00    3.30
   4   1  25    6.20    3.10
   4   1  26    3.80    3.80
   4   1  27   52.50    4.50
   4   1  28   19.60    6.10
   4   2 -30    7.80    4.90
   4   2 -29   14.80    6.00
   4   2 -28   16.00    7.80
   4   2 -27   18.20    4.60
   4   2 -26  123.30    6.40
   4   2 -25  154.60    7.40
   4   2 -24  106.20    7.40
   4   2 -23  240.20    9.60
   4   2 -22   85.80    5.40
   4   2 -21  402.20   11.00
   4   2 -20  876.00   19.00
   4   2 -19  816.40   17.10
   4   2 -18 1158.70   23.30
   4   2 -17 1369.30   40.70
   4   2 -16  864.20   21.40
   4   2 -15    0.10    2.40
   4   2 -14   19.20    2.70
   4   2 -13  424.80   12.10
   4   2 -12  394.10    9.80
   4   2 -11   72.10    3.90
   4   2 -10    3.40    1.90
   4   2  -9 1353.80   26.20
   4   2  -8   87.60    3.50
   4   2  -7  352.50    8.70
   4   2  -611322.70  211.50
   4   2  -5 9641.30  182.50
   4   2  -422944.90  722.60
   4   2  -3 7357.60  143.30
   4   2  -2  398.20    9.10
   4   2  -1 2858.50   50.80
   4   2   0 8341.20  196.40
   4   2   1 1400.70   26.80
   4   2   2  590.90   12.80
   4   2   3   10.70    1.30
   4   2   4 1061.50   24.90
   4   2   5   92.60    3.70
   4   2   6   26.20    1.90
   4   2   7 1181.00   28.10
   4   2   8  231.30    7.50
   4   2   9  743.30   19.50
   4   2  10 3843.00   79.30
   4   2  11 2875.30   52.20
   4   2  12 3082.30   55.60
   4   2  13  857.50   21.40
   4   2  14 1010.70   26.70
   4   2  15  399.30   11.60
   4   2  16  796.90   17.90
   4   2  17  488.90   12.40
   4   2  18  357.10    9.40
   4   2  19  166.40    6.10
   4   2  20  221.20    7.50
   4   2  21  195.50    7.70
   4   2  22  117.90    6.20
   4   2  23  184.80    6.60
   4   2  24  113.10    5.80
   4   2  25  142.50    6.00
   4   2  26   54.10    4.50
   4   2  27   46.00    6.30
   4   2  28   15.10    5.60
   4   3 -29    2.70    4.70
   4   3 -28   25.60    6.00
   4   3 -27  170.80   11.30
   4   3 -26   31.20    5.70
   4   3 -25  153.60    6.10
   4   3 -24  393.00   10.40
   4   3 -23  213.10    8.40
   4   3 -22  199.90    8.20
   4   3 -21  227.10    9.20
   4   3 -20   -0.70    4.00
   4   3 -19   41.50    4.50
   4   3 -18  644.60   14.80
   4   3 -17  737.10   20.10
   4   3 -16  343.80   13.90
   4   3 -15  195.70    6.20
   4   3 -14  396.30   10.80
   4   3 -13  136.80    5.10
   4   3 -12  605.90   14.00
   4   3 -11  115.00    4.00
   4   3 -10  691.80   15.20
   4   3  -9   22.50    2.30
   4   3  -8 1499.50   28.60
   4   3  -727624.00  864.00
   4   3  -6 7370.60  122.10
   4   3  -527876.40  906.70
   4   3  -4 2360.20   43.40
   4   3  -3 2182.50   39.20
   4   3  -2 2380.30   43.00
   4   3  -1  105.80    3.50
   4   3   0  777.30   19.20
   4   3   1  418.50    9.10
   4   3   2  275.70    7.00
   4   3   3  124.70    4.50
   4   3   4   74.80    2.40
   4   3   5 1551.10   33.70
   4   3   6 7182.20  135.70
   4   3   7  953.40   24.60
   4   3   8 1776.30   33.70
   4   3   9  260.00    6.80
   4   3  10 3661.50   64.00
   4   3  11  535.10   11.50
   4   3  12  988.80   21.40
   4   3  13  127.10    4.60
   4   3  14  151.60    6.00
   4   3  15 1698.50   41.80
   4   3  16   54.60    4.10
   4   3  17    0.10    2.50
   4   3  18 2186.40   40.80
   4   3  19   49.50    4.60
   4   3  20   55.70    3.70
   4   3  21 1319.00   33.80
   4   3  22  341.30   10.90
   4   3  23  256.40    8.80
   4   3  24  209.90    8.00
   4   3  25   42.80    4.70
   4   3  26  127.90    7.40
   4   3  27   18.30    5.30
   4   4 -28   62.50    8.90
   4   4 -27   11.20    5.40
   4   4 -26   23.50    6.70
   4   4 -25   69.20    5.10
   4   4 -24   23.40    4.70
   4   4 -23  161.10    6.50
   4   4 -22   -7.30    3.60
   4   4 -21  116.10    6.60
   4   4 -20  458.10   12.50
   4   4 -19  238.50    8.00
   4   4 -18  313.10    9.70
   4   4 -17   18.60    3.40
   4   4 -16 5855.40  100.80
   4   4 -15   -2.90    3.40
   4   4 -14  744.90   15.90
   4   4 -13  125.30    5.50
   4   4 -12    8.60    2.10
   4   4 -11    8.00    2.10
   4   4 -10 1288.10   26.30
   4   4  -9   30.10    2.60
   4   4  -8  338.50    8.20
   4   4  -7 5323.70   88.80
   4   4  -6 2379.70   46.50
   4   4  -5  254.40    7.30
   4   4  -4   92.40    3.10
   4   4  -3 3608.70   64.90
   4   4  -2 1055.50   21.90
   4   4  -1   95.90    3.10
   4   4   0    2.00    1.50
   4   4   1   34.10    1.90
   4   4   2 5107.80  100.50
   4   4   3 1452.70   38.80
   4   4   4 3117.90   76.10
   4   4   5    5.10    4.50
   4   4   6  249.10   11.20
   4   4   7 1709.80   49.90
   4   4   8  138.00    8.80
   4   4   9  707.30   21.80
   4   4  10 3476.70   69.00
   4   4  11  208.30    5.60
   4   4  12  208.10    5.70
   4   4  13   99.40    4.30
   4   4  14  265.20    8.80
   4   4  15  599.40   14.40
   4   4  16  264.10    8.50
   4   4  17  133.10    5.30
   4   4  18  473.80   11.90
   4   4  19   79.20    4.20
   4   4  20  167.90    5.70
   4   4  21  862.00   21.60
   4   4  22  616.10   15.90
   4   4  23   40.00    4.70
   4   4  24  220.20   12.00
   4   4  25   -1.20    5.10
   4   5 -25    4.40    6.20
   4   5 -24   10.80    4.60
   4   5 -23    1.70    3.90
   4   5 -22   55.20    5.20
   4   5 -21   69.90    5.60
   4   5 -20   -4.90    4.00
   4   5 -19  174.10    7.40
   4   5 -18    7.40    4.30
   4   5 -17  314.00    9.30
   4   5 -16 3280.70   60.20
   4   5 -15    0.90    2.70
   4   5 -14  185.80    6.80
   4   5 -13  106.40    4.70
   4   5 -12   79.20    4.10
   4   5 -11  287.80    8.00
   4   5 -10 1683.40   33.90
   4   5  -9  565.40   13.20
   4   5  -8    5.20    2.20
   4   5  -7  326.70   10.10
   4   5  -6  106.40    4.10
   4   5  -5 1238.70   25.30
   4   5  -4  415.70    9.80
   4   5  -3  265.70    8.50
   4   5  -2    8.70    1.90
   4   5  -1    1.20    1.60
   4   5   0 2316.10   43.30
   4   5   1  117.80    3.90
   4   5   2  218.30    8.20
   4   5   3   48.30    4.90
   4   5   4   97.20    6.60
   4   5   5    4.40    4.30
   4   5   6  865.30   29.80
   4   5   7    0.30    3.80
   4   5   8 1645.10   50.30
   4   5   9  312.00   13.80
   4   5  10   61.00    5.70
   4   5  11  557.50   19.70
   4   5  12   77.50    6.70
   4   5  13  376.70   14.90
   4   5  14 1253.20   36.90
   4   5  15  331.70   15.50
   4   5  16  141.90    9.80
   4   5  17   17.60    2.00
   4   5  18    9.10    2.00
   4   5  19    2.40    1.90
   4   5  20  142.80    5.80
   4   5  21   52.10    3.50
   4   5  22  403.60   10.60
   4   6 -22    8.50    3.50
   4   6 -21    9.60    4.20
   4   6 -20  116.60    5.60
   4   6 -19   18.10    4.50
   4   6 -18   14.40    5.60
   4   6 -17   98.30    5.00
   4   6 -16  490.90   12.80
   4   6 -15   10.50    3.40
   4   6 -14   85.80    5.00
   4   6 -13  286.60    8.10
   4   6 -12  232.10    8.80
   4   6 -11 1188.40   23.10
   4   6 -10  160.50    5.60
   4   6  -9  843.50   18.60
   4   6  -8   22.00    2.70
   4   6  -7  382.10   10.50
   4   6  -6   20.10    2.90
   4   6  -5  500.90   12.80
   4   6  -4  337.00    9.60
   4   6  -3 2324.10   50.60
   4   6  -2  638.20   14.20
   4   6  -1  210.20    6.20
   4   6   0  177.40    5.50
   4   6   1  436.80   10.50
   4   6   2  413.20   16.30
   4   6   3   92.00    6.50
   4   6   4    4.70    3.20
   4   6   5   61.30    5.30
   4   6   6  115.60    7.20
   4   6   7   90.70    6.80
   4   6   8  287.80   13.10
   4   6   9  493.70   16.50
   4   6  10  458.60   15.60
   4   6  11 2106.40   56.70
   4   6  12 1109.90   35.80
   4   6  13  206.30   10.10
   4   6  14  324.70   14.70
   4   6  15  188.60    9.20
   4   6  16    7.30    5.20
   4   6  17  127.20    8.20
   4   6  18  349.40   13.80
   4   6  19  168.70    9.50
   4   6  20   25.40    5.00
   4   7 -20   53.60   21.90
   4   7 -19   70.40    9.80
   4   7 -18  141.00   10.30
   4   7 -17   33.40    7.50
   4   7 -16   45.10    7.10
   4   7 -15   -2.40    5.40
   4   7 -14   73.00    5.10
   4   7 -13   29.20    3.80
   4   7 -12    5.20    3.80
   4   7 -11    9.60    2.80
   4   7 -10 2185.80   40.30
   4   7  -9   -2.70    2.80
   4   7  -8   10.90    3.00
   4   7  -7   29.10    2.60
   4   7  -6 2077.00   36.80
   4   7  -5   41.60    3.00
   4   7  -4  316.40    7.80
   4   7  -3  364.40    8.80
   4   7  -2   64.40    3.10
   4   7  -1  227.70    7.40
   4   7   0  491.00   11.10
   4   7   1    7.40    4.60
   4   7   2   15.50    5.10
   4   7   3    2.50    4.10
   4   7   4  216.20   10.70
   4   7   5  418.40   14.90
   4   7   6  689.60   23.10
   4   7   7   85.70    6.40
   4   7   8  581.60   19.50
   4   7   9  159.90    8.60
   4   7  10    7.60    6.30
   4   7  11   69.80    6.80
   4   7  12    0.10    8.20
   4   7  13  412.80   16.20
   4   7  14   79.00    8.90
   4   7  15  124.90    8.80
   4   7  16   37.70    5.80
   4   7  17    1.70    4.50
   4   7  18   23.00    5.10
   4   8 -18   48.90    8.00
   4   8 -17   -8.40    4.90
   4   8 -16    3.40    4.10
   4   8 -15  513.20   14.90
   4   8 -14   56.90    6.60
   4   8 -13  106.40    7.10
   4   8 -12   29.50    5.60
   4   8 -11   33.10    5.70
   4   8 -10   24.50    4.40
   4   8  -9   84.80    6.00
   4   8  -8  644.80   14.90
   4   8  -7  204.50    7.10
   4   8  -6  806.30   18.10
   4   8  -5   78.10    3.50
   4   8  -4  101.30    4.20
   4   8  -3  363.80    9.30
   4   8  -2  364.70    9.60
   4   8  -1   19.80    1.90
   4   8   0   70.70    5.90
   4   8   1   55.20    6.00
   4   8   2   39.20    6.30
   4   8   3  110.10    7.40
   4   8   4   32.40    5.00
   4   8   5   12.90    5.20
   4   8   6   13.30    6.20
   4   8   7  102.20    7.80
   4   8   8  133.10   10.00
   4   8   9   -3.40    4.90
   4   8  10  190.80    9.50
   4   8  11   27.80    5.40
   4   8  12  142.70    8.50
   4   8  13   74.10    7.10
   4   8  14   -7.50    4.50
   4   8  15   29.60    8.70
   4   9 -16    0.10    4.40
   4   9 -15   28.90    4.80
   4   9 -14   -4.10    4.30
   4   9 -13  148.70    9.70
   4   9 -12   15.70    5.00
   4   9 -11   -4.60    4.10
   4   9 -10  363.30   13.00
   4   9  -9    6.70    4.20
   4   9  -8   84.70    6.60
   4   9  -7  388.20   13.20
   4   9  -6  289.20    9.90
   4   9  -5   23.90    2.50
   4   9  -4   40.60    2.60
   4   9  -3    9.40    1.80
   4   9  -2   95.80    6.10
   4   9  -1  158.30    6.20
   4   9   0    9.90    3.60
   4   9   1  510.10   16.60
   4   9   2   78.70    6.10
   4   9   3  583.00   18.00
   4   9   4  367.40   13.10
   4   9   5  717.90   23.70
   4   9   6  318.70   16.80
   4   9   7  441.50   16.90
   4   9   8   44.50    6.50
   4   9   9    2.20    6.50
   4   9  10  139.30    8.20
   4   9  11  128.30    7.60
   4   9  12  113.40    9.00
   4   9  13   21.50    4.70
   5   0 -29   35.30    6.80
   5   0 -28    6.10    5.80
   5   0 -27   10.10    7.10
   5   0 -26   14.20    6.50
   5   0 -25  377.00   15.30
   5   0 -24   -0.50    8.80
   5   0 -23  300.60   15.70
   5   0 -22   -7.70    5.70
   5   0 -21  -13.00    5.30
   5   0 -20   10.80    5.20
   5   0 -19    0.40    5.40
   5   0 -18   -9.50    4.50
   5   0 -17 6540.10  157.30
   5   0 -16   -6.20    3.90
   5   0 -15   10.20    4.20
   5   0 -14    3.30    3.60
   5   0 -1313312.90  310.90
   5   0 -12   -4.20    3.80
   5   0 -11 2198.00   57.70
   5   0 -10   -6.30    3.50
   5   0  -9 6525.80  152.00
   5   0  -8   -1.10    2.40
   5   0  -7 2951.30   74.90
   5   0  -6    1.20    3.00
   5   0  -5    3.30    3.10
   5   0  -4   -7.20    3.40
   5   0  -3 4944.20  120.10
   5   0  -2   -1.20    2.20
   5   0   0    2.40    2.30
   5   0   2    2.90    2.20
   5   0   3 7068.10  165.20
   5   0   4    0.80    2.70
   5   0   5 4011.80   95.60
   5   0   6   -1.00    3.70
   5   0   7   19.40    3.80
   5   0   8   -3.30    3.60
   5   0   9 2465.00   66.90
   5   0  10   -2.70    3.20
   5   0  11 2111.60   59.80
   5   0  12    3.40    3.10
   5   0  13  164.70    8.20
   5   0  14    1.00    3.90
   5   0  15  515.50   19.40
   5   0  16   -1.50    4.00
   5   0  17  977.30   31.50
   5   0  18   15.90    5.90
   5   0  19 1354.70   40.40
   5   0  20    5.20    5.80
   5   0  21 1025.30   34.20
   5   0  22   -0.80    5.10
   5   0  23  187.90   10.10
   5   0  24    3.00    4.40
   5   0  25   85.40    7.00
   5   0  26   -7.50    5.50
   5   0  27    7.20    4.60
   5   1 -29   92.20    8.20
   5   1 -28   33.10    4.90
   5   1 -27   73.90    5.90
   5   1 -26  179.60    8.10
   5   1 -25    8.60    4.40
   5   1 -24   64.30    5.40
   5   1 -23  129.30    6.20
   5   1 -22  730.80   19.80
   5   1 -21  553.10   14.00
   5   1 -20  534.20   12.90
   5   1 -19  543.50   13.50
   5   1 -18  116.90    6.00
   5   1 -17  173.20    7.60
   5   1 -16  387.90   11.40
   5   1 -15   36.60    3.60
   5   1 -14  848.20   17.90
   5   1 -13    0.20    2.10
   5   1 -12  134.30    5.60
   5   1 -11 1230.60   28.60
   5   1 -10   45.00    2.70
   5   1  -9 6410.50  108.30
   5   1  -8  195.30    5.30
   5   1  -7  280.30    7.50
   5   1  -6    5.90    1.90
   5   1  -5  185.10    5.50
   5   1  -4 7132.70  119.50
   5   1  -3  833.70   16.30
   5   1  -2 2910.30   52.70
   5   1  -1 2082.70   38.20
   5   1   0 7016.60  239.80
   5   1   1  105.40    4.30
   5   1   2  477.40   12.00
   5   1   3 1709.30   36.80
   5   1   4 3834.40   67.10
   5   1   5 1308.80   25.30
   5   1   6  127.90    6.70
   5   1   7  763.00   17.20
   5   1   8  729.60   16.00
   5   1   9  473.30   11.80
   5   1  10 3431.20   62.10
   5   1  11  237.10    7.40
   5   1  12   28.40    2.90
   5   1  13   -0.60    2.80
   5   1  14  319.60    9.80
   5   1  15    1.30    2.20
   5   1  16 2122.70   41.00
   5   1  17  469.00   12.20
   5   1  18    2.10    3.10
   5   1  19 1262.70   26.20
   5   1  20   39.80    5.40
   5   1  21    6.30    3.70
   5   1  22  392.70   11.20
   5   1  23   93.40    4.90
   5   1  24  100.00    5.20
   5   1  25    7.50    3.40
   5   1  26   16.90    3.50
   5   1  27   -4.30    6.20
   5   1  28   -0.90    4.20
   5   2 -30  136.40    7.20
   5   2 -29   23.20    5.60
   5   2 -28   82.60    8.40
   5   2 -27   72.50    5.30
   5   2 -26   73.90    6.00
   5   2 -25   14.00    4.40
   5   2 -24   19.30    4.40
   5   2 -23    6.60    5.20
   5   2 -22  208.10    8.10
   5   2 -21    8.30    4.60
   5   2 -20 1658.30   32.90
   5   2 -19 3566.20   62.40
   5   2 -18 1341.30   28.90
   5   2 -17 2727.90   58.90
   5   2 -16   25.50    3.30
   5   2 -15  102.10    4.60
   5   2 -14   22.60    2.70
   5   2 -13  375.70    9.70
   5   2 -12 1431.70   29.90
   5   2 -11   -1.10    2.00
   5   2 -10 4090.30   72.10
   5   2  -9    7.40    2.30
   5   2  -8 5755.40   97.20
   5   2  -7 4911.30   84.60
   5   2  -6 4040.20   71.00
   5   2  -5 1797.30   32.40
   5   2  -4  245.10    6.70
   5   2  -3 1152.10   24.00
   5   2  -2  565.60   12.10
   5   2  -1 3286.30   65.20
   5   2   0  284.70    6.60
   5   2   1 1207.00   26.40
   5   2   2 1929.90   36.00
   5   2   3  907.90   18.50
   5   2   4  202.50    5.60
   5   2   5  114.50    4.80
   5   2   6  138.80    6.00
   5   2   7   69.70    5.20
   5   2   8    2.00    2.10
   5   2   9   84.30    4.10
   5   2  10 1548.20   31.00
   5   2  11   20.50    2.50
   5   2  12  570.10   14.50
   5   2  13 3604.20   74.30
   5   2  14  789.30   18.20
   5   2  15   36.20    3.00
   5   2  16  505.90   12.50
   5   2  17 5575.40   96.30
   5   2  18 6361.20  108.10
   5   2  19 6586.90  111.10
   5   2  20   75.30    4.50
   5   2  21  259.10    8.90
   5   2  22   16.40    3.20
   5   2  23 1058.10   24.30
   5   2  24    1.60    3.40
   5   2  25   25.30    3.70
   5   2  26   59.90    7.20
   5   2  27   21.00    5.10
   5   2  28   25.50    5.10
   5   3 -30  127.10    9.80
   5   3 -29  214.90   11.70
   5   3 -28  517.10   20.10
   5   3 -27   35.50    6.70
   5   3 -26  146.00    7.50
   5   3 -25   27.20    5.70
   5   3 -24  654.70   16.60
   5   3 -23   84.50    6.40
   5   3 -22   43.60    5.90
   5   3 -21  534.40   14.80
   5   3 -20   83.40    4.90
   5   3 -19 2737.80   49.10
   5   3 -18  302.40    9.80
   5   3 -17 2447.90   50.80
   5   3 -16  657.50   18.50
   5   3 -15  129.50    6.10
   5   3 -14  449.50   13.40
   5   3 -13  546.10   12.80
   5   3 -12   91.30    4.10
   5   3 -11  844.20   17.80
   5   3 -10 8825.20  146.50
   5   3  -9 7999.60  131.80
   5   3  -8    9.80    2.50
   5   3  -7 8885.30  146.70
   5   3  -6 5566.30   92.70
   5   3  -5  867.90   18.60
   5   3  -4 2443.40   44.60
   5   3  -3 5701.10   95.80
   5   3  -2 1897.80   35.70
   5   3  -1  268.40    6.90
   5   3   0 1015.50   20.40
   5   3   1 5777.50   94.40
   5   3   2  270.20    7.00
   5   3   3 4533.50   86.70
   5   3   4  117.90    4.40
   5   3   5    2.80    1.20
   5   3   6   19.20    1.60
   5   3   7 2258.90   48.10
   5   3   8   27.30    2.00
   5   3   9  112.20    4.20
   5   3  10   72.70    3.70
   5   3  11 4749.30   83.50
   5   3  12  217.50    6.10
   5   3  13 1382.10   33.40
   5   3  14  287.00    9.30
   5   3  15 1516.40   44.60
   5   3  16    8.00    2.40
   5   3  17   49.80    3.50
   5   3  18   23.60    3.20
   5   3  19  229.40    8.20
   5   3  20   90.50    4.70
   5   3  21  467.50   18.30
   5   3  22  575.10   15.70
   5   3  23   -2.00    3.50
   5   3  24   58.00    4.70
   5   3  25   92.20    7.00
   5   3  26   22.10    5.70
   5   4 -28   13.00    5.10
   5   4 -27   60.50    7.00
   5   4 -26   85.00    7.30
   5   4 -25  137.30    6.00
   5   4 -24   16.40    4.00
   5   4 -23   14.10    4.50
   5   4 -22    5.90    4.70
   5   4 -21  302.90   12.00
   5   4 -20   34.20    4.40
   5   4 -19 2814.60   55.90
   5   4 -18    2.30    3.00
   5   4 -17 3493.00   60.40
   5   4 -16  284.50    8.60
   5   4 -15 1129.90   23.40
   5   4 -14  185.20    6.10
   5   4 -13    2.20    2.90
   5   4 -12   37.20    2.80
   5   4 -11  795.90   17.00
   5   4 -10  139.20    4.80
   5   4  -9  264.50    7.10
   5   4  -8 1989.00   38.10
   5   4  -710396.50  171.50
   5   4  -6   57.30    3.00
   5   4  -5   11.30    1.70
   5   4  -4 1249.70   24.50
   5   4  -3    3.40    1.90
   5   4  -2 1061.30   21.10
   5   4  -1 1217.00   25.10
   5   4   0  171.10    5.40
   5   4   1 2936.50   51.30
   5   4   2 6223.30  144.90
   5   4   3   -6.90    4.40
   5   4   4  272.10    9.70
   5   4   5  406.50   17.10
   5   4   6 2461.80   68.80
   5   4   7   99.70    7.20
   5   4   8  327.50   13.20
   5   4   9   52.80    5.00
   5   4  10   54.90    2.40
   5   4  11  174.40    5.10
   5   4  12  412.30   10.10
   5   4  13 1669.30   30.60
   5   4  14   11.00    2.10
   5   4  15  133.50    4.90
   5   4  16   32.50    3.00
   5   4  17 1393.70   28.20
   5   4  18   36.20    3.50
   5   4  19 1076.50   23.40
   5   4  20  151.40    8.00
   5   4  21  607.90   15.70
   5   4  22   89.20    5.00
   5   4  23  209.60    7.30
   5   4  24   -7.80    4.60
   5   5 -25   12.30    6.10
   5   5 -24    7.30    4.50
   5   5 -23  273.20   10.00
   5   5 -22   24.40    4.50
   5   5 -21   45.10    4.70
   5   5 -20   31.20    5.20
   5   5 -19   64.10    4.90
   5   5 -18   60.00    4.30
   5   5 -17   82.80    4.80
   5   5 -16 1144.40   24.70
   5   5 -15    0.10    3.40
   5   5 -14 1153.50   23.60
   5   5 -13  582.10   12.80
   5   5 -12  302.60    8.50
   5   5 -11 3144.50   56.90
   5   5 -10 1213.10   23.50
   5   5  -9  389.60   11.70
   5   5  -8 2481.90   65.40
   5   5  -7 1106.20   31.50
   5   5  -6  287.20    8.20
   5   5  -5 2242.90   42.30
   5   5  -4  201.80    5.90
   5   5  -3  162.50    5.20
   5   5  -2   37.20    2.50
   5   5  -1   99.00    4.10
   5   5   0   13.70    2.00
   5   5   1 2632.70   48.50
   5   5   2   90.70    6.40
   5   5   3  777.20   27.50
   5   5   4 2184.80   93.50
   5   5   5    7.30    3.70
   5   5   6  187.20    8.60
   5   5   7  495.60   16.80
   5   5   8    0.00    4.00
   5   5   9  411.70   18.10
   5   5  10 2744.90   73.00
   5   5  11 1729.70   51.60
   5   5  12 2573.80   66.60
   5   5  13  570.80   22.30
   5   5  14   28.90    6.10
   5   5  15   83.10    6.70
   5   5  16  162.80    9.50
   5   5  17   76.60    3.60
   5   5  18  351.10   10.60
   5   5  19  151.40    5.70
   5   5  20 1249.20   22.20
   5   5  21   54.40    3.70
   5   6 -22    3.30    4.70
   5   6 -21    1.50    3.80
   5   6 -20    3.70    4.10
   5   6 -19  219.90    8.30
   5   6 -18   31.10    4.00
   5   6 -17    8.20    3.80
   5   6 -16  143.40    6.10
   5   6 -15    9.60    3.80
   5   6 -14   -1.10    3.50
   5   6 -13  615.10   15.90
   5   6 -12    2.30    3.10
   5   6 -11 1599.60   36.00
   5   6 -10  950.40   22.70
   5   6  -9  503.00   12.50
   5   6  -8  210.40    6.50
   5   6  -7 2692.40   46.70
   5   6  -6  140.50    4.80
   5   6  -5   22.50    2.80
   5   6  -4 1587.80   31.90
   5   6  -3  156.40    5.70
   5   6  -2  596.50   16.00
   5   6  -1   81.90    3.90
   5   6   0 1128.00   24.40
   5   6   1  930.90   29.30
   5   6   2  802.30   28.90
   5   6   3  386.00   17.40
   5   6   4   10.20    3.80
   5   6   5  110.20    6.30
   5   6   6  153.70    8.50
   5   6   7  957.60   26.50
   5   6   8  518.20   20.00
   5   6   9  214.90   10.00
   5   6  10   64.10    6.70
   5   6  11  594.70   21.70
   5   6  12  679.70   23.90
   5   6  13 1260.80   38.70
   5   6  14   14.70    4.70
   5   6  15  678.30   33.20
   5   6  16   13.80    6.40
   5   6  17   81.80    6.60
   5   6  18    8.80    4.60
   5   6  19   76.30    7.70
   5   7 -20   -8.10    5.50
   5   7 -19   -7.70    4.90
   5   7 -18  379.00   11.70
   5   7 -17   58.90    5.90
   5   7 -16  257.90   14.00
   5   7 -15   59.50    4.10
   5   7 -14    8.90    3.10
   5   7 -13   31.10    3.20
   5   7 -12   30.70    3.20
   5   7 -11    0.40    3.00
   5   7 -10   -3.10    3.50
   5   7  -9  149.70    6.20
   5   7  -8  456.00   12.40
   5   7  -7  988.90   22.20
   5   7  -6  144.30    5.20
   5   7  -5  966.00   19.70
   5   7  -4 1009.90   21.20
   5   7  -3   28.30    2.80
   5   7  -2   87.10    3.50
   5   7  -1  777.40   16.30
   5   7   0   82.10    6.40
   5   7   1   65.40    7.00
   5   7   2   94.80    7.90
   5   7   3  839.50   23.50
   5   7   4   69.40    8.20
   5   7   5   17.80    4.70
   5   7   6  463.10   17.60
   5   7   7  426.80   15.60
   5   7   8   12.80    5.20
   5   7   9   39.20    6.50
   5   7  10    1.70    4.00
   5   7  11  680.80   25.70
   5   7  12   35.90    6.90
   5   7  13   15.10    5.00
   5   7  14  186.40    9.90
   5   7  15    5.70    6.00
   5   7  16   82.70    7.50
   5   7  17   98.30    8.50
   5   8 -18  399.00   15.10
   5   8 -17   17.30    7.30
   5   8 -16   -0.10    6.40
   5   8 -15   47.10    6.30
   5   8 -14    8.80    5.00
   5   8 -13   27.20    7.30
   5   8 -12    2.80    4.80
   5   8 -11  135.20    7.10
   5   8 -10   12.40    2.30
   5   8  -9   27.60    2.70
   5   8  -8  265.40    8.50
   5   8  -7  856.50   17.50
   5   8  -6  119.70    4.60
   5   8  -5    3.00    2.40
   5   8  -4  158.90    6.40
   5   8  -3    0.70    2.10
   5   8  -2 1728.00   31.60
   5   8  -1  569.10   20.00
   5   8   0  214.90   11.50
   5   8   1   -0.40    3.70
   5   8   2   58.50    5.50
   5   8   3  154.50   10.70
   5   8   4  371.40   15.20
   5   8   5  630.80   30.00
   5   8   6  224.00   13.70
   5   8   7  575.70   22.90
   5   8   8  300.60   16.50
   5   8   9  245.50   12.30
   5   8  10    3.80    4.80
   5   8  11   -2.90    6.80
   5   8  12   58.30    6.60
   5   8  13   73.60    7.90
   5   8  14  249.20   10.40
   5   8  15   42.50    9.10
   5   9 -16  105.40    6.70
   5   9 -15  153.90    6.90
   5   9 -14    5.70    4.30
   5   9 -13    2.40    6.10
   5   9 -12  118.30    6.40
   5   9 -11  149.60    7.50
   5   9 -10   42.40    5.80
   5   9  -9   43.70    5.30
   5   9  -8   68.80    6.00
   5   9  -7    0.10    3.70
   5   9  -6  433.50    9.40
   5   9  -5   12.80    2.90
   5   9  -4  551.60   10.60
   5   9  -3    3.60    4.30
   5   9  -2   90.40    5.80
   5   9  -1   63.20    6.60
   5   9   0  296.90   11.40
   5   9   1  254.60   10.20
   5   9   2   33.90    5.00
   5   9   3  131.00    8.80
   5   9   4    0.40    4.30
   5   9   5  161.50   11.20
   5   9   6   15.30    5.60
   5   9   7   -1.80    4.70
   5   9   8    8.50    4.60
   5   9   9   -5.80    5.30
   5   9  10   42.40    8.00
   5   9  11  145.80    9.00
   5   9  12   42.70    6.60
   6   0 -29   -7.90    7.80
   6   0 -28   -9.50    5.50
   6   0 -27   -2.00    5.60
   6   0 -26  115.30   10.10
   6   0 -25   -0.90    5.20
   6   0 -24  267.00   12.50
   6   0 -23   -1.50    5.60
   6   0 -22 2740.40   70.70
   6   0 -21   -2.40   11.80
   6   0 -20    6.30    6.30
   6   0 -19    7.00    6.10
   6   0 -18  871.30   26.30
   6   0 -17   -0.50    4.50
   6   0 -16  877.80   26.60
   6   0 -15   -4.50    3.50
   6   0 -14 2154.60   57.80
   6   0 -13   -5.60    3.20
   6   0 -12 2259.80   62.60
   6   0 -11   -1.70    4.50
   6   0 -10 1392.00   36.60
   6   0  -9    0.50    3.30
   6   0  -8 1391.30   37.40
   6   0  -7    0.40    3.20
   6   0  -6  302.10   15.30
   6   0  -5   -0.50    3.20
   6   0  -4 2908.50  102.40
   6   0  -3    3.90    2.50
   6   0  -2 4994.90  123.30
   6   0  -1    2.50    3.40
   6   0   1   -7.30    3.20
   6   0   3   -2.20    2.50
   6   0   4 8130.40  185.80
   6   0   5    1.40    2.70
   6   0   6 4084.60  103.60
   6   0   7    3.90    3.20
   6   0   8   -5.00    3.50
   6   0   9   -7.50    3.70
   6   0  10  600.60   26.50
   6   0  11    2.60    3.10
   6   0  12   91.60    6.70
   6   0  13   -1.80    3.30
   6   0  14   33.40    4.20
   6   0  15    1.30    4.40
   6   0  16   28.30    5.60
   6   0  17   -3.30    5.10
   6   0  18 1703.20   46.90
   6   0  19   -1.40    5.40
   6   0  20   25.70    6.60
   6   0  21    4.30    4.60
   6   0  22  362.60   15.70
   6   0  23   -1.90    4.10
   6   0  24   69.70    6.50
   6   0  25   -3.10    4.40
   6   0  26    2.40    4.70
   6   0  27   -0.80    7.10
   6   1 -29   -4.70    8.50
   6   1 -28    3.20    4.50
   6   1 -27  344.90    9.40
   6   1 -26    6.30    4.80
   6   1 -25   45.80    6.00
   6   1 -24    9.70    4.50
   6   1 -23   69.10    5.50
   6   1 -22   52.50    4.90
   6   1 -21 1741.60   35.50
   6   1 -20 1701.80   33.40
   6   1 -19  141.50    5.80
   6   1 -18  855.70   18.50
   6   1 -17    9.60    4.30
   6   1 -16   71.90    4.10
   6   1 -15   -0.80    2.70
   6   1 -14  148.10    5.60
   6   1 -13   13.00    3.40
   6   1 -12   34.30    3.30
   6   1 -11  171.60    6.40
   6   1 -10 1545.20   34.00
   6   1  -9 8270.80  137.60
   6   1  -8 2211.60   40.90
   6   1  -7  109.40    4.10
   6   1  -6 3026.00   54.20
   6   1  -5   49.80    2.60
   6   1  -413161.60  427.00
   6   1  -3    2.10    1.70
   6   1  -2 3251.30   57.40
   6   1  -1  301.50    9.50
   6   1   0 8270.00  189.00
   6   1   110275.80  236.20
   6   1   2 4752.50   91.70
   6   1   3  173.70    5.30
   6   1   4 2227.20   40.20
   6   1   5  582.60   13.10
   6   1   6 3063.00   57.00
   6   1   711196.60  182.70
   6   1   8    1.80    2.30
   6   1   9  679.30   15.70
   6   1  10  631.50   16.00
   6   1  11 2706.60   58.10
   6   1  12 1066.30   22.90
   6   1  13 2213.70   58.30
   6   1  14 1385.30   32.90
   6   1  15  118.30    5.50
   6   1  16  156.40    6.10
   6   1  17  671.40   17.90
   6   1  18  686.50   15.60
   6   1  19   67.30    5.30
   6   1  20  151.30    6.00
   6   1  21 1029.30   24.00
   6   1  22  782.00   17.70
   6   1  23   79.70    5.10
   6   1  24   99.10    5.60
   6   1  25   55.10    4.50
   6   1  26    7.40    3.20
   6   1  27    1.00    4.40
   6   1  28   11.30    6.40
   6   2 -30   -3.90    5.30
   6   2 -29   47.10    7.30
   6   2 -28   79.20    7.60
   6   2 -27   27.20    5.20
   6   2 -26   12.10    5.00
   6   2 -25   35.20    4.70
   6   2 -24  266.70    8.70
   6   2 -23   28.50    4.80
   6   2 -22  315.40    9.10
   6   2 -21  113.60    6.20
   6   2 -20    4.20    4.80
   6   2 -19  605.80   15.60
   6   2 -18  434.50   11.50
   6   2 -17 1620.10   36.60
   6   2 -16    0.50    2.30
   6   2 -15  371.40   10.50
   6   2 -14   21.00    2.80
   6   2 -13  377.80    9.90
   6   2 -12   38.00    2.90
   6   2 -11  534.90   12.90
   6   2 -10 2056.40   38.50
   6   2  -9 2497.10   45.80
   6   2  -8 1906.60   36.40
   6   2  -723353.30  729.50
   6   2  -6  822.00   17.50
   6   2  -5  667.80   14.20
   6   2  -4 2510.00   43.60
   6   2  -3   46.80    2.40
   6   2  -2  228.90    6.10
   6   2  -1  564.20   12.10
   6   2   0  148.50    4.70
   6   2   1    2.70    1.60
   6   2   2 4081.70   70.20
   6   2   3 1170.90   22.00
   6   2   4  451.80    9.80
   6   2   5 9379.90  154.60
   6   2   6 4166.90   81.50
   6   2   7 1675.90   38.60
   6   2   8 1006.70   32.10
   6   2   9  142.30    5.20
   6   2  10 1007.30   19.80
   6   2  11 2160.20   41.80
   6   2  12   37.00    2.90
   6   2  13   14.40    2.40
   6   2  14   49.90    3.40
   6   2  15 5160.00  105.90
   6   2  16  387.90   12.60
   6   2  17  415.80   11.10
   6   2  18    7.30    3.00
   6   2  19  491.40   12.50
   6   2  20 1003.80   23.00
   6   2  21  515.50   14.40
   6   2  22   36.40    3.60
   6   2  23  491.10   13.70
   6   2  24   11.10    3.90
   6   2  25    8.30    3.50
   6   2  26   51.10    6.70
   6   2  27    7.30    4.80
   6   2  28  155.20   10.20
   6   3 -30    4.80    7.00
   6   3 -29   96.60    8.80
   6   3 -28   15.20    6.90
   6   3 -27   -4.60    5.30
   6   3 -26   78.60    5.80
   6   3 -25   23.20    5.50
   6   3 -24   -7.80    5.80
   6   3 -23  553.50   15.10
   6   3 -22  108.10    5.60
   6   3 -21 1187.70   24.50
   6   3 -20  526.50   14.50
   6   3 -19  880.60   19.40
   6   3 -18    6.00    3.30
   6   3 -17    6.40    3.00
   6   3 -16  848.30   26.80
   6   3 -15   13.80    3.30
   6   3 -14    5.00    2.40
   6   3 -13  410.90   11.10
   6   3 -12  480.30   11.60
   6   3 -11 2055.60   40.80
   6   3 -10 2443.10   45.00
   6   3  -9  495.00   11.40
   6   3  -8 3541.60   63.20
   6   3  -7 9884.00  159.80
   6   3  -6 9811.30  161.10
   6   3  -5 2898.60   51.60
   6   3  -4 2736.90   50.10
   6   3  -3 2907.50   51.00
   6   3  -2   34.10    2.00
   6   3  -1 2022.90   37.60
   6   3   0  463.10    9.80
   6   3   1 1136.90   23.00
   6   3   2  461.40   10.80
   6   3   3    8.60    1.50
   6   3   4  194.40    5.90
   6   3   5 1382.70   28.00
   6   3   6 1880.80   35.90
   6   3   7 1636.70   32.70
   6   3   8  265.50    8.00
   6   3   9   47.70    2.80
   6   3  10  218.60    6.80
   6   3  11  155.10    5.80
   6   3  12  515.30   15.50
   6   3  13  551.30   16.70
   6   3  14  173.00    7.50
   6   3  15  714.40   15.90
   6   3  16  234.80    7.90
   6   3  17  377.40   10.30
   6   3  18  120.30    4.90
   6   3  19  864.40   21.10
   6   3  20  845.50   20.20
   6   3  21  322.60    9.80
   6   3  22   35.30    3.90
   6   3  23  229.20    8.40
   6   3  24    9.30    3.50
   6   3  25   71.90    5.90
   6   3  26    1.10    6.30
   6   4 -28   61.10    8.30
   6   4 -27   14.00    5.60
   6   4 -26    0.70    5.80
   6   4 -25    9.10    4.50
   6   4 -24    2.10    4.20
   6   4 -23  684.70   16.10
   6   4 -22   63.40    6.30
   6   4 -21  578.00   15.80
   6   4 -20  454.50   13.60
   6   4 -19  104.50    5.80
   6   4 -18  429.10   12.20
   6   4 -17 2310.40   43.10
   6   4 -16   10.10    2.90
   6   4 -15  429.10   10.30
   6   4 -14 1909.20   41.20
   6   4 -13  186.00    6.00
   6   4 -12   71.60    3.50
   6   4 -11   25.50    2.40
   6   4 -10 6866.20  116.30
   6   4  -9  298.10    8.20
   6   4  -816856.50  273.80
   6   4  -7 2610.40   48.40
   6   4  -6   83.40    3.40
   6   4  -5   18.00    2.10
   6   4  -4  145.90    4.80
   6   4  -3 1269.00   26.70
   6   4  -2    1.80    1.20
   6   4  -1   11.40    1.70
   6   4   0    6.20    1.40
   6   4   1  256.00    6.50
   6   4   2  559.50   14.10
   6   4   3   38.30    2.00
   6   4   4   58.30    5.60
   6   4   5 2091.30   57.40
   6   4   6   -4.50    3.60
   6   4   7 1905.80   51.90
   6   4   8  737.00   16.40
   6   4   9   24.60    1.70
   6   4  10   38.50    2.20
   6   4  11  313.90    8.80
   6   4  12   -1.40    1.40
   6   4  13   31.50    2.70
   6   4  14    6.80    2.40
   6   4  15 4170.50   71.60
   6   4  16  135.30    5.60
   6   4  17    1.00    2.30
   6   4  18  533.80   13.60
   6   4  19  508.50   14.40
   6   4  20  155.70    7.20
   6   4  21  552.40   15.10
   6   4  22   81.70    5.00
   6   4  23   -3.40    4.20
   6   5 -26   -0.20   11.10
   6   5 -25    9.40    6.80
   6   5 -24    2.00    4.40
   6   5 -23   63.80    4.80
   6   5 -22  107.10    7.70
   6   5 -21  274.60    9.10
   6   5 -20    8.00    4.00
   6   5 -19  234.50    8.10
   6   5 -18   19.20    3.60
   6   5 -17  316.30    9.20
   6   5 -16   23.90    3.60
   6   5 -15  126.80    5.50
   6   5 -14  212.30    7.30
   6   5 -13  940.90   19.30
   6   5 -12  205.20    6.50
   6   5 -11 2439.80   45.60
   6   5 -10 2404.20   52.80
   6   5  -9 4209.20  104.10
   6   5  -8 3815.70  102.40
   6   5  -7  527.90   12.40
   6   5  -6  612.10   13.40
   6   5  -5   88.50    3.70
   6   5  -4   66.20    3.50
   6   5  -3    0.50    1.50
   6   5  -2    6.90    1.80
   6   5  -1 1497.60   30.20
   6   5   0  432.20   11.20
   6   5   1  460.00   11.20
   6   5   2  117.10    7.00
   6   5   3 3943.00   97.80
   6   5   4  108.40    7.20
   6   5   5   -1.30    5.10
   6   5   6  526.10   21.00
   6   5   7   70.80    8.00
   6   5   8   44.60    5.60
   6   5   9   29.40    4.70
   6   5  10  461.50   30.30
   6   5  11  499.10   18.50
   6   5  12  512.20   30.60
   6   5  13   -4.60    4.70
   6   5  14   64.50    6.60
   6   5  15   10.40    6.00
   6   5  16  210.70   11.90
   6   5  17    6.00    1.80
   6   5  18   19.70    2.80
   6   5  19  935.50   21.00
   6   5  20  112.00    4.30
   6   5  21  248.60    7.70
   6   6 -23   43.00   16.40
   6   6 -22   79.20    5.30
   6   6 -21   73.50    5.50
   6   6 -20   10.20    4.50
   6   6 -19   23.70    4.80
   6   6 -18   41.10    4.90
   6   6 -17   80.90    5.40
   6   6 -16   71.00    4.60
   6   6 -15   82.90    4.40
   6   6 -14  209.70    8.20
   6   6 -13  825.70   19.80
   6   6 -12  518.20   12.70
   6   6 -11  256.40    8.20
   6   6 -10  823.40   18.50
   6   6  -9 3812.40   68.00
   6   6  -8 1288.90   25.30
   6   6  -7  718.80   15.50
   6   6  -6 1912.40   34.40
   6   6  -5  169.90    5.80
   6   6  -4  386.30   10.00
   6   6  -3   32.30    2.90
   6   6  -2  316.10    8.50
   6   6  -1  481.50   11.70
   6   6   0  283.60    8.60
   6   6   1  209.40    9.90
   6   6   2  155.70   10.10
   6   6   3   36.40    4.50
   6   6   4  584.80   19.70
   6   6   5   95.50    7.00
   6   6   6  525.20   16.50
   6   6   7   18.90    4.40
   6   6   8  140.10    9.70
   6   6   9 2099.90   56.80
   6   6  10    7.50    5.00
   6   6  11  446.20   24.90
   6   6  12  246.70   11.20
   6   6  13    3.20    5.90
   6   6  14   86.60    7.00
   6   6  15   54.80    6.90
   6   6  16  309.00   15.40
   6   6  17   10.70    5.70
   6   6  18   11.50    6.00
   6   7 -20  254.40   11.90
   6   7 -19   15.50    4.00
   6   7 -18   -2.20    3.70
   6   7 -17  154.30    7.30
   6   7 -16   73.80    4.80
   6   7 -15   92.10    5.50
   6   7 -14   30.00    4.90
   6   7 -13  310.90    9.80
   6   7 -12   67.50    4.50
   6   7 -11  210.60    7.80
   6   7 -10  996.70   20.80
   6   7  -9   29.50    3.00
   6   7  -8    6.10    3.20
   6   7  -7   13.70    2.90
   6   7  -6  876.40   19.20
   6   7  -5  702.50   16.80
   6   7  -4  285.80    9.20
   6   7  -3  744.80   17.20
   6   7  -2  268.30    7.20
   6   7  -1  174.60    5.20
   6   7   0  561.70   17.70
   6   7   1   11.10    4.40
   6   7   2  407.50   16.90
   6   7   3  203.90   10.10
   6   7   4  205.50   11.90
   6   7   5  102.40    7.70
   6   7   6  163.50    9.20
   6   7   7  695.80   23.70
   6   7   8    2.90    6.20
   6   7   9  145.50    9.70
   6   7  10   76.60    7.70
   6   7  11  352.60   17.40
   6   7  12    1.00    4.80
   6   7  13  185.20   12.00
   6   7  14   54.00    6.90
   6   7  15  222.90    9.90
   6   7  16  216.30   11.00
   6   8 -18  147.00   12.90
   6   8 -17   -6.10    6.70
   6   8 -16   18.60    7.70
   6   8 -15   24.80    6.70
   6   8 -14   25.70    5.50
   6   8 -12   19.20    6.70
   6   8 -11    6.30    3.30
   6   8 -10   24.10    4.20
   6   8  -9   16.80    3.20
   6   8  -8   63.80    3.90
   6   8  -7    8.20    2.40
   6   8  -6    8.00    2.70
   6   8  -5  363.90    9.30
   6   8  -4    4.60    3.00
   6   8  -3  539.40   12.80
   6   8  -2  873.20   20.60
   6   8  -1   98.10    8.30
   6   8   0   21.30    4.30
   6   8   1   65.70    7.10
   6   8   2   -1.10    4.60
   6   8   3  104.00    7.70
   6   8   4  296.20   11.90
   6   8   5   52.90    6.90
   6   8   6 1107.70   38.30
   6   8   7   10.90    6.20
   6   8   8  171.50   10.30
   6   8   9  203.60   10.30
   6   8  10  265.70   13.40
   6   8  11   50.80    8.50
   6   8  12    6.50    5.10
   6   8  13  133.30   10.80
   6   8  14   29.30    6.40
   6   9 -16  214.10   15.10
   6   9 -15   67.00    5.80
   6   9 -14   47.30    4.50
   6   9 -13   12.20    5.80
   6   9 -12  144.60    7.60
   6   9 -11   34.90    5.50
   6   9 -10    0.30    3.60
   6   9  -9   15.80    4.60
   6   9  -8    3.60    3.40
   6   9  -7  354.80    9.90
   6   9  -6   31.70    3.50
   6   9  -5   61.10    3.20
   6   9  -4   10.00    2.80
   6   9  -3  136.80    7.30
   6   9  -2  454.10   14.60
   6   9  -1    8.50    5.10
   6   9   0  229.60   10.30
   6   9   1  131.60    8.90
   6   9   2  279.40   11.80
   6   9   3   31.70    5.40
   6   9   4  114.80    8.60
   6   9   5   51.70    7.50
   6   9   6    6.10    4.40
   6   9   7  471.90   16.30
   6   9   8  229.30   11.60
   6   9   9   76.50    7.80
   6   9  10  176.00   10.80
   6   9  11   60.60    5.80
   7   0 -29    4.40    8.10
   7   0 -28   -5.80    5.50
   7   0 -27   16.70    6.40
   7   0 -26   -4.90    6.60
   7   0 -25  707.40   22.60
   7   0 -24    9.40    7.10
   7   0 -23  644.50   22.50
   7   0 -22   -2.30    5.90
   7   0 -21 4502.20  108.40
   7   0 -20   11.50    6.00
   7   0 -19 1167.80   32.40
   7   0 -18    5.00    6.90
   7   0 -17 4860.50  118.60
   7   0 -16   -2.50    3.90
   7   0 -15  309.80   16.30
   7   0 -14   -1.60    3.40
   7   0 -13   87.50    5.50
   7   0 -12   -7.30    3.10
   7   0 -11 2469.20   61.60
   7   0 -10    2.40    3.50
   7   0  -9  589.30   19.00
   7   0  -8   -3.30    3.10
   7   0  -7 2198.00   77.50
   7   0  -6   -1.00    5.00
   7   0  -5 2830.00  102.80
   7   0  -4    2.20    3.10
   7   0  -3  304.00   10.30
   7   0  -2   -4.50    2.80
   7   0  -1  112.50    6.10
   7   0   0   -1.10    3.10
   7   0   1 6087.20  143.00
   7   0   2    1.10    2.60
   7   0   3 2542.20   64.00
   7   0   4    3.80    2.50
   7   0   5 8843.70  202.80
   7   0   6    0.80    2.80
   7   0   7  391.20   13.00
   7   0   8    8.90    4.60
   7   0   9 8464.80  213.70
   7   0  10   -1.80    4.60
   7   0  11  138.10    7.40
   7   0  12    2.40    3.70
   7   0  13  495.90   19.10
   7   0  14    8.20    3.60
   7   0  15 1243.10   37.10
   7   0  16   -5.00    4.80
   7   0  17 6185.00  151.10
   7   0  18   -0.10    5.20
   7   0  19   63.80    7.00
   7   0  20   -5.80    5.30
   7   0  21  267.30   14.50
   7   0  22  -12.50    5.90
   7   0  23   11.30    4.80
   7   0  24    3.10    5.00
   7   0  25  186.40   19.90
   7   0  26    7.80    5.90
   7   1 -29   21.20    6.70
   7   1 -28   35.70    4.10
   7   1 -27   14.20    5.10
   7   1 -26   81.10    5.80
   7   1 -25   51.80    4.90
   7   1 -24   14.90    5.00
   7   1 -23   -0.70    5.20
   7   1 -22  908.30   21.00
   7   1 -21  238.00    8.20
   7   1 -20 2573.40   46.90
   7   1 -19  194.40    6.90
   7   1 -18  157.80    5.50
   7   1 -17  356.60   10.90
   7   1 -16  288.30    8.10
   7   1 -15  749.00   16.90
   7   1 -14 1805.30   40.40
   7   1 -13   38.30    3.30
   7   1 -12 5282.90  104.50
   7   1 -11   45.50    3.00
   7   1 -10  170.70    5.20
   7   1  -9 1624.60   31.00
   7   1  -8  111.70    4.10
   7   1  -7  109.30    3.80
   7   1  -6 7542.70  125.80
   7   1  -5 1425.80   27.80
   7   1  -4    5.70    1.80
   7   1  -3 1272.40   24.10
   7   1  -2 1707.90   36.50
   7   1  -1 1372.60   30.10
   7   1   0   55.30    2.80
   7   1   1 2293.70   57.80
   7   1   2   -0.30    2.20
   7   1   3 3536.20   62.90
   7   1   4  282.10    7.10
   7   1   5 1442.70   27.40
   7   1   6 4229.80   73.20
   7   1   7  556.90   16.20
   7   1   8 2397.00   46.10
   7   1   9  931.30   20.60
   7   1  10  488.10   12.70
   7   1  11   -3.70    2.00
   7   1  12   36.00    3.60
   7   1  13 1576.30   37.30
   7   1  14   60.60    4.10
   7   1  15   67.10    4.20
   7   1  16 2211.20   42.70
   7   1  17   33.50    3.90
   7   1  18  499.10   13.90
   7   1  19   60.60    4.40
   7   1  20  477.40   13.40
   7   1  21    7.40    3.50
   7   1  22   36.60    3.90
   7   1  23   42.30    4.10
   7   1  24   87.20    5.50
   7   1  25   37.40    4.00
   7   1  26  659.00   20.90
   7   1  27   27.10    4.90
   7   2 -29   50.70    6.20
   7   2 -28   95.50    7.90
   7   2 -27   12.70    5.00
   7   2 -26  146.90    6.30
   7   2 -25  191.60    8.20
   7   2 -24  164.50    8.10
   7   2 -23   13.10    4.90
   7   2 -22  100.50    6.00
   7   2 -21   28.60    4.20
   7   2 -20  959.90   21.00
   7   2 -19   77.60    5.00
   7   2 -18  463.70   13.80
   7   2 -17   11.30    2.90
   7   2 -16  364.30    9.00
   7   2 -15  338.60    9.30
   7   2 -14   23.30    3.10
   7   2 -13  360.10    9.90
   7   2 -12  681.70   15.90
   7   2 -11   48.10    2.90
   7   2 -10 1338.50   26.20
   7   2  -9 2880.20   52.90
   7   2  -8   86.10    3.40
   7   2  -7 4549.40   77.30
   7   2  -6 1674.90   32.20
   7   2  -512029.70  194.60
   7   2  -4 1841.80   33.50
   7   2  -3 1448.60   28.50
   7   2  -2 9358.70  151.70
   7   2  -1  466.40   11.10
   7   2   0 1148.60   21.90
   7   2   1 1571.30   28.90
   7   2   2  863.20   17.70
   7   2   3 4848.90   81.80
   7   2   4  175.90    6.10
   7   2   5  971.50   22.90
   7   2   6   -2.10    3.30
   7   2   7 2751.00   59.10
   7   2   8  468.20   11.10
   7   2   9   59.00    3.30
   7   2  10  276.90    7.80
   7   2  11    0.80    2.80
   7   2  12 1289.40   27.60
   7   2  13  681.70   18.50
   7   2  14  856.00   26.90
   7   2  15  818.90   18.30
   7   2  16 1898.70   35.80
   7   2  17 1357.30   28.00
   7   2  18 2331.60   45.20
   7   2  19    5.60    3.10
   7   2  20   14.20    3.20
   7   2  21  300.80   10.40
   7   2  22   23.30    3.90
   7   2  23 1000.10   22.00
   7   2  24  140.10    7.90
   7   2  25   29.50    5.50
   7   2  26   15.40    6.50
   7   3 -29   69.80    6.70
   7   3 -28  220.60   10.10
   7   3 -27   13.40    6.60
   7   3 -26  162.60    6.60
   7   3 -25  297.40    9.30
   7   3 -24   71.60    5.90
   7   3 -23  112.50    6.20
   7   3 -22  384.40   11.30
   7   3 -21   14.60    4.50
   7   3 -20 1540.80   30.30
   7   3 -19  129.20    5.30
   7   3 -18  459.50   11.50
   7   3 -17   -0.50    3.60
   7   3 -16   32.50    3.10
   7   3 -15  211.90    6.50
   7   3 -14  223.80    7.70
   7   3 -13   43.50    3.00
   7   3 -12   83.00    3.50
   7   3 -11  371.60    9.80
   7   3 -10 1145.90   23.10
   7   3  -9 1025.40   20.60
   7   3  -8 1992.80   38.60
   7   3  -7 1241.40   24.10
   7   3  -6  229.10    6.70
   7   3  -5  469.00   11.10
   7   3  -4  678.90   17.60
   7   3  -3   12.20    2.20
   7   3  -2 1043.00   21.30
   7   3  -1  599.50   12.90
   7   3   0 1873.50   36.00
   7   3   1 3650.10   63.70
   7   3   2  800.30   17.00
   7   3   3  384.10    8.90
   7   3   4 2559.90   49.10
   7   3   5  817.40   18.00
   7   3   6  136.60    5.30
   7   3   7    3.60    2.30
   7   3   8   53.60    3.20
   7   3   9    5.30    2.50
   7   3  10  182.80    6.40
   7   3  11   31.10    3.80
   7   3  12   55.60    4.10
   7   3  13   24.10    3.20
   7   3  14 2688.40   58.30
   7   3  15  739.20   18.20
   7   3  16 2103.80   43.10
   7   3  17   15.20    2.90
   7   3  18    5.70    3.50
   7   3  19  206.70    7.40
   7   3  20    3.40    3.00
   7   3  21  374.70   10.50
   7   3  22  255.30    8.60
   7   3  23   46.70    4.10
   7   3  24   12.00    3.60
   7   3  25    5.20    6.70
   7   4 -28    2.70    5.70
   7   4 -27  144.50   10.00
   7   4 -26    3.60    6.20
   7   4 -25    3.70    3.90
   7   4 -24  134.10    6.70
   7   4 -23  274.50    9.60
   7   4 -22  144.50    7.00
   7   4 -21   12.40    3.90
   7   4 -20  190.80    7.80
   7   4 -19  210.00    7.30
   7   4 -18   -0.10    3.80
   7   4 -17   47.90    4.80
   7   4 -16  129.20    5.90
   7   4 -15    3.30    3.00
   7   4 -14   44.80    3.80
   7   4 -13   11.50    2.70
   7   4 -12 1119.70   33.80
   7   4 -11  525.80   12.80
   7   4 -10  493.30   11.60
   7   4  -9  190.50    6.00
   7   4  -8  259.20    7.40
   7   4  -7   23.60    2.40
   7   4  -6 2115.80   39.80
   7   4  -5 1530.80   30.10
   7   4  -4   33.00    2.40
   7   4  -3  748.20   17.80
   7   4  -2  532.10   12.10
   7   4  -1  100.80    3.90
   7   4   0  179.50    5.50
   7   4   1  670.40   16.10
   7   4   2    5.20    1.70
   7   4   3  834.10   18.20
   7   4   4  792.80   19.00
   7   4   5  106.60    4.50
   7   4   6  259.20    7.00
   7   4   7  277.80    7.00
   7   4   8  204.80    7.00
   7   4   9  366.30    9.60
   7   4  10  194.10    6.60
   7   4  11  678.00   16.60
   7   4  12  457.60   10.80
   7   4  13    0.60    2.20
   7   4  14 4526.50   75.90
   7   4  15 1045.70   22.90
   7   4  16  165.50    6.90
   7   4  17   38.10    3.50
   7   4  18   22.80    3.30
   7   4  19  648.30   20.90
   7   4  20  363.00   12.30
   7   4  21   24.40    3.30
   7   4  22   10.00    3.90
   7   4  23  237.00   12.20
   7   5 -26    0.70   12.40
   7   5 -25    7.60    6.30
   7   5 -24    7.50    6.60
   7   5 -23  149.10    6.30
   7   5 -22   42.30    4.80
   7   5 -21  118.20    6.40
   7   5 -20   18.10    4.10
   7   5 -19   43.00    4.70
   7   5 -18   35.50    4.30
   7   5 -17   72.90    5.20
   7   5 -16   58.70    4.80
   7   5 -15   87.50    4.90
   7   5 -14  493.50   13.40
   7   5 -13  129.00    5.10
   7   5 -12  183.60    6.40
   7   5 -11 3718.00   64.00
   7   5 -10 8941.80  149.00
   7   5  -9 1328.90   27.80
   7   5  -8  378.60   10.20
   7   5  -7  594.20   14.50
   7   5  -6   55.50    3.00
   7   5  -5  314.00    8.10
   7   5  -4 1461.60   29.30
   7   5  -3  368.30   12.40
   7   5  -2  264.80    8.60
   7   5  -1  310.90    8.70
   7   5   0  107.10    3.70
   7   5   1  318.80    8.20
   7   5   2  216.90    6.80
   7   5   3    9.80    4.50
   7   5   4  871.90   25.20
   7   5   5 1443.70   44.60
   7   5   6  290.80   14.00
   7   5   7  251.30   10.80
   7   5   8  204.80   11.10
   7   5   9  371.00   17.20
   7   5  10 1843.90   67.10
   7   5  11  693.10   31.00
   7   5  12   28.50    5.60
   7   5  13 1109.20   37.30
   7   5  14 1355.10   43.20
   7   5  15  343.90   15.00
   7   5  16   13.80    4.90
   7   5  17  232.90    7.30
   7   5  18   31.80    3.60
   7   5  19   44.50   11.50
   7   5  20  130.90    5.70
   7   6 -23   -4.20    5.50
   7   6 -22  140.70    8.50
   7   6 -21   74.80    5.30
   7   6 -20    6.70    4.00
   7   6 -19   70.00    5.10
   7   6 -18  106.10    6.00
   7   6 -17  110.10    5.80
   7   6 -16   14.50    3.60
   7   6 -15  130.30    5.80
   7   6 -14  546.10   13.30
   7   6 -13  530.70   13.40
   7   6 -12  479.50   11.90
   7   6 -11 3716.70   64.50
   7   6 -10 1239.70   25.20
   7   6  -9  252.70    8.30
   7   6  -8 1246.00   24.70
   7   6  -7 3545.40   63.30
   7   6  -6 1971.10   38.00
   7   6  -5  756.40   17.80
   7   6  -4  924.00   20.10
   7   6  -3  414.00    9.90
   7   6  -2   24.00    2.60
   7   6  -1 1004.50   22.10
   7   6   0 1303.80   30.60
   7   6   1   -5.00    3.70
   7   6   2  738.50   27.80
   7   6   3   68.00    5.80
   7   6   4   14.70    4.80
   7   6   5   37.70    6.20
   7   6   6  237.80   13.70
   7   6   7   70.90    7.70
   7   6   8   37.70    5.40
   7   6   9  436.30   16.70
   7   6  10    2.60    7.50
   7   6  11  427.70   16.90
   7   6  12  176.40   10.00
   7   6  13   43.70    5.80
   7   6  14   -4.80    5.60
   7   6  15   10.50    5.00
   7   6  16   -2.30    5.10
   7   6  17  329.20   13.00
   7   6  18  168.90    8.10
   7   7 -20   33.30    6.80
   7   7 -19  437.40   13.50
   7   7 -18  133.70    7.70
   7   7 -17   25.30    3.70
   7   7 -16   56.80    5.90
   7   7 -15    5.10    3.70
   7   7 -14    0.90    3.60
   7   7 -13   61.50    4.00
   7   7 -12   75.50    4.60
   7   7 -11  861.60   18.60
   7   7 -10  669.80   15.60
   7   7  -9   59.90    3.50
   7   7  -8    5.70    2.50
   7   7  -7   57.40    3.70
   7   7  -6   47.60    3.60
   7   7  -5  438.80   11.80
   7   7  -4    7.50    2.50
   7   7  -3  102.60    5.50
   7   7  -2   12.80    2.20
   7   7  -1 1176.60   30.60
   7   7   0  168.00   10.90
   7   7   1  709.60   21.30
   7   7   2  167.70    8.40
   7   7   3  687.70   21.80
   7   7   4   19.60    6.60
   7   7   5   15.20    7.30
   7   7   6  148.90   10.40
   7   7   7  521.70   19.90
   7   7   8    9.20    6.00
   7   7   9 1573.30   42.80
   7   7  10   -0.80    4.90
   7   7  11   20.10    6.50
   7   7  12  154.10   10.20
   7   7  13   40.60    7.30
   7   7  14  153.60   10.90
   7   7  15   12.30    4.80
   7   7  16   19.10    6.40
   7   8 -18   15.70    5.70
   7   8 -17    3.90    5.50
   7   8 -16   56.00    8.00
   7   8 -15    2.20    6.40
   7   8 -14  135.60    7.70
   7   8 -13   44.40    4.30
   7   8 -12    1.20    3.80
   7   8 -11    4.80    3.10
   7   8 -10  334.70   10.00
   7   8  -9   18.60    3.20
   7   8  -8   73.60    4.30
   7   8  -7   52.80    3.40
   7   8  -6  311.90    9.20
   7   8  -5    0.60    2.30
   7   8  -4  130.10    4.70
   7   8  -3  211.60    6.60
   7   8  -2   11.90    2.00
   7   8  -1   10.30    6.30
   7   8   0   24.40    6.00
   7   8   1  112.40    7.90
   7   8   2   31.60    7.20
   7   8   3  262.20   11.10
   7   8   4   12.40    5.40
   7   8   5   -9.00    6.70
   7   8   6  551.00   22.70
   7   8   7    4.40    6.20
   7   8   8 1342.20   40.50
   7   8   9   75.20    6.70
   7   8  10    6.40    4.70
   7   8  11   55.00    8.10
   7   8  12   39.80    6.00
   7   8  13   -0.80    5.90
   7   9 -14    0.80    3.70
   7   9 -13   37.80    7.00
   7   9 -12   95.50    6.20
   7   9 -11   34.80    5.70
   7   9 -10   67.50    5.90
   7   9  -9   67.80    9.00
   7   9  -8    4.50    4.20
   7   9  -7   52.50    4.30
   7   9  -6    0.00    3.10
   7   9  -5  226.50    9.50
   7   9  -4   -1.80    3.20
   7   9  -3   33.30    7.20
   7   9  -2    9.60    6.50
   7   9  -1   42.40    6.70
   7   9   0  107.40    9.20
   7   9   1    1.50    5.10
   7   9   2    5.30    4.50
   7   9   3  211.60   11.00
   7   9   4  435.20   16.50
   7   9   5    1.80    4.70
   7   9   6  909.60   25.60
   7   9   7   42.10    6.00
   7   9   8   13.50    5.20
   7   9   9  264.80   11.90
   7   9  10    0.10    6.60
   8   0 -28   91.10    7.50
   8   0 -27   -4.40    5.80
   8   0 -26  274.90   12.90
   8   0 -25   -1.20    5.80
   8   0 -24    3.00    6.30
   8   0 -23    0.90    6.50
   8   0 -22  102.00    8.60
   8   0 -21   -2.20    5.80
   8   0 -20  227.70   11.00
   8   0 -19   -3.20    4.80
   8   0 -18  591.20   18.50
   8   0 -17    1.20    6.20
   8   0 -16  297.50   11.60
   8   0 -15    2.30    3.90
   8   0 -14  462.60   17.90
   8   0 -13    2.20    3.50
   8   0 -12 6244.50  151.10
   8   0 -11   -1.00    2.70
   8   0 -10   79.20    5.00
   8   0  -9    1.90    3.80
   8   0  -8 3355.40  115.90
   8   0  -7   -0.50    4.10
   8   0  -6  313.10   15.00
   8   0  -5    3.60    2.50
   8   0  -4   20.30    3.40
   8   0  -3   -5.50    3.20
   8   0  -2   92.40    4.10
   8   0  -1   -0.90    2.60
   8   0   0 3647.50   89.50
   8   0   1   -5.70    2.70
   8   0   2 1224.00   36.10
   8   0   3    4.40    3.20
   8   0   4 2988.60   73.10
   8   0   5   -2.50    2.90
   8   0   6   -0.10    2.40
   8   0   7   -3.00    3.80
   8   0   8 2135.70   56.10
   8   0   9    4.00    4.20
   8   0  10  208.50   10.70
   8   0  11   -7.10    3.80
   8   0  12 1300.30   40.10
   8   0  13    6.90    5.70
   8   0  14 1013.40   29.70
   8   0  15   -3.30    4.20
   8   0  16  333.30   14.10
   8   0  17    3.50    5.40
   8   0  18   76.10    6.60
   8   0  19   -3.10    4.30
   8   0  20  105.20    8.40
   8   0  21    4.40    4.70
   8   0  22    7.40    6.40
   8   0  23   -7.00    6.10
   8   0  24    8.60    5.90
   8   0  25   -1.30    5.30
   8   0  26 1700.10   43.70
   8   1 -29   70.70    6.90
   8   1 -28   19.20    4.10
   8   1 -27   31.20    4.80
   8   1 -26  320.10   10.10
   8   1 -25  390.20   11.90
   8   1 -24  109.80    5.80
   8   1 -23  951.00   21.30
   8   1 -22  583.60   13.70
   8   1 -21 1511.20   28.30
   8   1 -20   38.10    4.50
   8   1 -19    4.90    4.00
   8   1 -18   18.30    3.60
   8   1 -17   34.20    3.50
   8   1 -16    8.30    3.80
   8   1 -15   45.20    3.70
   8   1 -14 1693.40   39.50
   8   1 -13 1026.50   25.70
   8   1 -12   65.60    3.90
   8   1 -11 4150.80   75.60
   8   1 -10 1259.60   25.20
   8   1  -9 4954.80   85.60
   8   1  -8  127.50    4.50
   8   1  -7  486.40   11.00
   8   1  -6   11.30    2.70
   8   1  -5  439.10   10.00
   8   1  -4 4322.50   73.40
   8   1  -3 1074.20   21.40
   8   1  -2  220.00    6.80
   8   1  -1 7127.90  136.30
   8   1   0  403.40   10.10
   8   1   1  362.80    8.40
   8   1   2 9184.10  175.40
   8   1   3  385.60    9.20
   8   1   4  226.30    6.40
   8   1   5 6764.70  114.10
   8   1   6  409.10    9.90
   8   1   7   18.90    3.20
   8   1   8   92.90    4.80
   8   1   9  257.20    7.60
   8   1  10   44.80    4.00
   8   1  11   53.70    4.20
   8   1  12   82.40    4.70
   8   1  13 1109.10   24.60
   8   1  14   23.90    3.80
   8   1  15 2451.10   46.30
   8   1  16    3.00    2.90
   8   1  17  498.90   14.00
   8   1  18   74.90    5.20
   8   1  19  425.80   12.40
   8   1  20  862.90   20.20
   8   1  21 1304.90   29.10
   8   1  22  424.80   13.40
   8   1  23  285.80   10.20
   8   1  24   13.50    3.60
   8   1  25   13.50    3.90
   8   1  26   41.60    6.90
   8   1  27    8.20    6.80
   8   2 -29   14.10    6.20
   8   2 -28    3.60    5.80
   8   2 -27    8.10    4.90
   8   2 -26    7.80    4.40
   8   2 -25  331.80    9.00
   8   2 -24    9.90    4.30
   8   2 -23    9.60    4.20
   8   2 -22   22.30    4.20
   8   2 -21   95.60    5.80
   8   2 -20  161.60    8.00
   8   2 -19   49.60    4.70
   8   2 -18    2.90    3.10
   8   2 -17  348.10    9.60
   8   2 -16  150.40    5.20
   8   2 -15   76.00    4.00
   8   2 -14  153.20    5.50
   8   2 -13 1401.40   29.30
   8   2 -12  502.10   12.10
   8   2 -11  932.80   20.60
   8   2 -10  166.70    5.00
   8   2  -911559.80  187.20
   8   2  -8 1423.80   28.50
   8   2  -7  949.70   19.50
   8   2  -6 3848.30   67.10
   8   2  -5   10.60    2.20
   8   2  -4 1031.60   20.60
   8   2  -3   94.70    3.70
   8   2  -2 4848.80   83.20
   8   2  -1  503.90   11.80
   8   2   0   49.70    2.60
   8   2   1  609.30   13.00
   8   2   2 2490.00   46.10
   8   2   3  832.40   16.40
   8   2   4 1214.40   28.00
   8   2   5 2670.10   56.00
   8   2   6    0.20    2.50
   8   2   7   12.00    2.40
   8   2   8    2.90    2.00
   8   2   9  295.70    8.70
   8   2  10   -0.80    2.30
   8   2  11   99.50    4.90
   8   2  12  216.80    7.70
   8   2  13  438.80   11.50
   8   2  14  960.40   22.00
   8   2  15    6.60    3.10
   8   2  16   66.20    4.60
   8   2  17  820.50   19.00
   8   2  18 1577.00   33.00
   8   2  19  318.90    9.80
   8   2  20   77.20    4.70
   8   2  21 1095.30   25.50
   8   2  22   90.70    5.20
   8   2  23   77.40    5.30
   8   2  24    4.00    3.50
   8   2  25  284.30   11.10
   8   2  26    0.40    4.80
   8   3 -29   -1.70    5.10
   8   3 -28   17.40    6.20
   8   3 -27  477.00   14.60
   8   3 -26   28.80    5.40
   8   3 -25   -7.30    4.90
   8   3 -24   19.80    4.20
   8   3 -23  -12.90    4.40
   8   3 -22   42.20    5.10
   8   3 -21  636.30   15.70
   8   3 -20 2304.90   41.00
   8   3 -19  243.70    8.10
   8   3 -18  216.30    7.20
   8   3 -17   21.60    3.60
   8   3 -16    3.80    3.80
   8   3 -15  344.90    9.60
   8   3 -14  358.60    9.90
   8   3 -13  338.80   12.00
   8   3 -12   27.00    3.00
   8   3 -11 1137.10   24.40
   8   3 -10 2153.20   40.70
   8   3  -9   15.80    2.10
   8   3  -8  158.60    4.80
   8   3  -7 1395.70   28.30
   8   3  -6  492.40   11.40
   8   3  -5  150.20    5.00
   8   3  -4  355.90    8.80
   8   3  -3 1667.60   32.90
   8   3  -2    1.20    2.30
   8   3  -1   69.70    3.00
   8   3   0  434.20   10.20
   8   3   1   28.30    2.00
   8   3   2  787.90   16.40
   8   3   3  624.20   13.50
   8   3   4 1994.40   37.30
   8   3   5  310.80    8.50
   8   3   6  251.00    7.40
   8   3   7  586.50   15.50
   8   3   8    8.50    2.20
   8   3   9  548.60   13.50
   8   3  10  428.10   14.00
   8   3  11   -3.10    2.50
   8   3  12  247.90   11.10
   8   3  13  205.80    8.10
   8   3  14 1477.50   30.70
   8   3  15  114.10    5.30
   8   3  16 1244.40   24.70
   8   3  17  919.40   21.20
   8   3  18 1033.00   24.40
   8   3  19  497.10   14.50
   8   3  20  258.70    8.50
   8   3  21  269.00    8.90
   8   3  22  340.50   10.00
   8   3  23  337.30   12.90
   8   3  24    4.40    3.30
   8   4 -28   22.50    6.50
   8   4 -27  149.60   10.00
   8   4 -26   31.60    6.20
   8   4 -25    9.40    4.30
   8   4 -24  267.70    7.50
   8   4 -23  115.00    6.70
   8   4 -22    7.00    4.40
   8   4 -21   59.40    4.80
   8   4 -20   12.40    3.80
   8   4 -19  206.60    7.50
   8   4 -18  144.20    6.10
   8   4 -17 1112.20   22.30
   8   4 -16  759.20   16.90
   8   4 -15  415.30   11.20
   8   4 -14  158.70    6.00
   8   4 -13  140.70    5.90
   8   4 -12  469.80   14.80
   8   4 -11    4.80    3.00
   8   4 -10  154.70    6.60
   8   4  -9   53.20    3.00
   8   4  -8  246.00    6.80
   8   4  -7   43.30    2.30
   8   4  -6 1710.70   33.60
   8   4  -5   -0.80    2.00
   8   4  -4  454.90   10.40
   8   4  -3   31.50    2.30
   8   4  -2  462.50   10.60
   8   4  -1   42.80    2.40
   8   4   0   43.40    2.60
   8   4   1   27.60    2.10
   8   4   2 1647.00   33.60
   8   4   3  151.10    4.90
   8   4   4   93.50    3.90
   8   4   5  383.00   10.10
   8   4   6   56.40    3.40
   8   4   7  640.60   16.60
   8   4   8  134.60    5.40
   8   4   9    1.10    2.10
   8   4  10   33.90    2.90
   8   4  11  547.60   14.30
   8   4  12 1442.90   29.90
   8   4  13 2971.60   53.60
   8   4  14    0.60    2.70
   8   4  15   29.20    3.30
   8   4  16  347.50   11.30
   8   4  17  135.10    6.80
   8   4  18   12.80    4.20
   8   4  19   91.80    6.60
   8   4  20   42.10    3.30
   8   4  21  118.30    5.50
   8   4  22   72.80    6.30
   8   5 -26   16.20   13.50
   8   5 -25   -4.50    5.00
   8   5 -24  159.80    9.30
   8   5 -23    5.30    5.90
   8   5 -22    0.40    4.20
   8   5 -21   98.80    5.70
   8   5 -20    4.40    3.70
   8   5 -19    6.00    3.60
   8   5 -18  106.80    5.30
   8   5 -17  279.60    8.80
   8   5 -16    8.90    4.10
   8   5 -15   27.30    3.80
   8   5 -14  393.30   10.00
   8   5 -13 2662.00   48.80
   8   5 -12  150.30    5.90
   8   5 -1111901.20  197.70
   8   5 -10 1639.80   31.20
   8   5  -9 2186.50   40.40
   8   5  -8  990.80   21.70
   8   5  -7  260.80    7.50
   8   5  -6 2336.90   43.20
   8   5  -5  756.40   16.80
   8   5  -4  183.10    7.00
   8   5  -3 1005.10   31.40
   8   5  -2  608.30   17.20
   8   5  -1  784.90   17.20
   8   5   0   58.70    3.10
   8   5   1  419.80   10.30
   8   5   2  977.00   20.10
   8   5   3  104.90    5.00
   8   5   4   51.10    6.30
   8   5   5   80.70    7.90
   8   5   6  705.60   24.50
   8   5   7  130.40   11.00
   8   5   8  389.60   16.30
   8   5   9 1178.60   36.40
   8   5  10  382.20   15.70
   8   5  11   37.00    6.60
   8   5  12  158.10    9.50
   8   5  13  998.90   34.20
   8   5  14 2553.00   71.00
   8   5  15    9.60    5.10
   8   5  16    6.90    4.90
   8   5  17    0.20    1.40
   8   5  18   37.40    2.90
   8   5  19   98.20    4.40
   8   6 -23   49.30    7.40
   8   6 -22    9.00    3.60
   8   6 -21   12.10    4.90
   8   6 -20  176.30    6.90
   8   6 -19  300.90    8.30
   8   6 -18  112.00    8.60
   8   6 -17   16.10    4.10
   8   6 -16  144.50    6.20
   8   6 -15  258.80    8.20
   8   6 -14  224.50    7.50
   8   6 -13  491.90   13.20
   8   6 -12 1446.70   29.80
   8   6 -11  571.00   13.70
   8   6 -10  178.60    6.50
   8   6  -9  196.50    5.80
   8   6  -8    8.40    2.80
   8   6  -7   91.10    4.40
   8   6  -6 2947.10   54.10
   8   6  -5  295.50    8.10
   8   6  -4   43.10    3.70
   8   6  -3   66.30    3.10
   8   6  -2  177.90    5.50
   8   6  -1  207.80    6.60
   8   6   0  245.90    8.00
   8   6   1   20.80    4.70
   8   6   2 2191.30   67.90
   8   6   3  155.90    9.00
   8   6   4  330.30   15.30
   8   6   5 1008.80   32.10
   8   6   6  186.20   10.80
   8   6   7  861.30   25.20
   8   6   8  700.20   24.30
   8   6   9 1690.40   50.10
   8   6  10   -3.10    5.00
   8   6  11  939.40   29.50
   8   6  12  543.20   20.40
   8   6  13 1436.70   45.10
   8   6  14   16.40    5.90
   8   6  15    0.50    6.30
   8   6  16   83.00    9.00
   8   6  17   27.70    5.80
   8   7 -20  294.80   12.00
   8   7 -19  131.10    6.00
   8   7 -18   11.00    4.60
   8   7 -17   -7.00    4.40
   8   7 -16   77.60    4.60
   8   7 -15  225.70    7.10
   8   7 -14    5.30    3.90
   8   7 -13  636.10   14.60
   8   7 -12  693.60   13.60
   8   7 -11 1244.10   24.50
   8   7 -10    0.10    2.60
   8   7  -9  559.40   14.40
   8   7  -8  175.00    6.10
   8   7  -7   27.30    3.00
   8   7  -6  750.70   17.10
   8   7  -5  726.50   16.40
   8   7  -4   26.30    3.10
   8   7  -3   99.70    5.30
   8   7  -2   -0.40    2.30
   8   7  -1   99.40    4.50
   8   7   0  142.00    9.50
   8   7   1   74.80    7.60
   8   7   2  606.80   20.40
   8   7   3 2209.30   59.50
   8   7   4  133.70   10.60
   8   7   5  268.50   15.10
   8   7   6  141.30   10.30
   8   7   7  307.80   16.00
   8   7   8  372.10   15.10
   8   7   9  251.20   12.90
   8   7  10   66.80   19.10
   8   7  11   45.00    6.60
   8   7  12  453.70   19.20
   8   7  13  244.00   13.70
   8   7  14   -6.60    6.90
   8   7  15  341.50   17.00
   8   8 -18   61.10    6.30
   8   8 -17   12.10    5.20
   8   8 -16    8.00    5.20
   8   8 -15  250.60   10.80
   8   8 -14    3.20    3.60
   8   8 -13   23.10    4.10
   8   8 -11    2.10    4.00
   8   8 -10  212.30    7.60
   8   8  -9   18.30    4.20
   8   8  -8   10.00    3.50
   8   8  -7   37.80    3.10
   8   8  -6    2.30    2.30
   8   8  -5    3.80    2.50
   8   8  -4  141.60    5.20
   8   8  -3   11.00    2.80
   8   8  -2   45.70    6.80
   8   8  -1    7.00    4.20
   8   8   0  342.60   13.50
   8   8   1   38.70    6.50
   8   8   2   17.90    5.00
   8   8   3  181.00   10.50
   8   8   4  761.00   25.30
   8   8   5  327.00   15.30
   8   8   6  286.30   14.00
   8   8   7   93.30    9.60
   8   8   8   93.40    8.90
   8   8   9  323.10   15.00
   8   8  10   94.00    7.90
   8   8  11  309.70   15.90
   8   8  12  206.50   10.00
   8   9  -6  309.00   19.80
   8   9  -5   21.90    5.80
   8   9  -4   88.10    6.60
   8   9  -3  196.80    8.90
   8   9  -2    5.80    4.70
   8   9  -1  295.80   26.20
   8   9   0  256.90   10.50
   8   9   1  101.20    7.10
   8   9   2    6.40    5.90
   8   9   3  255.80   12.10
   8   9   4  301.90   11.50
   8   9   5   14.40    5.60
   8   9   6  227.80    9.70
   8   9   7    1.30    4.80
   8   9   8   47.20    4.70
   8   9   9    6.80    4.50
   9   0 -28   -4.30    4.80
   9   0 -27    5.40    6.60
   9   0 -26   -2.60    7.20
   9   0 -25  130.80    8.60
   9   0 -24   -3.10    5.80
   9   0 -23 4857.70  115.50
   9   0 -22   -7.60    5.70
   9   0 -21  177.30    9.00
   9   0 -20   -3.10    7.00
   9   0 -19 2700.00   67.30
   9   0 -18   10.30    5.00
   9   0 -17 1205.30   33.90
   9   0 -16   -5.50    4.00
   9   0 -15 1244.30   38.20
   9   0 -14   -0.20    3.40
   9   0 -13  131.70    6.60
   9   0 -12   -9.80    4.20
   9   0 -11  874.30   27.90
   9   0 -10   -1.90    4.10
   9   0  -9 1689.70   62.20
   9   0  -8   -0.20    5.60
   9   0  -7   52.80    5.30
   9   0  -6    2.20    2.70
   9   0  -5 4435.10  108.60
   9   0  -4   -2.30    2.80
   9   0  -3 3241.60   81.90
   9   0  -2   -0.80    3.00
   9   0  -1  774.40   23.50
   9   0   0    3.60    4.10
   9   0   118798.90  423.80
   9   0   2    2.30    3.50
   9   0   3  659.80   20.80
   9   0   4   -1.90    2.80
   9   0   5  237.00    8.70
   9   0   6   -0.20    3.00
   9   0   7 1165.80   32.90
   9   0   8    5.60    4.40
   9   0   9  892.00   29.60
   9   0  10    2.80    3.80
   9   0  11 1910.10   52.30
   9   0  12    5.30    4.20
   9   0  13  714.80   34.10
   9   0  14   -0.10    4.30
   9   0  15 6734.30  161.70
   9   0  16   -4.60    5.90
   9   0  17  309.00   13.80
   9   0  18    2.10    4.30
   9   0  19  134.30   10.40
   9   0  20    5.30    4.70
   9   0  21   10.40    5.50
   9   0  22   -1.80    4.50
   9   0  23 1102.10   32.70
   9   0  24   -4.10    5.70
   9   0  25  170.80    9.20
   9   1 -28   21.10    6.20
   9   1 -27   68.50    5.50
   9   1 -26  243.00    8.70
   9   1 -25   11.70    5.00
   9   1 -24  971.70   20.10
   9   1 -23  387.90   11.80
   9   1 -22  115.60    6.70
   9   1 -21  662.30   17.40
   9   1 -20  531.20   12.70
   9   1 -19    1.30    3.50
   9   1 -18 2316.90   40.20
   9   1 -17  464.70   12.10
   9   1 -16  696.30   16.30
   9   1 -15  726.90   20.10
   9   1 -14   -1.90    2.80
   9   1 -13   37.10    2.90
   9   1 -12  174.60    5.30
   9   1 -11   64.70    3.30
   9   1 -10 2217.50   50.40
   9   1  -9  230.90    7.10
   9   1  -8 2089.10   39.30
   9   1  -7   18.60    2.30
   9   1  -6  173.10    5.20
   9   1  -5 3047.30   54.10
   9   1  -4   25.70    2.20
   9   1  -3  449.00   12.60
   9   1  -2 1348.40   29.50
   9   1  -1 3001.60   60.90
   9   1   0  367.70    8.70
   9   1   1   28.20    2.40
   9   1   2 4957.90   84.90
   9   1   3  359.80    8.20
   9   1   4 1997.90   37.20
   9   1   5   80.70    3.50
   9   1   6  256.90    6.90
   9   1   7 1549.80   31.50
   9   1   8  527.50   12.30
   9   1   9   66.60    3.90
   9   1  10  369.60   16.20
   9   1  11   78.70    4.10
   9   1  12 3218.50   60.90
   9   1  13 1277.00   26.00
   9   1  14 2426.30   47.60
   9   1  15  992.10   20.70
   9   1  16   72.70    4.50
   9   1  17  806.20   22.20
   9   1  18   -6.20    4.30
   9   1  19    3.20    3.30
   9   1  20   10.70    3.70
   9   1  21    4.80    3.50
   9   1  22  105.10    5.90
   9   1  23    1.00    4.30
   9   1  24  145.70    7.10
   9   1  25  460.70   16.40
   9   1  26   11.80    5.40
   9   2 -29   41.80    6.30
   9   2 -28  343.50   12.70
   9   2 -27  196.70    7.60
   9   2 -26  101.70    5.60
   9   2 -25   17.90    4.90
   9   2 -24  131.50    6.70
   9   2 -23 1922.90   35.30
   9   2 -22   42.10    4.80
   9   2 -21 1055.00   23.60
   9   2 -20  914.60   21.80
   9   2 -19   42.10    4.30
   9   2 -18  449.30   11.60
   9   2 -17  991.50   20.90
   9   2 -16  174.60    6.10
   9   2 -15    0.50    2.70
   9   2 -14   34.50    3.30
   9   2 -13    3.20    2.90
   9   2 -12   -1.30    2.50
   9   2 -11 1425.30   29.60
   9   2 -10  129.90    4.60
   9   2  -9  117.60    4.10
   9   2  -8  444.10   10.30
   9   2  -7  811.10   16.80
   9   2  -6   56.90    2.90
   9   2  -5  631.60   13.10
   9   2  -4  545.40   12.20
   9   2  -3 3455.70   59.70
   9   2  -2   38.50    2.40
   9   2  -1 6108.60  101.80
   9   2   0 2783.10   49.90
   9   2   1 1833.90   33.40
   9   2   2 3397.60   60.10
   9   2   3 2875.50   59.50
   9   2   4  333.80   10.30
   9   2   5  824.00   20.70
   9   2   6    3.70    2.00
   9   2   7  496.80   14.30
   9   2   8   -3.30    2.00
   9   2   9   13.70    3.00
   9   2  10   10.30    2.70
   9   2  11  192.90    6.80
   9   2  12  607.30   15.20
   9   2  13  281.70    8.80
   9   2  14 1123.40   23.40
   9   2  15 2514.40   47.30
   9   2  16  224.30    7.70
   9   2  17  310.00    9.50
   9   2  18   78.70    5.00
   9   2  19  167.00    6.90
   9   2  20  149.30    6.70
   9   2  21 1142.90   23.50
   9   2  22   21.40    3.80
   9   2  23 1034.60   29.00
   9   2  24    9.10    4.20
   9   2  25  256.30   16.90
   9   2  26   22.60    7.10
   9   3 -28  207.30    9.90
   9   3 -27  105.40    7.90
   9   3 -26   45.20    4.70
   9   3 -25   95.60    5.80
   9   3 -24   11.60    5.50
   9   3 -23   49.90    5.70
   9   3 -22  107.60    5.80
   9   3 -21   27.00    4.80
   9   3 -20   82.20    5.50
   9   3 -19   35.70    4.50
   9   3 -18  161.60    6.80
   9   3 -17   10.10    3.40
   9   3 -16  805.40   16.90
   9   3 -15  540.20   13.00
   9   3 -14  144.50    5.80
   9   3 -13  255.40    7.30
   9   3 -12   13.00    2.50
   9   3 -11  179.70    5.40
   9   3 -10  346.20    8.70
   9   3  -9  191.40    6.20
   9   3  -8 2152.70   42.40
   9   3  -7    3.20    1.80
   9   3  -6 1395.60   26.90
   9   3  -5 2108.10   39.60
   9   3  -4 1152.70   24.00
   9   3  -3  296.20    8.10
   9   3  -2  149.80    4.70
   9   3  -1  488.90   11.70
   9   3   0 2942.30   56.60
   9   3   1    4.50    1.90
   9   3   2  285.30    6.90
   9   3   3 1359.00   31.10
   9   3   4   45.00    2.70
   9   3   5  782.30   16.60
   9   3   6  836.50   18.60
   9   3   7  423.10   11.70
   9   3   8   69.70    3.90
   9   3   9  202.70   10.00
   9   3  10   93.60    6.20
   9   3  11   67.00    4.60
   9   3  12    1.90    3.60
   9   3  13   90.00    4.80
   9   3  14   18.80    4.10
   9   3  15  906.20   21.50
   9   3  16  607.90   16.30
   9   3  17   -0.90    3.10
   9   3  18  124.80    6.40
   9   3  19   50.80    5.00
   9   3  20  343.50    9.80
   9   3  21  543.60   12.90
   9   3  22   45.00    4.20
   9   3  23   -1.20    3.80
   9   3  24   30.20    4.60
   9   4 -29    8.70    5.00
   9   4 -28    5.70    4.30
   9   4 -27   42.40    5.10
   9   4 -26   20.60    6.60
   9   4 -25   37.60    5.80
   9   4 -24  120.10    5.90
   9   4 -23   44.90    5.10
   9   4 -22   90.50    5.10
   9   4 -21   57.60    5.20
   9   4 -20   52.60    4.60
   9   4 -19    0.20    4.10
   9   4 -18  174.90    6.50
   9   4 -17   42.40    3.90
   9   4 -16  333.70    9.80
   9   4 -15  810.20   18.20
   9   4 -14  703.40   16.30
   9   4 -13    6.00    3.10
   9   4 -12    4.00    2.40
   9   4 -11  764.20   18.20
   9   4 -10    6.00    2.20
   9   4  -9    7.00    2.10
   9   4  -8  273.60    7.90
   9   4  -7    1.70    1.80
   9   4  -6  690.30   15.20
   9   4  -5  292.20    7.90
   9   4  -4   23.50    2.30
   9   4  -3   47.60    2.50
   9   4  -2  283.40    8.10
   9   4  -1  294.30    8.40
   9   4   0   94.60    3.50
   9   4   1 2741.20   49.60
   9   4   2  482.60   11.30
   9   4   3    3.80    1.80
   9   4   4   33.90    2.60
   9   4   5  130.40    4.60
   9   4   6  240.70    8.50
   9   4   7   81.20    4.70
   9   4   8  146.10    5.50
   9   4   9  496.40   13.30
   9   4  10   11.00    2.80
   9   4  11 2325.90   44.70
   9   4  12  272.80    8.60
   9   4  13  313.00    8.50
   9   4  14    0.30    2.80
   9   4  15   23.70    3.30
   9   4  16    0.20    2.90
   9   4  17   43.00    4.50
   9   4  18    4.90    3.40
   9   4  19   -1.50    2.80
   9   4  20   49.80    3.90
   9   4  21    3.50    2.90
   9   5 -26   -0.70    7.50
   9   5 -25  125.30    8.30
   9   5 -24   10.20    5.00
   9   5 -23   98.60    5.60
   9   5 -22   75.30    5.30
   9   5 -21   -0.50    4.00
   9   5 -20  122.90    5.80
   9   5 -19   48.30    4.70
   9   5 -18   25.70    4.10
   9   5 -17  536.00   12.60
   9   5 -16   21.00    3.50
   9   5 -15   98.60    6.10
   9   5 -14  601.50   13.40
   9   5 -13   38.20    3.90
   9   5 -12  158.20    5.60
   9   5 -11  297.00    8.60
   9   5 -10   12.30    2.70
   9   5  -9  559.50   12.70
   9   5  -8   66.00    3.70
   9   5  -7  112.40    4.10
   9   5  -6  172.80    5.30
   9   5  -5 1456.20   27.70
   9   5  -4   45.40    3.00
   9   5  -3 2088.20   38.20
   9   5  -2   -2.00    1.80
   9   5  -1  391.70    9.80
   9   5   0   84.00    3.80
   9   5   1   31.40    2.50
   9   5   2   76.80    3.60
   9   5   3 1718.00   34.70
   9   5   4  876.20   21.60
   9   5   5  132.60    8.10
   9   5   6  198.50   11.20
   9   5   7  958.40   30.10
   9   5   8   93.40    7.00
   9   5   9  772.10   25.80
   9   5  10  138.30    9.00
   9   5  11   23.20    5.70
   9   5  12  376.80   14.60
   9   5  13   -3.00    5.80
   9   5  14 1824.40   55.50
   9   5  15  120.20    8.70
   9   5  16  257.00    8.90
   9   5  17   12.50    2.50
   9   5  18    7.10    2.40
   9   6 -23   27.80    6.90
   9   6 -22  278.80   13.50
   9   6 -21   11.50    3.60
   9   6 -20   68.80    5.00
   9   6 -19   64.40    5.00
   9   6 -18  165.00    6.40
   9   6 -17    4.40    4.00
   9   6 -16  126.50    6.00
   9   6 -15  466.30   11.30
   9   6 -14  407.40   10.80
   9   6 -13  914.50   19.60
   9   6 -12 1504.30   29.50
   9   6 -11  223.30    6.80
   9   6 -10  893.80   18.60
   9   6  -9  119.60    5.10
   9   6  -8  219.40    7.40
   9   6  -7  206.30    6.70
   9   6  -6 3599.70   64.70
   9   6  -5  374.00   10.10
   9   6  -4 1542.20   29.90
   9   6  -3  570.90   12.30
   9   6  -2 1225.90   23.60
   9   6  -1 1161.70   22.80
   9   6   0 1569.90   30.40
   9   6   1   15.60    2.10
   9   6   2  427.30   19.50
   9   6   3  893.10   28.00
   9   6   4  357.60   14.60
   9   6   5 1182.30   33.00
   9   6   6   38.10    6.20
   9   6   7   63.60    6.90
   9   6   8  280.50   11.30
   9   6   9  246.30   11.40
   9   6  10    4.10    5.10
   9   6  11 5203.80  127.70
   9   6  12  370.00   16.40
   9   6  13  105.60   11.10
   9   6  14 1227.60   39.50
   9   6  15   68.10    7.20
   9   6  16  280.40   13.60
   9   7 -20   58.70    6.60
   9   7 -19  130.20    5.40
   9   7 -18   21.60    6.50
   9   7 -17  195.60    7.50
   9   7 -16   77.10    5.40
   9   7 -15    1.50    3.30
   9   7 -14 1451.90   26.80
   9   7 -13  230.50    7.00
   9   7 -12  868.00   18.90
   9   7 -11    7.30    2.90
   9   7 -10  265.30    8.10
   9   7  -9    4.40    2.70
   9   7  -8   25.90    2.80
   9   7  -7  123.00    4.90
   9   7  -6  576.30   13.90
   9   7  -5   95.60    4.30
   9   7  -4    6.10    2.80
   9   7  -3   12.50    2.90
   9   7  -2  258.90    7.90
   9   7  -1   88.40    4.00
   9   7   0  221.00   11.00
   9   7   1  927.20   26.80
   9   7   2  223.10   11.10
   9   7   3  390.40   15.00
   9   7   4  256.70   15.90
   9   7   5   14.90    7.30
   9   7   6   32.40    8.20
   9   7   7  218.70   12.00
   9   7   8 1076.20   33.00
   9   7   9  197.50   10.10
   9   7  10  313.10   16.60
   9   7  11   42.10    5.80
   9   7  12  256.40   14.10
   9   7  13   59.40    6.70
   9   7  14  301.40   13.10
   9   8 -18   21.00    5.10
   9   8 -17  161.00   12.50
   9   8 -16    1.90    4.90
   9   8 -15  425.10   15.60
   9   8 -14  830.30   25.80
   9   8 -13    0.70    3.30
   9   8 -12  332.90   10.90
   9   8 -11   94.40    6.70
   9   8 -10   41.90    4.10
   9   8  -9   86.20    4.40
   9   8  -8    7.20    2.60
   9   8  -7   30.80    3.70
   9   8  -6  213.60    6.40
   9   8  -5    7.60    2.90
   9   8  -4   13.80    6.20
   9   8  -3  129.40    5.10
   9   8  -2  129.70    8.20
   9   8  -1  569.70   19.30
   9   8   0   79.30    7.90
   9   8   1   61.80    6.50
   9   8   2   53.80    5.90
   9   8   3  884.20   28.30
   9   8   4   12.60    7.80
   9   8   5  257.30   13.90
   9   8   6   57.30    8.30
   9   8   7  112.90   10.60
   9   8   8   42.20    7.60
   9   8   9   -0.40    5.10
   9   8  10  301.90   15.60
   9   8  11  116.00    9.60
   9   9  -6  139.40   10.90
   9   9  -5   55.10    4.80
   9   9  -4   36.30    5.70
   9   9  -3  134.20    7.50
   9   9  -2    5.70    5.10
   9   9  -1    0.60    6.30
   9   9   0   25.90    5.70
   9   9   1   14.90    6.60
   9   9   2   40.00    5.80
   9   9   3   44.00    6.50
   9   9   4  146.30    9.40
   9   9   5   67.00   10.10
   9   9   6   93.90    9.00
   9   9   7   71.50    8.60
   9   9   8    9.70    9.20
  10   0 -28   -1.10    4.80
  10   0 -27  -13.50    5.00
  10   0 -26 1136.40   30.00
  10   0 -25    4.40    5.40
  10   0 -24  655.30   20.60
  10   0 -23   -3.60    5.50
  10   0 -22   -1.40    6.10
  10   0 -21  -12.60    4.70
  10   0 -20  508.70   17.60
  10   0 -19   -5.50    7.30
  10   0 -18 1746.60   44.10
  10   0 -17   10.00    5.60
  10   0 -16 1929.60   53.90
  10   0 -15    1.00    3.50
  10   0 -14  303.00   12.50
  10   0 -13    7.50    4.00
  10   0 -12 3110.60   81.30
  10   0 -11    0.00    3.60
  10   0 -10 3117.10  109.40
  10   0  -9   -0.30    4.60
  10   0  -8    8.80    4.90
  10   0  -7    4.30    3.30
  10   0  -6 4735.20  116.60
  10   0  -5   -1.50    2.90
  10   0  -4  434.80   14.20
  10   0  -3   -1.90    2.60
  10   0  -2 1692.60   46.60
  10   0  -1   -0.90    4.30
  10   0   013483.90  313.20
  10   0   1   -2.10    4.00
  10   0   2 2521.90   65.50
  10   0   3    1.90    2.90
  10   0   4 1290.60   36.60
  10   0   5   -3.80    3.30
  10   0   6   45.60    3.80
  10   0   7   -3.30    2.90
  10   0   8   14.20    5.10
  10   0   9   -2.00    4.80
  10   0  10   -5.60    4.90
  10   0  11    1.20    4.00
  10   0  12 1863.30   53.90
  10   0  13    8.50    6.00
  10   0  14 3854.50   95.30
  10   0  15    8.30    4.90
  10   0  16  839.30   27.30
  10   0  17    0.40    4.40
  10   0  18    6.00    4.80
  10   0  19    6.40    5.60
  10   0  20  179.20   11.60
  10   0  21   -1.50    4.60
  10   0  22   38.80    6.00
  10   0  23    5.50    4.70
  10   0  24    7.70    5.00
  10   1 -28   70.80    7.50
  10   1 -27  185.60    6.30
  10   1 -26   57.00    4.70
  10   1 -25   57.10    4.60
  10   1 -24    7.10    4.20
  10   1 -23  313.40    8.60
  10   1 -22   22.60    4.20
  10   1 -21  114.30    5.60
  10   1 -20   87.00    5.10
  10   1 -19  793.50   16.90
  10   1 -18   31.50    3.80
  10   1 -17   76.70    4.40
  10   1 -16   12.50    3.80
  10   1 -15  441.50   12.80
  10   1 -14   70.30    4.60
  10   1 -13  970.70   20.10
  10   1 -12   21.00    2.80
  10   1 -11  773.80   17.90
  10   1 -10   35.60    2.90
  10   1  -9 1153.60   23.40
  10   1  -8   38.50    2.60
  10   1  -7  261.60    6.70
  10   1  -6  197.50    5.50
  10   1  -5   13.40    1.80
  10   1  -4  498.60   13.30
  10   1  -3 4437.40   87.80
  10   1  -2  702.70   16.90
  10   1  -1 6412.00  109.10
  10   1   0    4.20    2.30
  10   1   1  223.20    5.90
  10   1   2    9.70    1.90
  10   1   316104.90  256.00
  10   1   4 1031.60   21.00
  10   1   5  650.40   15.20
  10   1   6    1.20    2.00
  10   1   7  334.00    8.30
  10   1   8    0.70    2.30
  10   1   9  432.20   11.60
  10   1  10 2411.70   54.30
  10   1  11  198.90    6.60
  10   1  12  332.20    9.80
  10   1  13  935.50   21.20
  10   1  14   66.40    4.50
  10   1  15   17.70    3.50
  10   1  16  570.30   15.20
  10   1  17  122.10    7.20
  10   1  18    2.00    3.50
  10   1  19   56.90    4.50
  10   1  20   49.00    4.30
  10   1  21   12.30    3.70
  10   1  22    5.50    3.60
  10   1  23    2.70    3.30
  10   1  24   11.50    5.20
  10   1  25   37.50    9.30
  10   2 -28   36.90    8.00
  10   2 -27   42.90    6.00
  10   2 -26  476.00   11.50
  10   2 -25   58.00    5.30
  10   2 -24   79.70    5.40
  10   2 -23  534.60   13.50
  10   2 -22  630.90   16.90
  10   2 -21    0.20    4.30
  10   2 -20   44.90    5.30
  10   2 -19 1390.30   26.40
  10   2 -18  339.70    8.90
  10   2 -17  621.90   14.00
  10   2 -16  124.90    5.50
  10   2 -15   15.80    2.90
  10   2 -14  122.80    4.70
  10   2 -13    4.50    2.50
  10   2 -12   11.00    2.60
  10   2 -11 1082.30   22.60
  10   2 -10  320.90    8.50
  10   2  -9  279.40    7.60
  10   2  -8  220.40    6.60
  10   2  -7 1134.40   23.60
  10   2  -6  987.70   21.10
  10   2  -5  921.80   19.50
  10   2  -4  497.60   11.10
  10   2  -3   45.90    2.70
  10   2  -2 1424.10   28.00
  10   2  -1 2485.50   47.10
  10   2   0 2061.90   39.70
  10   2   1  522.10   12.20
  10   2   2  502.20   12.60
  10   2   3  170.40    5.70
  10   2   4 3057.40   65.90
  10   2   5   20.80    2.50
  10   2   6  180.80    5.30
  10   2   7  177.50    6.10
  10   2   8  119.80    5.40
  10   2   9   47.90    4.10
  10   2  10  364.00   10.50
  10   2  11   14.40    2.80
  10   2  12  668.20   15.50
  10   2  13 1727.80   34.60
  10   2  14  859.80   19.30
  10   2  15   -3.50    3.50
  10   2  16  143.20    6.60
  10   2  17   25.20    3.60
  10   2  18   23.50    3.80
  10   2  19   89.50    5.50
  10   2  20   -2.70    3.20
  10   2  21  154.00    6.80
  10   2  22    6.40    3.00
  10   2  23  539.20   16.30
  10   2  24  539.60   18.50
  10   2  25   -0.80    4.20
  10   3 -29    3.00   12.80
  10   3 -28    6.40    5.40
  10   3 -27   18.60    5.90
  10   3 -26  134.90    8.50
  10   3 -25   32.90    5.60
  10   3 -24   68.40    5.30
  10   3 -23  221.40    8.00
  10   3 -22    3.40    3.90
  10   3 -21  589.70   14.30
  10   3 -20  745.40   16.00
  10   3 -19   11.40    4.30
  10   3 -18   20.10    3.60
  10   3 -17    0.10    4.20
  10   3 -16 1790.30   34.30
  10   3 -15  829.10   17.60
  10   3 -14  342.40    9.70
  10   3 -13    9.00    2.40
  10   3 -12  630.60   13.30
  10   3 -11   85.70    4.40
  10   3 -10    6.80    2.30
  10   3  -9  503.40   13.20
  10   3  -8  536.60   12.90
  10   3  -7  720.90   16.10
  10   3  -6  713.60   15.50
  10   3  -5   15.10    2.10
  10   3  -4  143.30    4.70
  10   3  -3    2.50    1.80
  10   3  -2   12.20    1.80
  10   3  -1   59.30    2.90
  10   3   0  445.10   10.90
  10   3   1 1318.70   27.80
  10   3   2 7217.80  123.90
  10   3   3  676.00   14.90
  10   3   4   28.20    2.20
  10   3   5   35.60    2.90
  10   3   6   92.00    3.90
  10   3   7  200.40    7.30
  10   3   8    4.10    3.10
  10   3   9  940.70   25.00
  10   3  10 1421.60   35.30
  10   3  11 2239.10   50.90
  10   3  12  513.00   13.20
  10   3  13   42.30    4.20
  10   3  14   81.70    5.40
  10   3  15  228.50    8.00
  10   3  16  348.80   11.70
  10   3  17   21.80    3.60
  10   3  18    5.60    3.20
  10   3  19  172.00    7.70
  10   3  20   32.30    3.90
  10   3  21    8.90    3.20
  10   3  22  746.90   20.90
  10   3  23    8.30    4.40
  10   4 -28   38.90    6.70
  10   4 -27   61.70    7.20
  10   4 -26   10.00    5.90
  10   4 -25   55.10    6.20
  10   4 -24    2.40    5.40
  10   4 -23   -2.60    5.00
  10   4 -22    2.70    4.60
  10   4 -21   19.40    5.20
  10   4 -20   21.40    4.50
  10   4 -19  122.70    6.40
  10   4 -18  469.40   11.60
  10   4 -17   69.20    4.40
  10   4 -16   61.80    4.40
  10   4 -15    4.50    3.60
  10   4 -14 1021.20   20.70
  10   4 -13   82.30    4.90
  10   4 -12  229.80    6.50
  10   4 -11 1388.70   28.70
  10   4 -10   13.50    2.60
  10   4  -9    4.30    2.30
  10   4  -8   10.10    2.00
  10   4  -7  150.10    5.10
  10   4  -6  263.50    7.00
  10   4  -5   75.50    3.30
  10   4  -4   11.30    1.80
  10   4  -3   38.80    2.80
  10   4  -2  302.70    9.00
  10   4  -1 2209.70   40.40
  10   4   0 1692.10   31.30
  10   4   1  405.40   10.50
  10   4   2  401.70   11.30
  10   4   3  715.60   15.00
  10   4   4   70.90    3.60
  10   4   5  339.40    9.40
  10   4   6 5163.80   87.70
  10   4   7   60.00    4.60
  10   4   8  305.60    8.80
  10   4   9    6.30    2.70
  10   4  10  593.60   14.10
  10   4  11    5.90    3.00
  10   4  12  338.30   10.60
  10   4  13   86.20    5.00
  10   4  14  455.50   12.60
  10   4  15  345.20   11.30
  10   4  16   18.90    2.90
  10   4  17  295.90   12.00
  10   4  18    1.90    3.20
  10   4  19  308.60    8.80
  10   4  20  225.40    8.10
  10   5 -26    5.40    6.60
  10   5 -25    7.90    7.90
  10   5 -24  121.80    8.00
  10   5 -23  321.30    9.00
  10   5 -22  208.80    7.70
  10   5 -21   71.80    5.20
  10   5 -20   50.80    5.10
  10   5 -19   25.60    4.40
  10   5 -18  375.30   10.00
  10   5 -17    9.50    3.50
  10   5 -16   41.50    4.00
  10   5 -15   95.60    5.40
  10   5 -14  243.80    7.30
  10   5 -13   12.30    4.00
  10   5 -12 2726.40   49.80
  10   5 -11  569.40   13.40
  10   5 -10  199.40    6.40
  10   5  -9    1.50    2.10
  10   5  -8    2.90    2.40
  10   5  -7 3620.50   62.70
  10   5  -6 2118.00   38.20
  10   5  -5  337.50    8.20
  10   5  -4  190.90    5.50
  10   5  -3    0.30    2.60
  10   5  -2  371.20    9.90
  10   5  -1 1095.50   21.20
  10   5   0  801.40   16.30
  10   5   1 2205.30   40.80
  10   5   2 2427.40   43.80
  10   5   3   47.10    3.20
  10   5   4  447.30   13.00
  10   5   5 1290.00   27.80
  10   5   6   28.00    2.30
  10   5   7  102.80    7.60
  10   5   8  148.60   11.00
  10   5   9 2413.20   64.80
  10   5  10  730.90   24.10
  10   5  11 1063.10   36.50
  10   5  12   -4.50    5.00
  10   5  13 1495.20   46.90
  10   5  14   53.40    2.40
  10   5  15  217.00    8.30
  10   5  16  385.00    9.60
  10   5  17   48.00    4.80
  10   6 -23   -0.40    6.30
  10   6 -22   12.10    5.50
  10   6 -21   38.60    5.00
  10   6 -20  260.40    7.30
  10   6 -19    6.20    4.20
  10   6 -18    7.80    4.20
  10   6 -17    7.80    3.50
  10   6 -16  343.50    8.90
  10   6 -15  714.40   15.60
  10   6 -14  426.70   10.70
  10   6 -13   37.60    3.50
  10   6 -12   37.30    3.50
  10   6 -11   20.20    3.30
  10   6 -10  752.60   17.00
  10   6  -9   -1.90    2.90
  10   6  -8 1825.20   34.90
  10   6  -7  261.00    7.50
  10   6  -6   23.90    3.50
  10   6  -5   53.60    3.70
  10   6  -4  510.10   11.90
  10   6  -3  118.00    4.50
  10   6  -2 1389.90   27.00
  10   6  -1  296.90    8.80
  10   6   0 4170.70   80.30
  10   6   1   60.90    4.40
  10   6   2  367.00   15.20
  10   6   3  135.30    8.40
  10   6   4   29.30    5.50
  10   6   5   49.40    5.90
  10   6   6  133.70    8.80
  10   6   7   20.30    6.00
  10   6   8  121.30    9.70
  10   6   9   -0.60    5.70
  10   6  10 1270.60   38.30
  10   6  11  266.50   14.00
  10   6  12   75.60    7.30
  10   6  13  277.60   14.30
  10   6  14   21.50    8.00
  10   6  15   -6.40    4.90
  10   7 -20   28.10   14.50
  10   7 -19   72.30    5.70
  10   7 -18   27.60    4.40
  10   7 -17   15.60    4.00
  10   7 -16  319.00    8.80
  10   7 -15  198.10    7.40
  10   7 -14  559.80   12.90
  10   7 -13    0.80    3.20
  10   7 -12   47.10    4.60
  10   7 -11  549.20   12.80
  10   7 -10  194.50    7.00
  10   7  -9   -1.30    3.70
  10   7  -8  203.90    6.90
  10   7  -7  167.10    6.10
  10   7  -6   38.30    3.60
  10   7  -5   80.00    4.30
  10   7  -4  140.50    5.30
  10   7  -3  434.80   11.90
  10   7  -2  396.50   11.30
  10   7  -1  164.30    6.00
  10   7   0    6.10    6.90
  10   7   1  137.50    9.20
  10   7   2 1003.70   30.50
  10   7   3  964.80   31.00
  10   7   4   87.90    9.40
  10   7   5  291.00   16.20
  10   7   6    6.80    7.50
  10   7   7   40.00    6.50
  10   7   8  192.60   11.50
  10   7   9  341.20   14.80
  10   7  10 1678.80   50.70
  10   7  11    9.30    5.30
  10   7  12  180.80   11.30
  10   7  13   64.60    7.40
  10   8 -18  325.60   28.00
  10   8 -17    1.80    4.40
  10   8 -16   47.30    7.60
  10   8 -15  586.80   18.30
  10   8 -14   67.90    7.90
  10   8 -13   27.90    4.50
  10   8 -12   16.70    3.90
  10   8 -11   18.80    3.80
  10   8 -10   11.20    3.00
  10   8  -9    2.60    2.90
  10   8  -8   -4.30    3.80
  10   8  -7   12.70    4.10
  10   8  -6  101.00    5.20
  10   8  -5   84.20    6.80
  10   8  -4   88.80    4.40
  10   8  -3    4.40    2.70
  10   8  -2   47.50    6.30
  10   8  -1  189.60   11.60
  10   8   0   51.80    7.30
  10   8   1   40.50    5.70
  10   8   2  238.80   12.70
  10   8   3   39.70    6.50
  10   8   4  329.50   13.40
  10   8   5   56.30    6.60
  10   8   6  222.40   11.30
  10   8   7   -0.60    6.60
  10   8   8   42.80    7.60
  10   8   9   30.60    6.60
  10   8  10    3.10    5.40
  10   9  -6   85.60   18.30
  10   9  -5   43.20    6.40
  10   9  -4   13.50    5.20
  10   9  -3   34.10    5.20
  10   9  -2   38.00    6.90
  10   9  -1   19.70    5.30
  10   9   0  104.30    9.10
  10   9   1   -7.10    5.10
  10   9   2   -2.40    6.80
  10   9   3   45.60    7.80
  10   9   4   83.60    7.90
  10   9   5  132.30    8.90
  10   9   6    0.70    6.60
  10   9   7  138.10   13.40
  11   0 -27  284.90   11.00
  11   0 -26    7.20    5.20
  11   0 -25  359.00   13.00
  11   0 -24    3.70    5.90
  11   0 -23   19.10    6.20
  11   0 -22   -5.90    5.10
  11   0 -21  168.40   11.80
  11   0 -20    6.40    5.70
  11   0 -19    0.10    4.60
  11   0 -18    6.40    5.10
  11   0 -17  105.80    6.90
  11   0 -16    0.50    4.60
  11   0 -15 1198.00   32.10
  11   0 -14   -2.40    5.60
  11   0 -13 1591.40   43.00
  11   0 -12   -1.10    4.30
  11   0 -11 1713.30   61.20
  11   0 -10   12.30    4.90
  11   0  -9 1732.20   66.50
  11   0  -8   -0.10    2.80
  11   0  -7  853.30   25.00
  11   0  -6    1.30    3.30
  11   0  -5 5350.60  126.80
  11   0  -4    5.00    2.90
  11   0  -3  309.50   10.90
  11   0  -2    1.60    2.50
  11   0  -1 8520.40  198.30
  11   0   0   -2.10    3.10
  11   0   1 3638.70   88.80
  11   0   2    0.20    3.40
  11   0   3 2168.30   55.70
  11   0   4    1.00    3.10
  11   0   5  511.60   16.40
  11   0   6   -0.80    4.10
  11   0   7   12.10    3.90
  11   0   8   -2.60    4.00
  11   0   9   90.10    7.40
  11   0  10    6.00    5.50
  11   0  11 2950.40   80.50
  11   0  12    1.10    4.90
  11   0  13 1131.40   51.90
  11   0  14    2.10    4.60
  11   0  15    2.40    5.90
  11   0  16   -4.80    4.00
  11   0  17  229.30   12.30
  11   0  18    4.50    6.20
  11   0  19  155.80   10.50
  11   0  20   17.60    6.70
  11   0  21   20.40   10.40
  11   0  22    0.40    7.10
  11   0  23   22.90    7.00
  11   0  24   -9.80   14.20
  11   1 -28   38.90    5.70
  11   1 -27  393.20   11.00
  11   1 -26  347.10    9.80
  11   1 -25   64.00    5.10
  11   1 -24 1945.00   35.10
  11   1 -23  260.60    8.20
  11   1 -22  176.20    7.60
  11   1 -21  330.90    8.70
  11   1 -20 1998.60   39.00
  11   1 -19    1.70    3.80
  11   1 -18  182.80    6.50
  11   1 -17   -4.00    3.40
  11   1 -16 2306.00   47.60
  11   1 -15   -0.60    3.50
  11   1 -14  764.90   17.30
  11   1 -13    1.90    2.80
  11   1 -12  288.00    7.50
  11   1 -11   -0.30    2.50
  11   1 -10 1101.50   22.20
  11   1  -9  106.10    4.40
  11   1  -8  241.10    6.70
  11   1  -7  121.10    4.40
  11   1  -6   54.90    3.10
  11   1  -5   98.80    4.50
  11   1  -4  256.30    8.50
  11   1  -3 1122.10   24.10
  11   1  -2 3194.90   65.10
  11   1  -1 1831.80   34.20
  11   1   0  274.60    7.10
  11   1   1   70.60    3.30
  11   1   2  649.70   15.00
  11   1   3   59.90    3.20
  11   1   4  226.30    6.40
  11   1   5  166.50    5.10
  11   1   6    8.60    2.20
  11   1   7  563.50   13.40
  11   1   8   45.20    3.90
  11   1   9 1083.60   23.90
  11   1  10  219.90    8.20
  11   1  11 1248.30   26.60
  11   1  12 5840.20   95.80
  11   1  13   94.00    4.80
  11   1  14  753.40   18.50
  11   1  15  214.20    7.40
  11   1  16  131.10    6.40
  11   1  17   11.70    3.40
  11   1  18    0.30    3.10
  11   1  19   10.70    3.80
  11   1  20  253.50    8.20
  11   1  21   59.70    4.90
  11   1  22   40.10    4.80
  11   1  23  130.70    5.80
  11   1  24   53.50    6.10
  11   1  25   23.50    4.50
  11   2 -28   65.20    8.10
  11   2 -27   76.30    9.40
  11   2 -26   24.10    5.10
  11   2 -25   57.30    5.50
  11   2 -24  112.60    5.50
  11   2 -23   21.70    4.50
  11   2 -22  230.30    9.40
  11   2 -21  870.60   22.70
  11   2 -20    8.60    4.20
  11   2 -19   22.40    3.70
  11   2 -18  404.40    9.60
  11   2 -17 1233.60   24.80
  11   2 -16  273.50    7.20
  11   2 -15 1220.60   23.80
  11   2 -14   34.90    3.50
  11   2 -13   31.30    3.70
  11   2 -12  152.70    5.60
  11   2 -11 1278.10   25.60
  11   2 -10  168.40    5.50
  11   2  -9  783.90   17.60
  11   2  -8 4177.60   75.10
  11   2  -7   33.30    2.50
  11   2  -6  439.00   11.30
  11   2  -5   74.20    3.30
  11   2  -4  324.40    8.00
  11   2  -3  250.50    6.50
  11   2  -2 2387.20   43.30
  11   2  -1 1077.70   21.80
  11   2   0  368.80    9.50
  11   2   1   26.00    2.70
  11   2   2  317.70   10.10
  11   2   3  682.70   18.10
  11   2   4 3643.30   73.20
  11   2   5  274.50    7.70
  11   2   6    4.80    2.30
  11   2   7  539.80   14.00
  11   2   8 1849.00   44.80
  11   2   9    1.00    2.80
  11   2  10    1.60    3.00
  11   2  11 1131.60   22.90
  11   2  12  130.30    6.30
  11   2  13   57.20    4.50
  11   2  14    0.40    3.50
  11   2  15   41.40    4.50
  11   2  16   -0.80    3.10
  11   2  17   45.60    4.00
  11   2  18  327.90   10.50
  11   2  19   31.60    4.20
  11   2  20   45.30    4.30
  11   2  21  126.30    5.90
  11   2  22  202.90   10.30
  11   2  23    2.90    4.10
  11   2  24    2.80    4.50
  11   3 -28  113.40   19.50
  11   3 -27  179.80   10.10
  11   3 -26   26.20    8.10
  11   3 -25   84.60    5.90
  11   3 -24   22.70    5.00
  11   3 -23  107.20    5.70
  11   3 -22  143.50    6.70
  11   3 -21  110.50    6.30
  11   3 -20   75.00    5.40
  11   3 -19   97.40    5.40
  11   3 -18   89.00    5.20
  11   3 -17  887.50   17.70
  11   3 -16  615.40   13.70
  11   3 -15    3.60    3.40
  11   3 -14  136.10    5.10
  11   3 -13  953.60   19.60
  11   3 -12  637.10   14.30
  11   3 -11  176.90    5.80
  11   3 -10  825.30   18.80
  11   3  -9 1254.80   24.80
  11   3  -8   35.90    2.60
  11   3  -7  284.80    7.60
  11   3  -6   -3.20    2.50
  11   3  -5   13.00    2.00
  11   3  -4   60.80    3.20
  11   3  -3  165.90    5.20
  11   3  -2   65.50    3.20
  11   3  -1  135.20    4.60
  11   3   0  195.40    5.90
  11   3   1  173.70    5.90
  11   3   2    5.00    2.10
  11   3   3   12.40    2.00
  11   3   4  444.00   11.20
  11   3   5 1389.50   28.10
  11   3   6  163.00    5.70
  11   3   7   80.50    5.00
  11   3   8  539.00   17.60
  11   3   9  110.10    7.40
  11   3  10 2498.60   54.80
  11   3  11  291.50   10.20
  11   3  12  214.80    7.20
  11   3  13    7.50    3.00
  11   3  14   21.10    4.10
  11   3  15   15.50    3.50
  11   3  16  452.60   12.60
  11   3  17   -1.00    3.30
  11   3  18   26.00    4.00
  11   3  19    7.40    4.40
  11   3  20  495.90   12.40
  11   3  21   32.50    5.10
  11   3  22  288.10   14.20
  11   4 -28   16.20    5.60
  11   4 -27  180.10    8.50
  11   4 -26   68.30    7.10
  11   4 -25  127.30    9.00
  11   4 -24   42.90    4.80
  11   4 -23   88.80    5.70
  11   4 -22   18.20    4.20
  11   4 -21   46.50    4.80
  11   4 -20    2.50    4.10
  11   4 -19    7.50    3.70
  11   4 -18    6.50    3.70
  11   4 -17   10.90    3.40
  11   4 -16  237.00    7.90
  11   4 -15 1147.60   23.20
  11   4 -14   86.50    4.30
  11   4 -13  346.40    9.40
  11   4 -12  247.00    7.60
  11   4 -11  335.10    8.90
  11   4 -10  624.00   14.20
  11   4  -9    3.00    2.10
  11   4  -8  479.70   11.00
  11   4  -7  662.40   16.90
  11   4  -6  635.90   16.30
  11   4  -5   24.30    2.80
  11   4  -4   53.40    3.30
  11   4  -3   73.30    3.70
  11   4  -2   27.30    2.70
  11   4  -1   67.00    3.70
  11   4   0   24.50    2.40
  11   4   1 2066.00   39.40
  11   4   2 1475.50   27.60
  11   4   3    8.80    2.20
  11   4   4  797.70   17.60
  11   4   5   62.70    3.90
  11   4   6  168.50    5.90
  11   4   7  410.60   11.20
  11   4   8 1842.90   35.30
  11   4   9   15.50    3.30
  11   4  10   90.60    4.90
  11   4  11   47.10    4.00
  11   4  12 1381.50   27.70
  11   4  13  226.80    8.40
  11   4  14  278.00   10.00
  11   4  15   84.90    6.10
  11   4  16  183.10    8.40
  11   4  17   39.20    3.80
  11   4  18   12.60    3.40
  11   4  19    4.30    4.10
  11   4  20   20.00    4.10
  11   5 -26   36.80    5.90
  11   5 -25   36.60    8.30
  11   5 -24   42.20    7.90
  11   5 -23   53.70    7.10
  11   5 -22  165.00    6.00
  11   5 -21   69.90    4.00
  11   5 -20    4.80    3.60
  11   5 -19   -0.90    3.30
  11   5 -18    4.30    4.60
  11   5 -17    1.70    4.00
  11   5 -16    4.10    3.00
  11   5 -15   11.80    3.30
  11   5 -14    6.90    3.10
  11   5 -13   87.00    5.00
  11   5 -12   10.40    3.30
  11   5 -11  136.30    5.80
  11   5 -10   69.50    3.70
  11   5  -9  183.20    5.70
  11   5  -8   16.80    2.80
  11   5  -7  217.30    6.20
  11   5  -6   56.00    3.70
  11   5  -5    4.60    2.70
  11   5  -4  189.40    5.90
  11   5  -3  928.10   18.90
  11   5  -2   32.80    3.00
  11   5  -1    2.20    2.30
  11   5   0  725.10   15.40
  11   5   1  320.70    8.80
  11   5   2  438.70   11.50
  11   5   3    2.30    2.30
  11   5   4   21.40    2.70
  11   5   5  158.40    6.70
  11   5   6 1154.30   25.20
  11   5   7  717.70   20.40
  11   5   8  994.80   20.90
  11   5   9  364.40    9.90
  11   5  10  426.70   10.70
  11   5  11  853.20   21.10
  11   5  12  114.10    4.70
  11   5  13 1810.50   44.50
  11   5  14   23.50    2.50
  11   5  15   38.30    2.70
  11   5  16   43.40    4.20
  11   6 -23    3.40    5.40
  11   6 -22    2.40    6.20
  11   6 -21   -1.30    3.80
  11   6 -20    1.80    3.90
  11   6 -19   10.70    4.20
  11   6 -18   72.40    5.40
  11   6 -17  239.90    8.40
  11   6 -16    1.60    3.80
  11   6 -15  256.30    7.40
  11   6 -14    0.40    3.00
  11   6 -13    5.90    2.70
  11   6 -12   65.60    4.60
  11   6 -11   91.80    4.70
  11   6 -10  642.20   14.70
  11   6  -9    3.20    3.30
  11   6  -8  853.30   18.80
  11   6  -7  143.80    5.90
  11   6  -6  115.40    4.80
  11   6  -5   30.40    3.20
  11   6  -4 1374.40   28.20
  11   6  -3  137.30    5.40
  11   6  -2   52.70    3.60
  11   6  -1   12.40    2.70
  11   6   0 1660.90   31.90
  11   6   1  105.60    5.20
  11   6   2   89.20    4.00
  11   6   3  460.00   20.20
  11   6   4    0.20    5.00
  11   6   5  573.40   22.90
  11   6   6   28.00    6.00
  11   6   7   -5.50    7.90
  11   6   8  130.20    9.10
  11   6   9  191.00   10.50
  11   6  10   66.70    9.10
  11   6  11  433.40   18.20
  11   6  12   30.90    7.40
  11   6  13   13.70    5.10
  11   6  14   12.50    6.40
  11   7 -19    8.80    8.00
  11   7 -18    3.50    4.10
  11   7 -17  500.40   11.50
  11   7 -16    7.00    3.60
  11   7 -15  590.50   14.00
  11   7 -14  188.40    6.90
  11   7 -13  151.80    5.60
  11   7 -12   39.50    3.60
  11   7 -11   66.50    4.00
  11   7 -10   35.90    3.50
  11   7  -9  129.80    4.90
  11   7  -8   28.90    3.00
  11   7  -7   -1.50    3.40
  11   7  -6   82.80    5.60
  11   7  -5  129.70    5.10
  11   7  -4  232.90    7.20
  11   7  -3  312.80   10.60
  11   7  -2   24.70    3.50
  11   7  -1  116.50    5.00
  11   7   0 1155.00   35.00
  11   7   1  597.60   24.20
  11   7   2  137.60   10.50
  11   7   3   86.90    9.30
  11   7   4  163.30   10.70
  11   7   5 1699.30   48.00
  11   7   6   16.00    7.00
  11   7   7   -8.70    5.40
  11   7   8  433.20   15.50
  11   7   9  625.90   23.80
  11   7  10   -6.90    4.80
  11   7  11  109.10    8.60
  11   7  12    9.20    6.10
  11   8 -17  320.40   14.50
  11   8 -16    3.30    6.20
  11   8 -15   31.80    5.20
  11   8 -14   27.80    6.70
  11   8 -13    6.00    3.30
  11   8 -12    5.90    3.70
  11   8 -11   26.50    4.20
  11   8 -10    0.80    3.00
  11   8  -9   14.90    3.70
  11   8  -8   20.10    3.90
  11   8  -7   36.90    3.60
  11   8  -6  153.70    5.60
  11   8  -5  132.90    5.60
  11   8  -4   -1.30    3.20
  11   8  -3    1.70    2.20
  11   8  -2   25.10    9.00
  11   8  -1   49.40    7.00
  11   8   0  730.90   23.50
  11   8   1   44.70    8.60
  11   8   2   78.80    7.20
  11   8   3   18.30    6.10
  11   8   4  134.80    8.50
  11   8   5  345.10   15.00
  11   8   6   23.60    6.00
  11   8   7  216.00   12.20
  11   8   8   11.80    6.80
  11   8   9  -10.00    5.70
  11   9  -5   -7.30    6.70
  11   9  -4   50.50    7.30
  11   9  -3  -10.10    4.50
  11   9  -2  198.20   14.00
  11   9  -1    6.80    5.30
  11   9   0   59.40    7.80
  11   9   3    1.20    4.40
  11   9   4  244.40    9.40
  11   9   5  191.40    8.50
  12   0 -27   -4.10    4.90
  12   0 -26  123.20    7.80
  12   0 -25   -4.90    5.60
  12   0 -24   25.70    7.20
  12   0 -23    6.30    7.10
  12   0 -22 1559.60   44.00
  12   0 -21   -5.50    5.30
  12   0 -20  197.80   10.10
  12   0 -19   -4.30    6.40
  12   0 -18  321.70   11.90
  12   0 -17   -1.10    6.50
  12   0 -16  588.00   18.40
  12   0 -15    1.80    4.90
  12   0 -14 1696.30   45.60
  12   0 -13    3.30    4.10
  12   0 -12  449.10   22.20
  12   0 -11   -4.20    4.20
  12   0 -10 2087.60   82.20
  12   0  -9   16.30    4.40
  12   0  -8 1475.30   38.40
  12   0  -7    3.00    3.20
  12   0  -6  120.50    5.90
  12   0  -5   -4.30    3.60
  12   0  -4  539.40   17.60
  12   0  -3   -3.80    2.70
  12   0  -2 5809.30  142.30
  12   0  -1    2.10    3.40
  12   0   012394.20  283.00
  12   0   1   -1.80    3.00
  12   0   2 6058.50  146.30
  12   0   3    1.90    3.30
  12   0   4 3156.30   80.90
  12   0   5    0.80    3.60
  12   0   6 1955.90   52.30
  12   0   7    0.50    4.10
  12   0   8 1268.60   34.50
  12   0   9   -7.50    5.20
  12   0  10 1284.50   38.50
  12   0  11   -4.50    4.50
  12   0  12  482.00   17.70
  12   0  13   -6.30    4.60
  12   0  14  242.90   13.10
  12   0  15   -4.40    4.70
  12   0  16  480.70   18.60
  12   0  17    1.70    6.60
  12   0  18   68.70    7.10
  12   0  19    1.60    5.50
  12   0  20  111.10    8.50
  12   0  21   -0.40    5.00
  12   0  22   73.10    6.80
  12   0  23    0.70    5.00
  12   1 -27  277.60   10.20
  12   1 -26   19.00    4.10
  12   1 -25   12.10    4.30
  12   1 -24   97.00    5.80
  12   1 -23   99.20    5.70
  12   1 -22  187.10    7.30
  12   1 -21   -1.60    3.40
  12   1 -20   35.50    4.90
  12   1 -19  131.00    5.60
  12   1 -18 1477.30   33.80
  12   1 -17   12.30    4.20
  12   1 -16  746.40   19.90
  12   1 -15 1465.60   27.90
  12   1 -14  361.10    9.20
  12   1 -13  388.70    9.80
  12   1 -12 1288.00   24.70
  12   1 -11  163.60    5.40
  12   1 -10  686.10   15.30
  12   1  -9 3421.80   61.00
  12   1  -8    4.90    3.00
  12   1  -7  530.00   12.30
  12   1  -6   47.20    3.60
  12   1  -5  434.70   11.20
  12   1  -4    9.50    2.50
  12   1  -3  998.20   22.70
  12   1  -2  273.80    7.00
  12   1  -1   -0.20    2.30
  12   1   0  806.20   17.60
  12   1   1  855.30   17.80
  12   1   2 2529.70   45.20
  12   1   3 2758.90   51.00
  12   1   4  370.50    8.90
  12   1   5  180.30    6.80
  12   1   6  116.00    4.20
  12   1   7   63.30    3.50
  12   1   8    8.60    2.80
  12   1   9 1459.50   28.30
  12   1  10  548.80   14.10
  12   1  11 2960.30   53.20
  12   1  12  339.50   10.90
  12   1  13  988.70   21.00
  12   1  14  140.00    7.30
  12   1  15   38.70    4.10
  12   1  16   -9.90    3.80
  12   1  17    7.60    3.60
  12   1  18    9.50    4.30
  12   1  19   -2.10    4.00
  12   1  20   25.50    4.60
  12   1  21  159.90    6.50
  12   1  22    5.60    4.10
  12   1  23  145.30    9.40
  12   1  24  267.30   12.50
  12   2 -27   98.60    8.20
  12   2 -26   89.80    7.50
  12   2 -25   70.30    5.60
  12   2 -24   10.10    4.30
  12   2 -23    8.80    4.60
  12   2 -22   -0.60    4.20
  12   2 -21  366.60   10.70
  12   2 -20  125.50    5.50
  12   2 -19  531.30   13.30
  12   2 -18   55.40    4.50
  12   2 -17  386.00    9.40
  12   2 -16   55.70    4.60
  12   2 -15 1087.30   21.90
  12   2 -14  176.20    5.90
  12   2 -13  159.90    5.80
  12   2 -12  139.00    5.10
  12   2 -11  471.30   11.10
  12   2 -10   64.80    3.40
  12   2  -9  105.70    4.40
  12   2  -8   13.00    2.50
  12   2  -7  477.40   11.20
  12   2  -6   37.80    2.70
  12   2  -5 3979.70   70.80
  12   2  -4   -5.20    2.60
  12   2  -3   60.50    3.20
  12   2  -2    6.70    2.00
  12   2  -1  759.00   16.60
  12   2   0  157.40    6.50
  12   2   1  206.20    7.00
  12   2   2  232.00    8.20
  12   2   3   72.20    3.80
  12   2   4   11.60    2.90
  12   2   5  121.90    4.60
  12   2   6  340.50   12.90
  12   2   7  121.10    4.70
  12   2   8  216.80    7.90
  12   2   9 1552.10   33.00
  12   2  10 2524.20   46.10
  12   2  11  597.70   15.10
  12   2  12    3.80    4.00
  12   2  13  269.80   11.70
  12   2  14   11.10    3.40
  12   2  15   10.90    4.40
  12   2  16  132.60    6.60
  12   2  17   41.90    4.80
  12   2  18  359.20    8.60
  12   2  19   52.10    4.80
  12   2  20   95.10    5.50
  12   2  21   55.20    7.50
  12   2  22  143.80   11.30
  12   2  23   97.80    8.30
  12   3 -27   23.30    7.60
  12   3 -26   18.40    7.40
  12   3 -25  134.70    7.10
  12   3 -24    1.80    3.60
  12   3 -23    0.00    3.90
  12   3 -22   41.60    4.70
  12   3 -21   61.00    4.50
  12   3 -20  129.50    6.50
  12   3 -19   31.00    4.20
  12   3 -18   60.70    4.70
  12   3 -17   34.40    3.80
  12   3 -16  118.20    5.80
  12   3 -15  108.70    5.10
  12   3 -14  312.00   10.30
  12   3 -13  155.60    5.70
  12   3 -12  416.60   10.20
  12   3 -11  288.30    8.10
  12   3 -10    1.80    2.60
  12   3  -9  676.70   15.60
  12   3  -8    2.10    2.80
  12   3  -7   97.90    4.30
  12   3  -6   -1.90    2.20
  12   3  -5  441.80   10.70
  12   3  -4  980.10   21.50
  12   3  -3 1095.20   26.20
  12   3  -2  605.00   16.50
  12   3  -1 1338.10   33.00
  12   3   0  275.30    9.00
  12   3   1    6.60    2.70
  12   3   2   63.50    3.40
  12   3   3   79.40    3.50
  12   3   4   88.90    3.90
  12   3   5  400.90   10.50
  12   3   6 1170.40   22.80
  12   3   7  776.70   21.10
  12   3   8 1295.30   31.10
  12   3   9   10.30    4.40
  12   3  10   96.60    5.10
  12   3  11   78.30    4.50
  12   3  12   -0.50    3.30
  12   3  13  121.50    5.70
  12   3  14 1141.10   25.60
  12   3  15  190.10    8.10
  12   3  16  102.20    5.60
  12   3  17   52.60    4.60
  12   3  18   40.90    4.90
  12   3  19  130.00    6.20
  12   3  20   41.30    4.80
  12   3  21  152.30    8.50
  12   4 -27    6.10    5.10
  12   4 -26  149.60   10.40
  12   4 -25    9.70    6.00
  12   4 -24    7.20    6.50
  12   4 -23   46.70    5.30
  12   4 -22   -0.80    4.00
  12   4 -21   47.90    5.60
  12   4 -20   70.00    4.60
  12   4 -19  678.60   16.70
  12   4 -18   27.20    3.80
  12   4 -17   52.20    4.90
  12   4 -16   20.40    3.70
  12   4 -15    2.40    3.80
  12   4 -14   31.00    3.70
  12   4 -13   -6.30    3.20
  12   4 -12   41.40    3.50
  12   4 -11 2468.60   48.60
  12   4 -10  521.10   11.40
  12   4  -9  248.00    6.70
  12   4  -8  298.30    8.20
  12   4  -7   -1.30    2.40
  12   4  -6  307.20    8.90
  12   4  -5   68.00    3.90
  12   4  -4  256.70    6.70
  12   4  -3  409.40   10.00
  12   4  -2 1009.20   21.30
  12   4  -1  158.90    5.40
  12   4   0  177.60    5.60
  12   4   1  400.30    9.90
  12   4   2    3.10    2.10
  12   4   3  200.50    6.20
  12   4   4   18.90    3.00
  12   4   5    0.70    2.50
  12   4   6 1029.00   20.90
  12   4   7  439.80   11.20
  12   4   8    6.80    3.30
  12   4   9  297.60    8.90
  12   4  10 5266.90   90.30
  12   4  11   20.30    4.10
  12   4  12  915.90   20.30
  12   4  13  140.40    8.70
  12   4  14  169.30    8.40
  12   4  15  439.00   14.80
  12   4  16   95.70    5.50
  12   4  17   14.30    3.80
  12   4  18   22.20    4.60
  12   4  19  223.70   10.40
  12   5 -26   -1.40    4.60
  12   5 -25   -0.10    5.00
  12   5 -24   35.00   10.70
  12   5 -23   39.60    5.90
  12   5 -22   13.70    3.60
  12   5 -21   -2.10    4.20
  12   5 -20    2.60    4.20
  12   5 -19   69.50    4.90
  12   5 -18    3.90    4.00
  12   5 -17   19.10    4.60
  12   5 -16  232.80    7.70
  12   5 -15   47.30    3.90
  12   5 -14   11.60    3.60
  12   5 -13   -2.80    4.10
  12   5 -12   15.70    3.20
  12   5 -11  268.70    7.60
  12   5 -10 1105.60   22.10
  12   5  -9 2776.10   46.70
  12   5  -8    6.80    3.50
  12   5  -7 1140.10   21.60
  12   5  -6   38.10    3.10
  12   5  -5  244.60    7.00
  12   5  -4  110.20    4.50
  12   5  -3 1318.00   25.10
  12   5  -2  104.70    4.30
  12   5  -1 4782.80   78.50
  12   5   0   -1.70    2.70
  12   5   1    3.80    3.00
  12   5   2   20.60    3.10
  12   5   3  306.30    7.70
  12   5   4   14.50    2.80
  12   5   5   88.70    5.40
  12   5   6  399.40   11.70
  12   5   7   51.30    4.30
  12   5   8    7.90    3.00
  12   5   9    5.80    2.70
  12   5  10  893.10   20.30
  12   5  11    1.40    2.20
  12   5  12   29.70    3.30
  12   5  13   17.20    2.40
  12   5  14   87.40    4.40
  12   5  15   94.70    5.40
  12   6 -22   12.00    6.40
  12   6 -21    9.60    5.50
  12   6 -20   61.20    5.10
  12   6 -19  138.10    7.90
  12   6 -18    4.30    4.50
  12   6 -17   35.80    4.50
  12   6 -16  152.60    6.50
  12   6 -15   21.10    4.30
  12   6 -14 1095.00   22.80
  12   6 -13   81.40    4.20
  12   6 -12    4.40    3.30
  12   6 -11  609.00   13.80
  12   6 -10  944.30   18.80
  12   6  -9   83.20    4.20
  12   6  -8  465.50   11.60
  12   6  -7  157.10    5.90
  12   6  -6   17.60    3.50
  12   6  -5  125.30    5.00
  12   6  -4  315.10    8.50
  12   6  -3 1336.20   26.60
  12   6  -2  805.40   17.40
  12   6  -1  464.60   11.70
  12   6   0    8.70    2.90
  12   6   1   -3.00    2.70
  12   6   2    3.70    2.40
  12   6   3   -4.00    2.80
  12   6   4  269.30   12.30
  12   6   5  803.30   26.90
  12   6   6  360.60   15.10
  12   6   7  150.30   11.90
  12   6   8   37.60    6.00
  12   6   9   56.70    6.60
  12   6  10   -5.80    7.10
  12   6  11  151.00    9.00
  12   6  12  311.40   17.40
  12   6  13   15.30    5.70
  12   7 -19   16.90    5.00
  12   7 -18    6.30    4.10
  12   7 -17   81.20    5.30
  12   7 -16  140.10    5.70
  12   7 -15  317.60    9.30
  12   7 -14  350.30    8.70
  12   7 -13   21.20    3.90
  12   7 -12   -1.30    3.70
  12   7 -11   -5.00    4.00
  12   7 -10   10.80    4.00
  12   7  -9   73.60    4.70
  12   7  -8   -0.90    3.20
  12   7  -7    7.40    3.20
  12   7  -6   49.90    3.70
  12   7  -5    7.50    3.10
  12   7  -4    4.70    2.70
  12   7  -3   15.80    3.00
  12   7  -2   19.30    4.20
  12   7  -1  145.30    6.90
  12   7   0   83.80    8.80
  12   7   1   21.50    7.50
  12   7   2   20.40    7.60
  12   7   3  224.90   12.60
  12   7   4  389.50   16.20
  12   7   5   76.80    9.80
  12   7   6  555.40   23.40
  12   7   7  152.30   10.20
  12   7   8   49.30    6.60
  12   7   9  578.10   19.40
  12   7  10    7.30    5.20
  12   8 -17    2.70    5.40
  12   8 -16  127.30    6.70
  12   8 -15   69.70    7.30
  12   8 -14   21.20    6.30
  12   8 -13  266.50    9.50
  12   8 -12   30.20    3.50
  12   8 -11    6.10    3.50
  12   8 -10   13.80    4.20
  12   8  -9   39.10    5.20
  12   8  -8    5.50    7.00
  12   8  -7   72.60    5.10
  12   8  -6   -1.30    3.40
  12   8  -5    5.70    4.00
  12   8  -4  141.90    7.90
  12   8  -3  109.90    7.10
  12   8  -2   85.60    4.90
  12   8  -1    4.20    6.90
  12   8   0  182.50   10.90
  12   8   1   38.40    6.10
  12   8   2   -0.80    5.30
  12   8   3   -0.30    5.10
  12   8   4  112.00    8.70
  12   8   5  126.20    7.90
  12   8   6    9.50    6.30
  12   8   7  323.90   15.20
  12   9  -4   87.30    7.00
  12   9  -3    2.10    5.20
  12   9  -2  202.30   12.40
  12   9  -1   11.30    6.80
  12   9   0   53.20    6.10
  12   9   1  109.00    7.60
  13   0 -26  -10.20    6.20
  13   0 -25    8.10    7.10
  13   0 -24    5.30    5.40
  13   0 -23  138.70    8.80
  13   0 -22   -3.50    5.30
  13   0 -21  414.00   23.60
  13   0 -20  -12.30    7.60
  13   0 -19 3323.50   80.50
  13   0 -18    0.70    6.20
  13   0 -17  947.50   28.40
  13   0 -16   10.50    6.50
  13   0 -15  863.40   25.60
  13   0 -14    0.90    4.30
  13   0 -13   63.60    6.80
  13   0 -12   -6.30    5.00
  13   0 -11 1403.80   51.60
  13   0 -10    0.20    5.60
  13   0  -9  251.20    9.00
  13   0  -8    0.30    4.10
  13   0  -7 2205.00   54.30
  13   0  -6   -2.90    3.30
  13   0  -5   84.30    5.80
  13   0  -4   -4.00    3.50
  13   0  -3   -6.80    2.80
  13   0  -2   -3.90    4.00
  13   0  -1   76.60    5.30
  13   0   0   -0.70    3.60
  13   0   1   -2.20    3.50
  13   0   2    5.70    4.50
  13   0   3   15.80    3.70
  13   0   4   -0.40    3.60
  13   0   5   13.40    4.80
  13   0   6   -6.20    3.70
  13   0   7   24.80    4.40
  13   0   8   -0.60    3.90
  13   0   912218.20  277.20
  13   0  10   -0.20    7.30
  13   0  11 1661.30   46.70
  13   0  12   -2.50    4.90
  13   0  13  199.10   10.90
  13   0  14    6.30    4.90
  13   0  15  486.00   23.70
  13   0  16   12.90    7.10
  13   0  17   -5.70    4.40
  13   0  18    7.60    5.40
  13   0  19   71.40    8.00
  13   0  20   -2.30    6.60
  13   0  21   14.40    6.50
  13   0  22   -5.80    6.80
  13   1 -27   74.60   10.50
  13   1 -26   18.40    3.90
  13   1 -25    3.00    3.90
  13   1 -24   94.50    5.10
  13   1 -23   75.10    5.30
  13   1 -22   18.10    4.50
  13   1 -21   31.30    5.00
  13   1 -20 1057.10   22.20
  13   1 -19    1.40    3.70
  13   1 -18 1133.10   26.30
  13   1 -17  147.20    6.20
  13   1 -16 3076.00   53.50
  13   1 -15  184.50    6.20
  13   1 -14   32.70    3.60
  13   1 -13   68.10    4.10
  13   1 -12   -2.90    2.80
  13   1 -11  621.00   13.20
  13   1 -10  716.00   15.50
  13   1  -9  764.00   15.60
  13   1  -8  568.40   13.60
  13   1  -7  137.30    5.20
  13   1  -6  213.20    6.80
  13   1  -5  748.60   18.20
  13   1  -4  613.80   15.60
  13   1  -3   12.80    2.70
  13   1  -2   39.10    2.80
  13   1  -1  297.30    7.80
  13   1   0   10.40    2.60
  13   1   1 1888.10   37.20
  13   1   2  123.20    4.60
  13   1   3  687.80   14.10
  13   1   4   11.80    2.60
  13   1   5    7.10    2.70
  13   1   6   62.00    3.60
  13   1   7    1.90    3.10
  13   1   8  244.70    6.70
  13   1   9  436.30   11.30
  13   1  10   -0.90    3.60
  13   1  11  331.20   10.10
  13   1  12  174.50    6.80
  13   1  13  428.20   15.60
  13   1  14  276.30   10.00
  13   1  15   -4.60    4.50
  13   1  16  103.50    6.30
  13   1  17  112.50    6.20
  13   1  18    3.80    3.90
  13   1  19  108.70    5.00
  13   1  20  101.80    5.50
  13   1  21   24.80    4.90
  13   1  22   29.60    5.80
  13   1  23  108.90    8.70
  13   2 -27   63.70    6.50
  13   2 -26   30.40    6.30
  13   2 -25    7.10    4.00
  13   2 -24    1.40    3.90
  13   2 -23  116.60    6.80
  13   2 -22   57.80    4.70
  13   2 -21  738.10   16.10
  13   2 -20  240.90    8.70
  13   2 -19   62.90    4.80
  13   2 -18   12.40    3.90
  13   2 -17  439.40   10.90
  13   2 -16 2353.70   40.80
  13   2 -15 1674.00   30.70
  13   2 -14  391.30    9.80
  13   2 -13  254.40    7.80
  13   2 -12   58.70    3.60
  13   2 -11   23.60    3.00
  13   2 -10  564.70   12.80
  13   2  -9  323.20    8.00
  13   2  -8 2411.20   42.60
  13   2  -7   80.30    3.70
  13   2  -6  330.00    7.50
  13   2  -5  412.30    9.50
  13   2  -4  151.50    4.90
  13   2  -3   36.20    3.00
  13   2  -2  121.30    4.30
  13   2  -1  132.70    4.70
  13   2   0   29.30    3.30
  13   2   1  945.80   30.30
  13   2   2 1137.90   25.50
  13   2   3  279.80    7.90
  13   2   4   81.60    3.80
  13   2   5  506.80   14.30
  13   2   6  406.00   10.30
  13   2   7  645.00   14.10
  13   2   8  995.60   24.00
  13   2   9    0.30    3.30
  13   2  10  929.30   21.90
  13   2  11  428.60   13.80
  13   2  12  309.00    9.70
  13   2  13  268.70    9.10
  13   2  14   45.30    5.10
  13   2  15   22.40    3.80
  13   2  16   -1.00    3.60
  13   2  17   25.50    4.50
  13   2  18   47.70    4.40
  13   2  19   62.10    4.40
  13   2  20   16.10    6.10
  13   2  21    3.80    4.80
  13   2  22   -3.90    4.00
  13   3 -27   66.90   17.10
  13   3 -26   42.80    6.60
  13   3 -25   -5.60    5.20
  13   3 -24    9.30    4.20
  13   3 -23   10.80    3.90
  13   3 -22   -3.40    4.50
  13   3 -21   78.40    5.60
  13   3 -20  117.40    6.30
  13   3 -19   32.90    4.40
  13   3 -18  261.60    8.70
  13   3 -17   22.50    3.70
  13   3 -16   66.00    4.50
  13   3 -15  514.70   12.20
  13   3 -14   32.60    4.60
  13   3 -13  369.40    9.20
  13   3 -12   56.40    3.90
  13   3 -11  447.50   11.00
  13   3 -10  155.00    5.90
  13   3  -9   57.00    3.10
  13   3  -8   20.10    3.00
  13   3  -7   77.90    4.10
  13   3  -6  441.20   10.30
  13   3  -5  109.70    4.10
  13   3  -4 1519.80   38.70
  13   3  -3   14.70    2.20
  13   3  -2  359.60   14.60
  13   3  -1   34.80    2.90
  13   3   0    2.40    2.40
  13   3   1  602.50   17.90
  13   3   2   87.40    5.40
  13   3   3   15.50    2.90
  13   3   4  205.20    6.40
  13   3   5 2055.50   43.80
  13   3   6 3002.70   59.50
  13   3   7   15.60    3.70
  13   3   8  651.60   19.90
  13   3   9 2215.00   42.90
  13   3  10 1222.40   27.00
  13   3  11  123.20    6.20
  13   3  12  192.40    8.10
  13   3  13   68.70    5.30
  13   3  14  369.10   10.60
  13   3  15  166.10    6.70
  13   3  16  179.60    7.60
  13   3  17    2.50    3.20
  13   3  18   58.70    4.80
  13   3  19  413.20   13.10
  13   3  20   63.60    8.20
  13   4 -25   10.00    4.90
  13   4 -24   -8.70    6.60
  13   4 -23   22.60    4.40
  13   4 -22   62.00    4.30
  13   4 -21    0.60    4.30
  13   4 -20  224.30    7.00
  13   4 -19   93.00    5.70
  13   4 -18   11.60    3.50
  13   4 -17    1.10    4.20
  13   4 -16   45.10    4.70
  13   4 -15  322.30    8.80
  13   4 -14  101.40    4.30
  13   4 -13  337.90    9.30
  13   4 -12   20.40    3.60
  13   4 -11  147.40    4.90
  13   4 -10  548.10   11.30
  13   4  -9   66.60    4.30
  13   4  -8  332.50    9.00
  13   4  -7   28.10    3.00
  13   4  -6  477.50   10.70
  13   4  -5  223.10    6.20
  13   4  -4   33.80    3.30
  13   4  -3   52.30    3.30
  13   4  -2  187.40    5.80
  13   4  -1   36.20    3.30
  13   4   0 1122.40   22.20
  13   4   1  326.60    8.80
  13   4   2  852.40   18.70
  13   4   3  222.40    6.80
  13   4   4    7.70    3.00
  13   4   5   11.60    2.80
  13   4   6  149.30    6.00
  13   4   7 1541.60   31.90
  13   4   8   44.50    5.10
  13   4   9 2290.40   44.30
  13   4  10  386.40   10.70
  13   4  11 1773.10   36.90
  13   4  12   53.30    4.70
  13   4  13    8.70    4.90
  13   4  14  401.40   16.90
  13   4  15    0.50    3.30
  13   4  16   98.30    5.30
  13   4  17  276.10   11.50
  13   4  18  116.50    7.10
  13   5 -25    5.20    5.90
  13   5 -24   64.80    5.70
  13   5 -22   -1.10    7.60
  13   5 -21   11.80    3.90
  13   5 -20   57.40    4.80
  13   5 -19  178.10    6.30
  13   5 -18   22.00    4.00
  13   5 -17  168.30    6.60
  13   5 -16   25.10    4.30
  13   5 -15  981.50   18.50
  13   5 -14    7.00    3.50
  13   5 -13   25.50    3.80
  13   5 -12  181.70    6.30
  13   5 -11    5.50    3.10
  13   5 -10   78.40    4.00
  13   5  -9  470.90   10.70
  13   5  -8  175.90    5.90
  13   5  -7  133.80    5.30
  13   5  -6 1056.10   20.80
  13   5  -5  273.90    7.40
  13   5  -4 1494.20   26.80
  13   5  -3  126.00    4.80
  13   5  -2  925.30   19.10
  13   5  -1  186.80    6.20
  13   5   0  173.60    6.30
  13   5   1  369.90    9.80
  13   5   2   20.00    2.50
  13   5   3    8.40    2.50
  13   5   4    3.30    2.90
  13   5   5    5.20    3.60
  13   5   6  740.00   18.00
  13   5   7  331.70    9.50
  13   5   8  114.90    6.00
  13   5   9   -0.30    3.60
  13   5  10   63.80    4.20
  13   5  11   87.30    4.70
  13   5  12   61.90    4.20
  13   5  13   59.80    4.20
  13   5  14   12.80    3.10
  13   6 -21    4.60    6.50
  13   6 -20   10.80    4.30
  13   6 -19    0.40    3.70
  13   6 -18   13.50    3.80
  13   6 -17   40.40    4.50
  13   6 -16   16.70    4.00
  13   6 -15   26.40    4.70
  13   6 -14   15.20    3.20
  13   6 -13   14.90    3.70
  13   6 -12  363.90   10.30
  13   6 -11    9.20    3.30
  13   6 -10   13.50    4.10
  13   6  -9  199.70    6.60
  13   6  -8  385.00    9.20
  13   6  -7   25.60    3.40
  13   6  -6  139.10    5.80
  13   6  -5  144.30    5.50
  13   6  -4  439.20   10.70
  13   6  -3  220.20    6.90
  13   6  -2   19.00    3.20
  13   6  -1  308.20    8.70
  13   6   0  724.60   15.60
  13   6   1   11.10    3.00
  13   6   2   71.60    4.50
  13   6   3   17.40    4.10
  13   6   4    0.30    3.00
  13   6   5  458.40   17.50
  13   6   6   11.50    8.20
  13   6   7   32.60    7.50
  13   6   8  347.40   16.20
  13   6   9   31.00    6.90
  13   6  10   -0.80    6.10
  13   6  11    1.60    5.80
  13   6  12    1.90    5.30
  13   7 -18   33.30    4.50
  13   7 -17   36.30    4.20
  13   7 -16    2.80    4.30
  13   7 -15   26.60    4.00
  13   7 -14   39.80    4.00
  13   7 -13  101.80    5.20
  13   7 -12   21.10    4.00
  13   7 -11   95.90    5.10
  13   7 -10   10.00    3.60
  13   7  -9   52.80    5.10
  13   7  -8    5.60    3.60
  13   7  -7   39.90    3.90
  13   7  -6   86.80    5.00
  13   7  -5   61.00    4.20
  13   7  -4   -4.10    3.00
  13   7  -3   13.20    3.40
  13   7  -2   81.90    5.80
  13   7  -1    3.50    3.10
  13   7   0  100.00    5.40
  13   7   1   49.90    6.60
  13   7   2   56.50    7.10
  13   7   3  135.50    8.70
  13   7   4  625.60   23.80
  13   7   5  149.40    8.60
  13   7   6   57.90    9.10
  13   7   7  201.20   10.90
  13   7   8  124.30    9.10
  13   7   9    0.50    7.30
  13   8 -16   -1.30    4.00
  13   8 -15   37.80    7.70
  13   8 -14  212.40   10.10
  13   8 -13    4.80    5.70
  13   8 -12   52.90    4.80
  13   8 -11    2.80    3.70
  13   8 -10   13.60    4.20
  13   8  -9    3.20    4.00
  13   8  -8    8.60    4.10
  13   8  -7    5.80    4.30
  13   8  -6   89.20    4.70
  13   8  -5  113.70    9.90
  13   8  -4   76.40    8.40
  13   8  -3    0.10    8.00
  13   8  -2    3.90    5.30
  13   8  -1    7.70    5.50
  13   8   0    5.50    6.20
  13   8   1   91.70    8.60
  13   8   2  166.50    9.60
  13   8   3   89.90    9.50
  13   8   4   10.90    7.10
  13   8   5    7.20    5.80
  13   9  -2   16.50    6.10
  13   9  -1   72.20    9.50
  13   9   0   52.30    8.30
  13   9   1    9.70    7.10
  14   0 -26   74.00   12.40
  14   0 -25   -1.70    4.50
  14   0 -24   76.20    6.80
  14   0 -23   -6.20    5.00
  14   0 -22   35.10    7.20
  14   0 -21   -2.50    4.40
  14   0 -20  236.00   12.70
  14   0 -19   -8.30    7.10
  14   0 -18    6.10    5.20
  14   0 -17    1.00    6.20
  14   0 -16 1468.70   37.20
  14   0 -15   -1.00    5.20
  14   0 -14 1419.60   41.30
  14   0 -13    2.90    5.10
  14   0 -12 1777.80   62.30
  14   0 -11   -7.70    5.00
  14   0 -10 1922.20   51.30
  14   0  -9    2.40    4.20
  14   0  -8 1436.10   37.40
  14   0  -7    0.60    3.40
  14   0  -6 1516.90   40.00
  14   0  -5   -3.90    4.20
  14   0  -4  145.70    7.00
  14   0  -3   -5.80    3.80
  14   0  -2  379.20   12.90
  14   0  -1    2.00    4.30
  14   0   0  764.70   23.00
  14   0   1   -5.10    4.20
  14   0   2 1607.40   44.30
  14   0   3    3.20    3.70
  14   0   4  488.40   16.60
  14   0   5   -3.40    5.40
  14   0   6 1040.70   30.90
  14   0   7   -2.70    4.70
  14   0   8  514.50   17.70
  14   0   9    4.70    4.40
  14   0  10  149.20    9.90
  14   0  11  -14.90    5.20
  14   0  12  349.40   17.30
  14   0  13   -0.40    4.80
  14   0  14 1052.70   37.30
  14   0  15   -6.60    4.70
  14   0  16  259.40   15.50
  14   0  17   -5.00    6.30
  14   0  18  102.20    9.40
  14   0  19   -5.50    5.30
  14   0  20   38.50    6.20
  14   0  21   -3.40    4.90
  14   1 -26   30.30    5.40
  14   1 -25  237.80    8.40
  14   1 -24    5.40    4.00
  14   1 -23   29.80    4.40
  14   1 -22   33.50    4.60
  14   1 -21  245.10    9.50
  14   1 -20   44.10    4.50
  14   1 -19   38.60    5.50
  14   1 -18  530.60   15.10
  14   1 -17  234.00    7.70
  14   1 -16  450.20   11.60
  14   1 -15  622.80   15.60
  14   1 -14  796.80   16.00
  14   1 -13  210.10    6.60
  14   1 -12   19.80    3.60
  14   1 -11  414.40    9.70
  14   1 -10   22.40    3.30
  14   1  -9  379.40    9.80
  14   1  -8   11.20    3.30
  14   1  -7   68.10    4.50
  14   1  -6    1.30    2.90
  14   1  -5  284.50    8.70
  14   1  -4  520.00   11.70
  14   1  -3  738.30   18.00
  14   1  -2   27.80    2.70
  14   1  -1    2.10    2.60
  14   1   0   37.10    3.00
  14   1   1    3.90    2.80
  14   1   2  106.50    4.20
  14   1   3    2.10    2.50
  14   1   4 1913.20   35.20
  14   1   5  740.20   15.30
  14   1   6 2728.50   48.70
  14   1   7 2524.50   42.40
  14   1   8  520.80   12.00
  14   1   9  199.40    7.50
  14   1  10   55.70    5.00
  14   1  11  453.30   13.00
  14   1  12  590.20   16.40
  14   1  13    1.30    3.40
  14   1  14   54.40    6.20
  14   1  15   94.40    5.40
  14   1  16   -0.10    3.90
  14   1  17  272.70   10.80
  14   1  18    2.70    3.70
  14   1  19   17.50    3.90
  14   1  20    7.60    3.50
  14   1  21    4.40    6.50
  14   1  22  122.80   10.50
  14   2 -26   64.70    6.40
  14   2 -25   21.40    7.30
  14   2 -24   37.70    4.10
  14   2 -23    3.90    4.40
  14   2 -22    6.10    4.10
  14   2 -21   15.20    4.20
  14   2 -20  147.40    6.50
  14   2 -19   18.00    4.20
  14   2 -18   30.10    4.40
  14   2 -17  615.10   15.20
  14   2 -16  654.10   14.60
  14   2 -15   77.10    4.50
  14   2 -14  557.00   13.30
  14   2 -13    5.50    3.30
  14   2 -12  795.70   15.80
  14   2 -11  171.10    5.30
  14   2 -10  131.90    5.50
  14   2  -9  100.50    4.10
  14   2  -8    5.90    3.00
  14   2  -7 1963.80   35.80
  14   2  -6 1136.40   21.90
  14   2  -5 1697.40   31.50
  14   2  -4  962.30   20.90
  14   2  -3  575.10   12.40
  14   2  -2  776.90   17.50
  14   2  -1  426.80   12.10
  14   2   0  263.10    9.90
  14   2   1  116.60    5.60
  14   2   2   65.50    3.50
  14   2   3   16.40    3.00
  14   2   4 2201.50   50.40
  14   2   5   32.00    3.40
  14   2   6  429.80   10.50
  14   2   7   36.70    3.80
  14   2   8   36.70    3.50
  14   2   9  389.60   11.50
  14   2  10  274.00    8.50
  14   2  11    6.00    4.30
  14   2  12  127.80    6.50
  14   2  13  109.50    6.00
  14   2  14   36.10    4.20
  14   2  15  125.50    6.30
  14   2  16   17.50    3.80
  14   2  17   84.50    5.10
  14   2  18   31.10    4.60
  14   2  19   -1.30    4.80
  14   2  20   16.10    5.50
  14   2  21  260.20   11.50
  14   3 -26   19.70    5.80
  14   3 -25   29.30    7.50
  14   3 -24   46.70    5.80
  14   3 -23   33.60    4.50
  14   3 -22    7.30    3.90
  14   3 -21    6.30    3.80
  14   3 -20  108.50    5.90
  14   3 -19  604.40   15.10
  14   3 -18  503.30   13.00
  14   3 -17   12.10    4.00
  14   3 -16  111.50    5.00
  14   3 -15   68.20    4.60
  14   3 -14  297.70    7.80
  14   3 -13  479.90   11.60
  14   3 -12   -1.00    3.20
  14   3 -11   29.10    3.40
  14   3 -10   93.30    4.70
  14   3  -9   96.10    4.40
  14   3  -8  349.80    8.10
  14   3  -7  617.80   13.10
  14   3  -6   32.10    3.10
  14   3  -5 1013.90   19.30
  14   3  -4   80.50    3.90
  14   3  -3  183.40    5.80
  14   3  -2  343.70   11.40
  14   3  -1    2.30    2.30
  14   3   0  289.90    8.20
  14   3   1    0.50    2.30
  14   3   2  247.00    9.50
  14   3   3   13.40    2.70
  14   3   4   35.60    3.10
  14   3   5   86.50    4.90
  14   3   6  594.60   14.40
  14   3   7 3289.00   66.40
  14   3   8 1008.40   24.50
  14   3   9  433.00   13.60
  14   3  10   10.30    4.70
  14   3  11   10.30    3.80
  14   3  12  219.50    8.60
  14   3  13   80.60    5.60
  14   3  14  485.00   13.00
  14   3  15   10.30    4.60
  14   3  16   90.50    5.30
  14   3  17   47.90    4.50
  14   3  18    8.60    4.90
  14   3  19    6.10    4.60
  14   4 -25    3.30    8.30
  14   4 -24    7.70    4.40
  14   4 -23    5.80    9.00
  14   4 -22    5.20    3.50
  14   4 -21   29.60    4.80
  14   4 -20   22.40    4.30
  14   4 -19  197.40    7.10
  14   4 -18    1.80    4.20
  14   4 -17  839.50   17.40
  14   4 -16   79.20    5.50
  14   4 -15   24.10    3.70
  14   4 -14   36.20    3.90
  14   4 -13   41.30    4.00
  14   4 -12   84.40    4.30
  14   4 -11    7.50    3.30
  14   4 -10    3.50    3.10
  14   4  -9  162.30    5.60
  14   4  -8   26.80    3.40
  14   4  -7  531.40   11.70
  14   4  -6 1940.70   35.30
  14   4  -5  878.70   18.80
  14   4  -4 3150.10   52.30
  14   4  -3    5.40    2.90
  14   4  -2  803.50   16.40
  14   4  -1   12.00    3.30
  14   4   0  542.60   13.30
  14   4   1   80.90    3.80
  14   4   2  204.10    6.40
  14   4   3  826.40   17.40
  14   4   4   36.40    2.90
  14   4   5  465.90   11.80
  14   4   6    2.20    3.30
  14   4   7  144.70    6.90
  14   4   8   18.80    3.50
  14   4   9    7.60    3.40
  14   4  10   20.00    4.40
  14   4  11  124.70    6.20
  14   4  12  923.20   26.80
  14   4  13   14.00    4.90
  14   4  14    5.80    3.60
  14   4  15  236.50    9.10
  14   4  16 1116.80   29.70
  14   4  17    9.70    6.40
  14   5 -22    7.60    4.80
  14   5 -21    5.00    4.80
  14   5 -20  165.70    6.10
  14   5 -19    8.90    3.60
  14   5 -18    4.10    3.50
  14   5 -17   18.20    4.00
  14   5 -16   17.30    4.10
  14   5 -15   12.70    3.50
  14   5 -14   22.10    3.70
  14   5 -13  131.00    5.90
  14   5 -12   43.00    4.00
  14   5 -11   13.60    4.00
  14   5 -10  384.60    9.40
  14   5  -9  236.90    7.30
  14   5  -8  242.10    7.30
  14   5  -7   12.30    3.20
  14   5  -6   35.70    4.10
  14   5  -5   44.90    3.60
  14   5  -4 2146.00   38.80
  14   5  -3   13.90    2.80
  14   5  -2    6.00    2.80
  14   5  -1    3.40    2.90
  14   5   0  644.60   15.40
  14   5   1  131.90    5.40
  14   5   2  444.80   10.60
  14   5   3   11.80    3.10
  14   5   4    3.00    3.30
  14   5   5   64.70    5.60
  14   5   6  171.20    6.90
  14   5   7  771.50   19.40
  14   5   8  125.60    5.90
  14   5   9    3.00    3.90
  14   5  10  125.50    6.40
  14   5  11    1.70    3.20
  14   5  12   90.80    5.00
  14   5  13   23.20    3.50
  14   6 -21    7.80    5.60
  14   6 -20   14.50    4.50
  14   6 -19   74.50    5.20
  14   6 -18   13.10    3.80
  14   6 -17   -3.70    3.70
  14   6 -16   20.80    4.40
  14   6 -15  196.20    7.30
  14   6 -14    5.60    3.40
  14   6 -13   -1.40    3.70
  14   6 -12  131.70    6.20
  14   6 -11   93.10    5.30
  14   6 -10    6.70    3.40
  14   6  -9   61.30    4.50
  14   6  -8   20.10    3.50
  14   6  -7  509.10   12.10
  14   6  -6   55.80    4.20
  14   6  -5  479.30   11.90
  14   6  -4  387.50    9.90
  14   6  -3    4.40    3.20
  14   6  -2   -0.80    2.60
  14   6  -1   -3.20    2.70
  14   6   0   91.70    5.00
  14   6   1   60.10    4.10
  14   6   2   17.60    3.40
  14   6   3   43.20    3.70
  14   6   4   97.50    5.50
  14   6   5  380.40   14.70
  14   6   6  269.20   13.80
  14   6   7   21.40    8.10
  14   6   8    5.90    5.70
  14   6   9  230.90   11.50
  14   6  10  140.10    8.90
  14   7 -18   16.60    5.30
  14   7 -17    1.40    4.30
  14   7 -16   82.70    5.30
  14   7 -15  189.40    6.30
  14   7 -14   10.70    4.10
  14   7 -13    3.30    3.70
  14   7 -12   88.40    4.90
  14   7 -11   33.50    4.70
  14   7 -10   17.70    4.30
  14   7  -9    5.30    3.20
  14   7  -8  255.60    6.90
  14   7  -7   -3.60    3.40
  14   7  -6   66.00    4.60
  14   7  -5  282.20    9.80
  14   7  -4   -0.30    3.30
  14   7  -3   17.20    3.40
  14   7  -2    0.90    3.70
  14   7  -1    2.70    3.50
  14   7   0    2.90    3.00
  14   7   1   21.30    6.10
  14   7   2  477.80   19.10
  14   7   3    5.60    5.50
  14   7   4  135.00    8.40
  14   7   5   15.50    6.20
  14   7   6    8.10    8.20
  14   7   7  120.70    8.20
  14   8 -12    6.80    8.50
  14   8 -11    6.80    4.40
  14   8 -10  209.80   11.50
  14   8  -9   17.40   10.30
  14   8  -8    6.80    4.10
  14   8  -7   39.50    5.50
  14   8  -6   10.70    6.00
  14   8  -5   17.00    8.60
  14   8  -4    2.00    6.30
  14   8  -3   23.80    6.20
  14   8  -2   -5.00    7.60
  14   8  -1    3.60    8.20
  14   8   0    7.60    8.40
  14   8   1   19.40    5.70
  14   8   2   -3.20    5.50
  14   8   3    5.60    5.70
  15   0 -25   85.60    6.70
  15   0 -24   -7.40    7.40
  15   0 -23  202.10   10.60
  15   0 -22   -3.90    4.80
  15   0 -21  166.20    8.60
  15   0 -20   -6.60    6.70
  15   0 -19 3388.00   87.10
  15   0 -18    8.10    6.80
  15   0 -17 1310.30   35.10
  15   0 -16   -1.30    6.10
  15   0 -15  232.20   10.90
  15   0 -14   -3.50    6.00
  15   0 -13  260.60   13.50
  15   0 -12    2.70    5.60
  15   0 -11   19.40    5.40
  15   0 -10   11.50    4.40
  15   0  -9 1265.60   33.90
  15   0  -8    2.10    4.20
  15   0  -7 1376.60   36.70
  15   0  -6   -3.00    3.50
  15   0  -5 1672.20   46.40
  15   0  -4    3.30    4.30
  15   0  -3   44.20    4.40
  15   0  -2   -1.80    4.40
  15   0  -1 3168.20   81.40
  15   0   0   -1.60    4.00
  15   0   1   10.10    4.80
  15   0   2    5.50    4.30
  15   0   3 1086.70   29.20
  15   0   4   -2.10    4.00
  15   0   5 5559.80  127.30
  15   0   6   10.90    5.20
  15   0   7   55.20    5.80
  15   0   8   -1.50    4.70
  15   0   9  315.80   14.10
  15   0  10   -2.30    7.00
  15   0  11   74.10    7.30
  15   0  12   -5.50    4.60
  15   0  13  207.00   11.80
  15   0  14    8.40    5.10
  15   0  15   31.10    6.10
  15   0  16   -1.40    7.20
  15   0  17   26.60    7.00
  15   0  18    2.80    4.60
  15   0  19   10.90    4.10
  15   0  20   -6.70    9.50
  15   1 -25   68.20    6.10
  15   1 -24   31.60    4.10
  15   1 -23   -0.30    3.60
  15   1 -22  475.70   11.20
  15   1 -21   15.90    4.30
  15   1 -20   27.50    5.00
  15   1 -19   36.90    4.30
  15   1 -18  475.20   13.10
  15   1 -17    5.70    3.60
  15   1 -16  356.40    9.30
  15   1 -15 1234.80   23.30
  15   1 -14  282.60    8.80
  15   1 -13  512.70   12.70
  15   1 -12   40.00    3.90
  15   1 -11  709.90   14.90
  15   1 -10  729.20   14.50
  15   1  -9  277.90    7.20
  15   1  -8  503.90   12.80
  15   1  -7  201.90    7.20
  15   1  -6  177.60    6.10
  15   1  -5  518.80   11.50
  15   1  -4  159.10    5.10
  15   1  -3  400.30   10.10
  15   1  -2   56.00    3.80
  15   1  -1   14.70    2.60
  15   1   0 1397.90   27.80
  15   1   1   82.40    4.20
  15   1   2  374.90    9.00
  15   1   3 1409.00   29.50
  15   1   4  335.60    8.70
  15   1   5  840.20   17.90
  15   1   6  167.70    5.20
  15   1   7   89.90    4.50
  15   1   8   98.80    4.90
  15   1   9   19.60    4.10
  15   1  10  109.90    6.10
  15   1  11  255.60   10.40
  15   1  12  230.20    9.80
  15   1  13  139.10    7.10
  15   1  14    8.70    4.10
  15   1  15    2.90    4.60
  15   1  16   78.20    5.30
  15   1  17   11.60    4.10
  15   1  18   26.10    5.10
  15   1  19    1.20    4.60
  15   2 -25   18.20    5.70
  15   2 -24   11.10    4.20
  15   2 -23   86.30    5.00
  15   2 -22   -0.90    3.50
  15   2 -21   56.80    5.50
  15   2 -20   27.50    4.70
  15   2 -19    4.30    3.60
  15   2 -18  384.20   12.00
  15   2 -17   17.10    4.30
  15   2 -16  265.10    8.20
  15   2 -15   55.80    4.10
  15   2 -14  147.90    5.90
  15   2 -13   62.40    4.70
  15   2 -12  938.50   19.90
  15   2 -11  645.70   14.50
  15   2 -10   48.90    4.70
  15   2  -9   27.50    3.70
  15   2  -8  174.50    5.60
  15   2  -7 1077.60   20.30
  15   2  -6 1201.80   22.40
  15   2  -5   10.00    3.30
  15   2  -4    3.90    3.20
  15   2  -3  138.00    5.20
  15   2  -2  535.40   14.50
  15   2  -1  496.60   13.80
  15   2   0  781.90   20.30
  15   2   1   27.90    3.30
  15   2   2  203.40    6.60
  15   2   3  301.50    7.30
  15   2   4   12.80    2.90
  15   2   5  279.90    7.80
  15   2   6 3529.80   59.70
  15   2   7  889.60   18.90
  15   2   8  158.80    6.80
  15   2   9   22.90    4.50
  15   2  10  185.70    8.20
  15   2  11   -4.00    4.70
  15   2  12   36.30    4.60
  15   2  13   10.60    4.10
  15   2  14   -3.70    4.00
  15   2  15   -0.60    3.50
  15   2  16    5.60    3.30
  15   2  17   30.80    5.10
  15   2  18   36.60    6.20
  15   2  19    1.10    4.70
  15   2  20   21.40    7.60
  15   3 -25   89.30    6.40
  15   3 -24   -1.60    6.50
  15   3 -23    2.80    4.10
  15   3 -22   30.80    4.20
  15   3 -21   23.30    4.70
  15   3 -20   21.70    4.20
  15   3 -19   28.40    4.20
  15   3 -18   19.60    4.00
  15   3 -17   -0.40    3.50
  15   3 -16   60.20    4.50
  15   3 -15  126.70    5.30
  15   3 -14 1002.70   19.60
  15   3 -13    2.80    3.20
  15   3 -12  521.80   13.00
  15   3 -11   11.60    3.50
  15   3 -10  477.30   11.20
  15   3  -9  111.10    4.70
  15   3  -8  367.80    9.30
  15   3  -7   10.80    3.00
  15   3  -6   34.40    3.40
  15   3  -5 1587.20   29.40
  15   3  -4   13.50    3.40
  15   3  -3  580.50   12.60
  15   3  -2   10.90    2.70
  15   3  -1   -0.50    2.80
  15   3   0   87.00    4.50
  15   3   1  346.30    8.50
  15   3   2  182.50    7.00
  15   3   3  134.30    5.70
  15   3   4   -4.20    2.90
  15   3   5  867.80   22.00
  15   3   6  427.80   12.30
  15   3   7  622.20   15.00
  15   3   8   12.30    4.10
  15   3   9  432.60   13.70
  15   3  10   -7.80    4.40
  15   3  11   25.50    3.90
  15   3  12   27.50    3.80
  15   3  13   -3.40    3.90
  15   3  14    7.30    4.20
  15   3  15   68.30    5.50
  15   3  16   55.10    7.80
  15   3  17   43.50    6.00
  15   3  18   11.40    6.10
  15   4 -23   18.30    5.70
  15   4 -22   -2.70    5.60
  15   4 -21   45.00    4.30
  15   4 -20  301.80    8.30
  15   4 -19   17.80    4.60
  15   4 -18  108.10    5.10
  15   4 -17   78.10    5.10
  15   4 -16  344.20    8.50
  15   4 -15   75.50    4.80
  15   4 -14  134.70    5.90
  15   4 -13  198.80    7.30
  15   4 -12   48.00    4.00
  15   4 -11  313.40    8.90
  15   4 -10   -1.00    3.30
  15   4  -9   37.20    3.70
  15   4  -8   54.00    4.30
  15   4  -7  905.80   17.20
  15   4  -6   21.50    3.50
  15   4  -5  411.40    9.90
  15   4  -4  286.80    8.10
  15   4  -3  168.70    6.10
  15   4  -2   -3.40    3.00
  15   4  -1   17.50    3.00
  15   4   0   60.60    3.90
  15   4   1   -9.10    3.20
  15   4   2  763.60   16.20
  15   4   3  237.80    7.50
  15   4   4  132.60    5.00
  15   4   5  357.20    9.20
  15   4   6   -2.80    3.40
  15   4   7  482.40   13.70
  15   4   8   32.90    4.40
  15   4   9  108.00    6.20
  15   4  10   87.80    5.50
  15   4  11  253.20   11.60
  15   4  12   51.10    7.00
  15   4  13   12.60    4.90
  15   4  14  221.20    8.00
  15   4  15  206.70   10.80
  15   5 -21    0.60    4.30
  15   5 -20   -1.70    4.10
  15   5 -19   19.90    4.20
  15   5 -18  215.30    7.60
  15   5 -17    6.90    3.70
  15   5 -16    0.90    3.80
  15   5 -15   42.50    4.70
  15   5 -14  169.40    7.10
  15   5 -13  128.80    5.40
  15   5 -12  116.80    4.90
  15   5 -11   25.70    3.60
  15   5 -10   31.10    3.80
  15   5  -9  475.10   10.80
  15   5  -8  162.00    5.70
  15   5  -7  250.60    6.90
  15   5  -6  391.00    9.70
  15   5  -5  378.50    9.90
  15   5  -4  115.00    5.10
  15   5  -3  331.50    9.40
  15   5  -2  167.80    6.40
  15   5  -1   26.80    3.80
  15   5   0    9.80    3.70
  15   5   1    0.70    3.30
  15   5   2   73.60    3.90
  15   5   3    1.20    2.60
  15   5   4   51.90    3.70
  15   5   5  140.80    5.80
  15   5   6  224.70    8.20
  15   5   7  314.60    9.90
  15   5   8    9.30    3.50
  15   5   9    4.30    3.40
  15   5  10   10.00    3.60
  15   5  11  270.60    8.40
  15   5  12    5.70    3.60
  15   6 -21    6.20    6.80
  15   6 -20    1.00    8.20
  15   6 -19   20.10    4.80
  15   6 -18   76.00    5.60
  15   6 -17  158.30    5.80
  15   6 -16    7.20    2.90
  15   6 -15    9.50    3.80
  15   6 -14    7.00    3.90
  15   6 -13    7.10    4.00
  15   6 -12  155.20    6.30
  15   6 -11   10.30    4.50
  15   6 -10  244.90    7.70
  15   6  -9  162.90    6.40
  15   6  -8   49.00    3.80
  15   6  -7  120.40    5.50
  15   6  -6   62.90    4.60
  15   6  -5    0.00    3.40
  15   6  -4  309.40    8.90
  15   6  -3  144.20    5.30
  15   6  -2   15.70    3.30
  15   6  -1   79.70    4.90
  15   6   0  110.80    4.60
  15   6   1    0.70    2.90
  15   6   2  262.30    7.30
  15   6   3    1.00    3.60
  15   6   4  220.20    7.90
  15   6   5   21.80    3.40
  15   6   6   63.90    4.90
  15   6   7   41.00    6.00
  15   6   8   36.40    6.20
  15   6   9   46.50    8.70
  15   7 -17    3.90    4.20
  15   7 -16   13.80    3.60
  15   7 -15    5.20    3.30
  15   7 -14    7.90    3.30
  15   7 -13   11.40    4.30
  15   7 -12   47.70    5.20
  15   7 -11   -5.60    4.10
  15   7 -10   13.80    4.50
  15   7  -9    0.20    3.10
  15   7  -8   27.30    3.90
  15   7  -7   53.10    4.70
  15   7  -6  152.70    6.40
  15   7  -5   74.70    5.00
  15   7  -4    9.50    3.20
  15   7  -3    9.90    3.50
  15   7  -2   31.70    2.90
  15   7  -1   52.90    5.40
  15   7   0  116.90    5.70
  15   7   1   -1.90    5.40
  15   7   2   23.00    8.10
  15   7   3    9.00    5.90
  15   7   4   39.50    5.60
  15   7   5   11.40    5.80
  15   8 -11    3.20    6.00
  15   8 -10    1.10    4.50
  15   8  -9  102.60   10.60
  15   8  -8   55.80    4.80
  15   8  -7   10.40    6.50
  15   8  -6    6.00    5.20
  15   8  -5    0.40    4.30
  15   8  -4  168.50   10.10
  15   8  -3   33.90    9.30
  15   8  -2   19.60    5.70
  15   8   0   14.40    6.20
  15   8   1   -3.10    5.00
  16   0 -24  291.70    9.20
  16   0 -23   -2.20    4.80
  16   0 -22   20.20    5.90
  16   0 -21   -1.70    7.90
  16   0 -20  250.60   11.60
  16   0 -19    1.60    5.10
  16   0 -18   16.10    5.90
  16   0 -17    2.20    5.40
  16   0 -16  259.90   12.30
  16   0 -15  -11.60    6.90
  16   0 -14  733.40   31.30
  16   0 -13   -3.00    5.50
  16   0 -12  467.10   17.30
  16   0 -11   -7.50    4.60
  16   0 -10   48.40    5.60
  16   0  -9   -2.40    4.80
  16   0  -8  260.80    9.10
  16   0  -7    6.70    5.80
  16   0  -6  115.50    6.30
  16   0  -5    3.00    3.90
  16   0  -4 4056.60  100.70
  16   0  -3    9.00    3.90
  16   0  -2 1108.80   31.40
  16   0  -1   11.40    5.20
  16   0   0  645.40   20.20
  16   0   1    5.00    5.40
  16   0   2  875.40   26.50
  16   0   3   -3.90    4.20
  16   0   4 1532.90   41.40
  16   0   5   -4.80    4.40
  16   0   6   35.40    5.60
  16   0   7   -2.10    4.60
  16   0   8   73.60    6.70
  16   0   9    9.20    7.40
  16   0  10   61.20    7.10
  16   0  11    0.70    5.20
  16   0  12  258.20   13.60
  16   0  13    2.60    5.00
  16   0  14   42.00    9.00
  16   0  15   -8.20    5.60
  16   0  16  676.60   17.30
  16   0  17   -0.10    7.60
  16   1 -24    0.40    7.70
  16   1 -23   24.70    4.30
  16   1 -22    3.70    3.60
  16   1 -21  175.30    7.70
  16   1 -20   92.90    5.80
  16   1 -19  112.00    6.00
  16   1 -18  165.90    6.40
  16   1 -17   32.60    3.90
  16   1 -16    2.40    3.70
  16   1 -15   78.30    5.30
  16   1 -14   28.20    3.90
  16   1 -13  133.70    5.40
  16   1 -12  251.90    8.00
  16   1 -11   66.50    4.10
  16   1 -10   -0.80    3.30
  16   1  -9  424.10   11.70
  16   1  -8 1325.90   28.70
  16   1  -7  498.60   12.40
  16   1  -6 2438.00   41.70
  16   1  -5 1139.10   20.80
  16   1  -4  423.70   10.60
  16   1  -3  170.40    5.40
  16   1  -2  627.50   14.00
  16   1  -1  223.20    7.00
  16   1   0   99.60    4.70
  16   1   1 1365.30   26.20
  16   1   2  255.90    7.20
  16   1   3 4842.60   80.10
  16   1   4    3.70    3.10
  16   1   5    6.20    3.30
  16   1   6   63.10    3.70
  16   1   7   89.40    5.00
  16   1   8  291.90    8.80
  16   1   9    1.90    4.40
  16   1  10    8.50    3.80
  16   1  11  173.80    7.80
  16   1  12  142.40    7.00
  16   1  13   20.20    4.10
  16   1  14   19.80    5.50
  16   1  15   95.00    6.00
  16   1  16    4.50    4.30
  16   1  17   -5.10    4.50
  16   1  18  109.90    7.70
  16   1  19   -4.90    5.10
  16   1  20   13.10    5.00
  16   2 -24   37.10    6.00
  16   2 -23   95.80    5.00
  16   2 -22   29.30    4.50
  16   2 -21   10.10    4.30
  16   2 -20  109.60    5.80
  16   2 -19   53.40    5.80
  16   2 -18   20.80    3.70
  16   2 -17   71.90    4.60
  16   2 -16   39.60    3.90
  16   2 -15    1.10    3.80
  16   2 -14   17.60    3.80
  16   2 -13   29.40    4.70
  16   2 -12   85.10    4.50
  16   2 -11  134.80    5.20
  16   2 -10 1070.70   20.60
  16   2  -9  294.00    7.90
  16   2  -8  214.90    7.10
  16   2  -7   17.50    3.20
  16   2  -6  175.60    5.20
  16   2  -5  185.80    6.00
  16   2  -4  162.30    5.40
  16   2  -3  150.90    6.00
  16   2  -2   78.70    4.80
  16   2  -1   -7.10    3.90
  16   2   0   68.40    3.90
  16   2   1  554.20   13.90
  16   2   2   80.70    4.10
  16   2   3   47.90    3.90
  16   2   4 1703.20   32.30
  16   2   5 1567.20   30.30
  16   2   6  386.20   10.30
  16   2   7    5.70    3.30
  16   2   8    0.60    3.70
  16   2   9   21.70    4.30
  16   2  10    8.50    4.10
  16   2  11    1.90    3.70
  16   2  12   27.50    4.60
  16   2  13   11.90    4.60
  16   2  14   73.50    5.50
  16   2  15    8.40    4.70
  16   2  16    3.30    3.80
  16   2  17   19.90    5.30
  16   2  18   33.70   12.30
  16   3 -24   46.90    5.70
  16   3 -23   19.80    8.00
  16   3 -22   30.40    4.80
  16   3 -21  144.30    5.90
  16   3 -20   95.70    5.30
  16   3 -19    0.20    3.40
  16   3 -18   11.00    3.80
  16   3 -17   48.30    4.60
  16   3 -16   50.60    4.30
  16   3 -15   25.30    3.80
  16   3 -14  240.30    7.60
  16   3 -13    0.10    4.00
  16   3 -12   69.60    4.40
  16   3 -11  153.40    5.90
  16   3 -10   12.00    3.60
  16   3  -9  959.70   19.00
  16   3  -8  433.90   10.80
  16   3  -7 3052.40   51.80
  16   3  -6  874.60   18.40
  16   3  -5 1341.90   26.20
  16   3  -4   19.50    3.50
  16   3  -3    9.10    3.00
  16   3  -2  115.90    5.10
  16   3  -1    7.50    3.50
  16   3   0  263.80    7.90
  16   3   1  456.80   10.90
  16   3   2  120.80    5.10
  16   3   3  444.00   12.10
  16   3   4  774.10   17.90
  16   3   5    0.50    4.00
  16   3   6   65.90    4.90
  16   3   7   82.00    5.10
  16   3   8   -0.10    4.10
  16   3   9    8.30    5.20
  16   3  10   83.80    6.00
  16   3  11    8.70    3.60
  16   3  12  190.10    7.60
  16   3  13  303.50    9.10
  16   3  14   74.90    5.50
  16   3  15   76.60    8.20
  16   3  16   89.50    7.00
  16   3  17  214.20   10.50
  16   4 -22   -1.90    7.50
  16   4 -21   12.90    4.50
  16   4 -20   99.40    5.10
  16   4 -19    0.00    4.00
  16   4 -18   53.40    4.60
  16   4 -17    3.00    3.90
  16   4 -16   79.20    5.00
  16   4 -15   -0.10    3.20
  16   4 -14  153.00    6.60
  16   4 -13   60.90    4.70
  16   4 -12  261.90    7.50
  16   4 -11   69.50    4.60
  16   4 -10   44.40    3.60
  16   4  -9    3.50    3.40
  16   4  -8   68.20    3.90
  16   4  -7  598.40   13.50
  16   4  -6  124.20    4.80
  16   4  -5  144.90    5.20
  16   4  -4   77.40    4.80
  16   4  -3    3.30    3.80
  16   4  -2   89.50    4.30
  16   4  -1    1.60    3.20
  16   4   0  124.20    5.50
  16   4   1   44.70    4.10
  16   4   2  319.60    8.20
  16   4   3   90.90    4.60
  16   4   4 1473.90   25.80
  16   4   5  343.10    8.80
  16   4   6  243.80    8.70
  16   4   7    1.50    3.70
  16   4   8   89.20    5.80
  16   4   9   73.40    4.60
  16   4  10    6.10    4.40
  16   4  11   65.60    6.40
  16   4  12   66.90    5.20
  16   4  13   34.60    7.50
  16   5 -21    9.20    5.20
  16   5 -20    2.90    4.70
  16   5 -19  115.80    5.30
  16   5 -18   87.10    5.10
  16   5 -17   40.60    4.90
  16   5 -16   19.90    5.60
  16   5 -15    3.90    3.30
  16   5 -14   -2.40    3.70
  16   5 -13   60.40    4.30
  16   5 -12  240.40    7.90
  16   5 -11   47.50    4.50
  16   5 -10  349.70   10.00
  16   5  -9  213.20    6.70
  16   5  -8   79.30    4.40
  16   5  -7   29.90    3.90
  16   5  -6   22.70    3.80
  16   5  -5  437.20   11.00
  16   5  -4   88.60    5.00
  16   5  -3  149.40    5.70
  16   5  -2   17.70    3.70
  16   5  -1  148.80    6.10
  16   5   0   49.60    4.20
  16   5   1   32.50    3.60
  16   5   2  754.80   15.90
  16   5   3  128.20    5.10
  16   5   4  132.70    5.60
  16   5   5   27.00    4.40
  16   5   6  261.40    8.40
  16   5   7   54.70    4.50
  16   5   8  162.10    5.30
  16   5   9   -5.20    3.30
  16   5  10   -1.30    3.20
  16   5  11    7.20    5.20
  16   6 -20   41.70    9.10
  16   6 -19   15.80    5.80
  16   6 -18   13.10    3.60
  16   6 -17   36.30    4.90
  16   6 -16   27.30    4.00
  16   6 -15   30.50    4.80
  16   6 -14   12.30    4.20
  16   6 -13    9.30    4.10
  16   6 -12   13.20    3.40
  16   6 -11  203.30    6.50
  16   6 -10   35.50    4.30
  16   6  -9    3.60    4.40
  16   6  -8    5.70    3.50
  16   6  -7  351.80    9.50
  16   6  -6  640.60   13.80
  16   6  -5   92.90    4.60
  16   6  -4  142.10    5.70
  16   6  -3   23.60    3.60
  16   6  -2   19.10    4.20
  16   6  -1   11.60    4.10
  16   6   0   80.50    4.40
  16   6   1   48.10    3.80
  16   6   2   76.40    5.10
  16   6   3    5.90    3.50
  16   6   4  106.60    5.40
  16   6   5    6.90    3.70
  16   6   6    5.60    4.30
  16   6   7    9.50    5.70
  16   7 -17    9.40    7.60
  16   7 -16   63.30    5.70
  16   7 -15   -0.10    3.70
  16   7 -14    2.10    4.60
  16   7 -13    7.60    4.40
  16   7 -12   53.10    4.30
  16   7 -11    5.40    3.50
  16   7 -10   50.80    5.00
  16   7  -9   33.90    4.60
  16   7  -8  181.20    6.10
  16   7  -7  188.20    7.40
  16   7  -6   -2.90    3.50
  16   7  -5   12.40    4.00
  16   7  -4  108.60    4.80
  16   7  -3   62.30    5.40
  16   7  -2    8.00    3.30
  16   7  -1   84.00    8.90
  16   7   0  102.00    9.20
  16   7   1  130.10    9.20
  16   7   2   32.70    8.40
  16   7   3   76.90    9.80
  16   8 -10    1.90    4.60
  16   8  -9   15.60    5.40
  16   8  -8   -1.60    3.60
  16   8  -7   17.40   11.70
  16   8  -6  346.60   15.00
  16   8  -4   47.20    7.20
  16   8  -3   34.80    7.30
  17   0 -23   17.60    6.20
  17   0 -22   -3.50    5.70
  17   0 -21  286.40   11.10
  17   0 -20   -3.20    4.90
  17   0 -19    1.40    7.50
  17   0 -18    5.80    6.00
  17   0 -17  108.70    7.70
  17   0 -16   14.80    6.90
  17   0 -15 2633.40   91.10
  17   0 -14   -2.40    7.20
  17   0 -13    5.00    6.80
  17   0 -12    5.40    5.70
  17   0 -11  548.30   16.80
  17   0 -10    2.50    6.50
  17   0  -9 5587.10  132.80
  17   0  -8  -11.50    5.50
  17   0  -7 1722.00   43.30
  17   0  -6   -1.90    5.40
  17   0  -5  121.00    7.30
  17   0  -4   -4.90    4.60
  17   0  -3  524.60   16.70
  17   0  -2   -0.20    6.00
  17   0  -1  279.30   10.50
  17   0   0    3.20    5.20
  17   0   1 1295.30   35.20
  17   0   2   -2.30    5.00
  17   0   3 3428.20   86.40
  17   0   4   -6.50    5.80
  17   0   5   78.30    6.30
  17   0   6    5.10    4.50
  17   0   7  382.20   15.50
  17   0   8   -1.90    4.10
  17   0   9   76.20    8.00
  17   0  10   -6.90    5.60
  17   0  11  360.70   16.40
  17   0  12    4.80    5.50
  17   0  13  148.40   11.40
  17   0  14    0.90    5.30
  17   0  15   -8.00    8.10
  17   0  16    7.40    5.50
  17   0  17   77.90    7.70
  17   1 -23   -2.00    4.50
  17   1 -22   -5.90    3.70
  17   1 -21   27.00    4.70
  17   1 -20    5.30    4.60
  17   1 -19    3.00    4.00
  17   1 -18  353.50    9.90
  17   1 -17  147.70    6.50
  17   1 -16  325.90    9.10
  17   1 -15  253.10    7.50
  17   1 -14  481.70   11.80
  17   1 -13   83.40    5.00
  17   1 -12   86.30    5.00
  17   1 -11   12.70    3.30
  17   1 -10 1579.80   35.10
  17   1  -9  419.50   11.80
  17   1  -8  276.30    8.50
  17   1  -7  440.90   10.00
  17   1  -6  817.10   16.50
  17   1  -5  558.70   12.10
  17   1  -4  366.30   10.00
  17   1  -3   40.10    3.80
  17   1  -2  133.80    5.20
  17   1  -1  285.10    7.90
  17   1   0 1342.10   26.80
  17   1   1    8.30    3.20
  17   1   2 1447.70   27.20
  17   1   3  938.90   19.40
  17   1   4  105.70    4.80
  17   1   5  426.00   10.60
  17   1   6   72.80    4.60
  17   1   7   64.50    4.20
  17   1   8  127.30    6.00
  17   1   9   10.30    4.20
  17   1  10  124.50    6.00
  17   1  11    6.90    4.90
  17   1  12   46.20    5.60
  17   1  13    3.50    3.90
  17   1  14  176.30    6.80
  17   1  15   38.30    5.10
  17   1  16    4.50    3.90
  17   1  17   30.30    5.90
  17   1  18    8.10    7.30
  17   2 -23    8.70    5.60
  17   2 -22    6.70    3.50
  17   2 -21   37.80    4.00
  17   2 -20   -9.20    3.80
  17   2 -19    0.70    3.50
  17   2 -18   -4.00    3.70
  17   2 -17   22.00    3.70
  17   2 -16   49.70    4.70
  17   2 -15  143.30    5.80
  17   2 -14   10.30    3.60
  17   2 -13   23.40    4.00
  17   2 -12   15.00    4.20
  17   2 -11   20.20    4.00
  17   2 -10  340.00    9.20
  17   2  -9  250.70    7.20
  17   2  -8 1241.30   23.60
  17   2  -7   41.80    4.00
  17   2  -6  672.00   14.80
  17   2  -5   49.20    3.80
  17   2  -4  317.80   10.20
  17   2  -3   13.80    3.40
  17   2  -2  187.80    6.70
  17   2  -1   31.20    3.10
  17   2   0   10.90    3.60
  17   2   1   93.00    4.80
  17   2   2   74.00    4.70
  17   2   3  183.80    6.20
  17   2   4  745.20   16.70
  17   2   5   -0.50    3.20
  17   2   6  578.60   13.60
  17   2   7   71.10    5.40
  17   2   8  111.10    6.50
  17   2   9    4.30    4.20
  17   2  10   -2.60    3.90
  17   2  11   11.20    4.40
  17   2  12   29.10    4.70
  17   2  13   -3.30    4.30
  17   2  14  117.00    5.30
  17   2  15  136.50    9.10
  17   2  16   28.00    8.40
  17   2  17   -2.20    4.50
  17   2  18   67.80    8.90
  17   3 -22    7.00    4.60
  17   3 -21   22.20    3.90
  17   3 -20   11.70    3.70
  17   3 -19  142.60    5.60
  17   3 -18   18.30    4.30
  17   3 -17    6.00    3.80
  17   3 -16    1.90    3.20
  17   3 -15   25.40    4.10
  17   3 -14  206.60    6.80
  17   3 -13  103.60    5.30
  17   3 -12  266.90    7.60
  17   3 -11  133.60    5.30
  17   3 -10  262.90    7.70
  17   3  -9  734.10   16.20
  17   3  -8  299.50    8.50
  17   3  -7   -0.30    4.00
  17   3  -6   40.30    3.60
  17   3  -5    1.50    3.30
  17   3  -4   30.50    3.70
  17   3  -3    8.60    3.60
  17   3  -2   32.20    3.60
  17   3  -1   24.40    3.20
  17   3   0    0.70    3.40
  17   3   1  205.50    7.10
  17   3   2  303.40    8.70
  17   3   3  346.30   11.40
  17   3   4  583.50   15.00
  17   3   5  174.70    7.70
  17   3   6  350.60   10.70
  17   3   7   20.40    3.60
  17   3   8  201.70    9.00
  17   3   9   17.10    4.70
  17   3  10  114.30    6.40
  17   3  11   20.60    4.60
  17   3  12   -1.50    4.10
  17   3  13   10.70    4.60
  17   3  14   -9.70    5.40
  17   3  15  182.40    9.80
  17   3  16  239.00   10.40
  17   4 -22    3.90    4.80
  17   4 -21  179.50    8.70
  17   4 -20    6.60    3.30
  17   4 -19   23.80    3.50
  17   4 -18   13.10    3.50
  17   4 -17   66.90    5.30
  17   4 -16   -0.60    3.40
  17   4 -15   51.60    4.10
  17   4 -14   13.10    3.80
  17   4 -13   13.30    3.70
  17   4 -12   66.40    4.80
  17   4 -11    9.60    3.40
  17   4 -10  212.50    7.20
  17   4  -9    4.10    4.00
  17   4  -8    1.00    3.20
  17   4  -7    2.10    3.30
  17   4  -6    9.90    4.20
  17   4  -5   93.50    4.90
  17   4  -4    1.00    3.80
  17   4  -3   85.80    5.40
  17   4  -2  138.60    5.90
  17   4  -1   12.50    3.90
  17   4   0   36.50    4.20
  17   4   1  158.60    6.20
  17   4   2  562.40   13.10
  17   4   3  160.80    6.10
  17   4   4  209.40    6.90
  17   4   5   70.10    3.90
  17   4   6   48.10    5.10
  17   4   7   36.00    5.10
  17   4   8   71.60    6.00
  17   4   9    7.40    5.70
  17   4  10   68.00    5.80
  17   4  13   27.70    5.50
  17   5 -21    9.00    8.00
  17   5 -20   -1.60    6.00
  17   5 -19    7.90    6.10
  17   5 -18    7.90    4.10
  17   5 -17    9.70    6.20
  17   5 -16   16.90    3.70
  17   5 -15    0.50    4.90
  17   5 -14    9.00    4.40
  17   5 -13   21.60    4.60
  17   5 -12   10.00    4.00
  17   5 -11   -0.40    3.50
  17   5 -10   99.70    5.30
  17   5  -9  157.10    6.30
  17   5  -8   33.40    4.00
  17   5  -7   12.90    3.80
  17   5  -6    2.40    3.90
  17   5  -5    1.50    4.10
  17   5  -4    5.70    4.10
  17   5  -3   20.40    4.00
  17   5  -2   -2.10    3.50
  17   5  -1   64.70    4.90
  17   5   0   70.20    4.80
  17   5   1  251.10    7.70
  17   5   2   52.50    4.10
  17   5   3  124.00    4.50
  17   5   4  394.00   10.30
  17   5   5  162.70    6.50
  17   5   6   24.60    4.90
  17   5   7    0.40    4.40
  17   5   8    1.90    4.00
  17   5   9    8.70    5.80
  17   6 -19   55.50    6.30
  17   6 -18    1.40    6.90
  17   6 -17    5.00    3.40
  17   6 -16   62.60    5.80
  17   6 -15    6.90    4.20
  17   6 -14    0.30    4.00
  17   6 -13   19.40    3.70
  17   6 -12   97.50    5.20
  17   6 -11   29.80    4.60
  17   6 -10   39.50    3.80
  17   6  -9   -1.20    3.90
  17   6  -8    4.70    3.40
  17   6  -7   70.00    4.80
  17   6  -6  119.90    5.70
  17   6  -5   20.40    4.40
  17   6  -4   55.10    5.20
  17   6  -3   53.70    3.70
  17   6  -2   26.50    3.30
  17   6  -1    6.30    3.70
  17   6   0    9.70    3.30
  17   6   1   10.90    3.90
  17   6   2    6.30    3.60
  17   6   3  138.80    5.60
  17   6   4   -1.30    4.60
  17   7 -15   -1.70    5.80
  17   7 -14   47.60    5.40
  17   7 -13   38.70    4.60
  17   7 -12    6.50    3.90
  17   7 -11  139.40    6.60
  17   7 -10   10.40    5.10
  17   7  -9   -4.30    5.40
  17   7  -8    5.10    4.40
  17   7  -7  108.50    5.40
  17   7  -6   59.80    4.00
  17   7  -5  169.00    5.10
  17   7  -4    3.10    5.30
  17   7  -3   15.80    4.80
  17   7  -2   36.10    6.30
  17   7  -1    1.30    5.40
  18   0 -22  104.00    6.40
  18   0 -21    2.70    6.00
  18   0 -20   54.40    6.90
  18   0 -19   -5.10    4.70
  18   0 -18 1485.20   44.00
  18   0 -17   -0.70    7.00
  18   0 -16 1199.30   50.30
  18   0 -15    2.50    6.70
  18   0 -14  245.60   10.00
  18   0 -13    3.20    5.00
  18   0 -12  238.50    9.40
  18   0 -11    4.20    5.00
  18   0 -10    9.40    6.50
  18   0  -9    1.70    4.10
  18   0  -8 1435.50   39.40
  18   0  -7    3.20    4.30
  18   0  -6  792.10   22.50
  18   0  -5   18.90    8.60
  18   0  -4 3645.10   83.00
  18   0  -3   -4.10    4.30
  18   0  -2 1670.90   43.10
  18   0  -1    2.10    5.20
  18   0   0 1629.10   43.20
  18   0   1   -2.90    6.80
  18   0   2 3486.20   82.40
  18   0   3  -10.10    6.80
  18   0   4   48.10    5.40
  18   0   5    4.00    4.70
  18   0   6   90.50    6.80
  18   0   7    3.30    5.50
  18   0   8  229.10   10.60
  18   0   9    1.40    5.80
  18   0  10   10.10    5.30
  18   0  11    3.30    7.30
  18   0  12    8.50    6.00
  18   0  13    7.30    7.70
  18   0  14   54.40    6.40
  18   0  15    1.80    5.80
  18   0  16  113.60    9.00
  18   1 -22   10.80    5.60
  18   1 -21    6.20    3.40
  18   1 -20   -1.00    3.70
  18   1 -19  120.40    5.90
  18   1 -18   44.10    4.50
  18   1 -17  539.60   12.70
  18   1 -16  143.80    6.40
  18   1 -15  136.80    5.50
  18   1 -14   43.60    4.50
  18   1 -13  461.10   11.20
  18   1 -12   93.90    4.90
  18   1 -11 1753.70   37.30
  18   1 -10  494.30   14.00
  18   1  -9 1727.50   38.90
  18   1  -8  166.90    5.70
  18   1  -7  181.70    6.20
  18   1  -6    2.40    3.10
  18   1  -5  746.20   15.30
  18   1  -4   27.30    3.80
  18   1  -3 1521.00   28.90
  18   1  -2   42.10    3.60
  18   1  -1 1110.50   22.80
  18   1   0  694.20   14.20
  18   1   1  320.30    8.70
  18   1   2  497.40   12.00
  18   1   3  223.30    6.80
  18   1   4  167.90    6.30
  18   1   5  192.00    6.90
  18   1   6  130.10    6.00
  18   1   7  104.60    5.50
  18   1   8   29.10    3.40
  18   1   9   32.40    5.40
  18   1  10    5.80    3.70
  18   1  11   34.70    5.00
  18   1  12   18.90    4.10
  18   1  13   55.70    7.20
  18   1  14  141.20    6.20
  18   1  15    1.00    4.70
  18   1  16    1.50    6.20
  18   1  17    4.20    5.60
  18   2 -21   64.40    5.30
  18   2 -20   34.10    3.80
  18   2 -19    0.50    3.80
  18   2 -18   37.20    4.00
  18   2 -17    7.40    3.90
  18   2 -16    1.20    3.80
  18   2 -15   89.10    4.70
  18   2 -14  -11.90    4.00
  18   2 -13   10.20    3.60
  18   2 -12   49.50    4.00
  18   2 -11  135.10    6.00
  18   2 -10  326.20    8.80
  18   2  -9  876.30   18.10
  18   2  -8  312.40    8.60
  18   2  -7   10.00    4.10
  18   2  -6   56.80    4.10
  18   2  -5  225.20    6.60
  18   2  -4   80.60    5.40
  18   2  -3  161.90    6.80
  18   2  -2  223.80    7.60
  18   2  -1   11.50    3.40
  18   2   0 1453.60   25.70
  18   2   1   -2.20    3.40
  18   2   2   40.20    3.80
  18   2   3   19.80    3.50
  18   2   4   82.60    4.80
  18   2   5   28.80    3.60
  18   2   6  172.00    6.90
  18   2   7    0.30    3.20
  18   2   8   60.10    5.60
  18   2   9   29.30    5.70
  18   2  10   30.30    4.60
  18   2  11   34.40    6.00
  18   2  12   14.50    3.80
  18   2  13    8.40    4.40
  18   2  14   26.80    5.40
  18   2  15   21.20    7.70
  18   2  16   -0.60    5.50
  18   3 -21   37.30    6.60
  18   3 -20   18.50    3.40
  18   3 -19   97.50    4.90
  18   3 -18    1.90    3.00
  18   3 -17  110.40    5.60
  18   3 -16   12.00    3.70
  18   3 -15    5.30    3.60
  18   3 -14   62.60    5.30
  18   3 -13   24.80    4.00
  18   3 -12   -2.50    3.10
  18   3 -11    0.90    3.50
  18   3 -10    2.40    3.60
  18   3  -9   16.10    3.80
  18   3  -8  104.00    5.00
  18   3  -7   20.60    3.20
  18   3  -6  287.10    8.10
  18   3  -5   29.40    3.70
  18   3  -4   -4.50    3.00
  18   3  -3  347.60    8.30
  18   3  -2    0.30    3.20
  18   3  -1    6.30    3.60
  18   3   0   -1.40    3.30
  18   3   1   25.50    3.50
  18   3   2   -0.60    4.00
  18   3   3    0.10    3.60
  18   3   4    5.90    3.20
  18   3   5   63.40    4.60
  18   3   6    4.60    3.10
  18   3   7   35.80    4.60
  18   3   8   13.90    4.80
  18   3   9   90.90    5.90
  18   3  10   -3.20    5.80
  18   3  11   16.00    4.30
  18   3  12   68.40    8.80
  18   3  13   35.50    5.90
  18   3  14  110.40   11.40
  18   3  15   -0.20    5.60
  18   4 -20   -2.50    5.30
  18   4 -19   10.40    3.40
  18   4 -18   60.40    5.00
  18   4 -17   24.80    3.70
  18   4 -16   -0.90    3.40
  18   4 -15   35.10    5.00
  18   4 -14    0.80    3.40
  18   4 -13   14.10    3.50
  18   4 -12   31.40    4.10
  18   4 -11   12.20    3.60
  18   4 -10  232.10    6.90
  18   4  -9  120.90    5.70
  18   4  -8  221.30    8.00
  18   4  -7   46.70    4.10
  18   4  -6   75.80    4.20
  18   4  -5   45.60    3.70
  18   4  -4   11.00    3.30
  18   4  -3   95.80    5.60
  18   4  -2   52.20    5.30
  18   4  -1   19.00    4.70
  18   4   0    5.60    4.50
  18   4   1  650.70   16.50
  18   4   2   88.60    4.90
  18   4   3  146.80    6.20
  18   4   4   -2.70    3.80
  18   4   5   22.60    3.30
  18   4   6   -0.20    3.90
  18   4   7  109.00    6.80
  18   4   8    4.30    4.60
  18   4   9   54.60    8.30
  18   4  10   -1.60    6.50
  18   4  11    1.40    4.90
  18   5 -18   -3.20    9.10
  18   5 -17    5.00    4.00
  18   5 -16   64.30    3.90
  18   5 -15   63.30    5.60
  18   5 -14   72.10    4.70
  18   5 -13    4.70    3.30
  18   5 -12  148.40    5.70
  18   5 -11    6.70    3.70
  18   5 -10  482.30   10.90
  18   5  -9  219.00    7.00
  18   5  -8   58.70    4.70
  18   5  -7  447.80   10.40
  18   5  -6   18.40    3.60
  18   5  -5  125.70    5.30
  18   5  -4  171.40    5.80
  18   5  -3   56.30    5.00
  18   5  -2  113.10    5.70
  18   5  -1    7.80    4.00
  18   5   0    2.90    3.70
  18   5   1  517.90   11.80
  18   5   2    7.20    3.20
  18   5   3  257.00    7.00
  18   5   4    3.10    3.50
  18   5   5   44.80    4.60
  18   5   6    0.90    6.40
  18   5   7    4.80    5.10
  18   6 -16   17.80    3.90
  18   6 -15   41.10    5.20
  18   6 -14   -0.10    4.20
  18   6 -13   -5.50    4.00
  18   6 -12  216.10    6.40
  18   6 -11   29.20    4.80
  18   6 -10  165.60    6.10
  18   6  -9  273.20    7.10
  18   6  -8    0.60    3.90
  18   6  -7   41.20    4.40
  18   6  -6   83.00    4.70
  18   6  -5    4.70    4.20
  18   6  -4  111.10    5.00
  18   6  -3   48.10    4.50
  18   6  -2   28.80    3.80
  18   6  -1   55.00    4.10
  18   6   0   27.50    3.60
  18   6   1   30.90    3.40
  18   6   2   31.40    7.90
  18   7 -14    2.20    6.40
  18   7 -13  152.50   12.20
  18   7 -10   84.10    6.90
  18   7  -9   66.40    9.60
  18   7  -8    7.80    8.20
  18   7  -7   10.40    6.40
  19   0 -20   -5.60    5.10
  19   0 -19   48.20    8.80
  19   0 -18   -0.20    5.80
  19   0 -17  102.90   10.10
  19   0 -16   -0.90    6.20
  19   0 -15 1217.20   33.00
  19   0 -14  -12.60    4.80
  19   0 -13  243.10   10.30
  19   0 -12    6.60    4.70
  19   0 -11  526.60   17.30
  19   0 -10    2.80    5.90
  19   0  -9   92.20    6.20
  19   0  -8   -0.30    4.10
  19   0  -7   26.30    4.70
  19   0  -6   -3.60    4.60
  19   0  -5  727.40   20.80
  19   0  -4  -16.20    6.50
  19   0  -3  230.50   11.20
  19   0  -2    9.00    5.20
  19   0  -1 1915.90   52.00
  19   0   0    6.60    4.70
  19   0   1    0.70    5.50
  19   0   2    8.60    8.90
  19   0   3  543.30   21.10
  19   0   4    2.20    6.70
  19   0   5  476.50   16.00
  19   0   6   -8.00    4.80
  19   0   7   15.70    5.30
  19   0   8   -3.10    4.70
  19   0   9  148.20    9.50
  19   0  10    4.40    7.90
  19   0  11  464.10   16.40
  19   0  12   -3.50    7.70
  19   0  13   60.40    7.40
  19   0  14    4.30    6.60
  19   1 -20   11.40    5.20
  19   1 -19   24.40    4.20
  19   1 -18   -0.30    3.70
  19   1 -17   -0.30    3.50
  19   1 -16   13.80    4.40
  19   1 -15   11.70    3.80
  19   1 -14   65.60    4.70
  19   1 -13   89.90    5.30
  19   1 -12  777.90   16.50
  19   1 -11    5.60    4.70
  19   1 -10  185.50    8.50
  19   1  -9  314.90    9.90
  19   1  -8  184.30    6.90
  19   1  -7    2.20    3.20
  19   1  -6    1.50    3.10
  19   1  -5  392.60   10.30
  19   1  -4    1.10    3.60
  19   1  -3   76.80    4.30
  19   1  -2    5.10    3.40
  19   1  -1  800.30   16.50
  19   1   0   10.10    3.90
  19   1   1  386.60   10.00
  19   1   2  923.20   19.40
  19   1   3  274.80    7.90
  19   1   4    7.50    3.30
  19   1   5  212.80    7.60
  19   1   6  114.10    5.40
  19   1   7   39.90    4.50
  19   1   8   81.90    5.30
  19   1   9   10.90    4.60
  19   1  10   -0.60    4.60
  19   1  11   -1.70    4.50
  19   1  12    1.20    4.20
  19   1  13  170.30    7.50
  19   1  14    1.10    6.80
  19   1  15   20.60    5.40
  19   2 -20   41.00    5.30
  19   2 -19   51.20    4.40
  19   2 -18   52.70    4.60
  19   2 -17   45.20    4.20
  19   2 -16   60.60    4.70
  19   2 -15   -2.70    4.00
  19   2 -14  393.40    9.90
  19   2 -13   14.40    3.60
  19   2 -12   58.90    4.40
  19   2 -11    4.30    3.50
  19   2 -10   42.60    4.90
  19   2  -9   78.00    4.90
  19   2  -8    4.00    3.80
  19   2  -7   20.20    3.50
  19   2  -6  206.70    7.70
  19   2  -5   11.70    4.70
  19   2  -4  317.50    9.10
  19   2  -3   12.60    3.80
  19   2  -2   80.00    5.20
  19   2  -1  242.60    7.70
  19   2   0   79.90    5.60
  19   2   1   30.30    4.50
  19   2   2   -2.10    4.10
  19   2   3   19.00    4.10
  19   2   4   21.30    3.60
  19   2   5  792.40   15.90
  19   2   6   45.00    4.30
  19   2   7   20.40    3.40
  19   2   8    0.00    4.70
  19   2   9  228.30    7.50
  19   2  10   40.60    4.80
  19   2  11   24.20    6.20
  19   2  12    7.70    4.80
  19   2  13   94.30   10.10
  19   2  14   85.10    6.90
  19   2  15   60.80    8.80
  19   3 -19   37.00    3.90
  19   3 -18   -2.30    3.50
  19   3 -17   61.70    3.90
  19   3 -16   -2.50    3.10
  19   3 -15    9.80    3.30
  19   3 -14    2.90    3.70
  19   3 -13    4.80    3.10
  19   3 -12   45.40    3.80
  19   3 -11   -2.90    3.20
  19   3 -10   24.80    3.90
  19   3  -9  109.50    5.30
  19   3  -8  412.90   10.80
  19   3  -7   -0.30    3.50
  19   3  -6   51.30    4.40
  19   3  -5  104.30    4.80
  19   3  -4  277.40    9.00
  19   3  -3    7.80    3.80
  19   3  -2  564.70   12.60
  19   3  -1  320.00    8.00
  19   3   0   -0.50    3.20
  19   3   1   35.70    4.70
  19   3   2   74.50    5.30
  19   3   3   13.70    4.20
  19   3   4   -2.10    4.10
  19   3   5  133.20    6.40
  19   3   6    9.90    3.20
  19   3   7   10.20    3.60
  19   3   8   22.20    4.60
  19   3   9    0.60    4.50
  19   3  11    5.50    5.50
  19   3  12   15.60    7.70
  19   3  13   63.10    7.10
  19   4 -18    7.20    4.10
  19   4 -17   66.60    3.90
  19   4 -16    6.80    3.40
  19   4 -15   17.90    3.50
  19   4 -14    2.80    3.10
  19   4 -13   33.50    4.00
  19   4 -12  155.40    6.40
  19   4 -11   62.10    5.00
  19   4 -10   86.60    5.00
  19   4  -9   53.00    4.30
  19   4  -8  102.60    4.80
  19   4  -7    5.70    3.70
  19   4  -6   50.90    4.60
  19   4  -5   29.80    3.70
  19   4  -4    7.50    3.80
  19   4  -3    1.90    3.40
  19   4  -2   62.80    4.10
  19   4  -1    3.20    4.30
  19   4   0   85.20    5.60
  19   4   1  735.20   15.10
  19   4   2    0.50    3.50
  19   4   3   -0.10    3.00
  19   4   4   44.90    3.80
  19   4   5   30.50    3.40
  19   4   6   50.50    5.60
  19   4   7   11.70    7.20
  19   4   8    5.90    5.50
  19   4   9   -2.40    4.70
  19   5 -16    1.30    4.10
  19   5 -15   40.50    4.20
  19   5 -14   14.30    3.90
  19   5 -13   16.90    4.60
  19   5 -12   40.80    4.90
  19   5 -11  239.50    7.00
  19   5 -10    8.20    3.90
  19   5  -9    3.20    3.40
  19   5  -8   45.20    4.40
  19   5  -7    6.40    4.40
  19   5  -6    5.80    3.50
  19   5  -5  126.60    6.10
  19   5  -4  344.20    8.00
  19   5  -3  107.20    4.80
  19   5  -2    1.00    4.00
  19   5  -1   27.10    4.00
  19   5   0  282.80    6.90
  19   5   1    8.50    4.10
  19   5   2   55.70    4.60
  19   5   3   45.50    6.60
  19   5   4   24.80    7.30
  19   5   5   -2.90    7.50
  19   6 -15   37.90    8.30
  19   6 -14   -3.60    5.70
  19   6 -13  101.30    7.60
  19   6 -12    1.30    3.70
  19   6 -11    5.80    3.90
  19   6 -10   11.70    4.80
  19   6  -9    8.70    4.00
  19   6  -8  177.10    6.40
  19   6  -7   19.90    3.90
  19   6  -6   47.20    4.60
  19   6  -5   54.20    4.30
  19   6  -4   -4.70    3.70
  19   6  -3    5.40    5.70
  19   6  -2  179.30    9.20
  19   6  -1  144.00    9.30
  20   0 -19   13.60    6.50
  20   0 -18  212.00   16.60
  20   0 -17  -17.30    9.40
  20   0 -16    8.80    4.80
  20   0 -15    0.40    5.50
  20   0 -14 2535.00   62.40
  20   0 -13   -0.20    4.90
  20   0 -12 1261.80   40.70
  20   0 -11    3.90    4.90
  20   0 -10  153.10    8.90
  20   0  -9    1.60    5.20
  20   0  -8  332.50   12.70
  20   0  -7    8.70    4.40
  20   0  -6  105.00    5.30
  20   0  -5    0.70    4.50
  20   0  -4   70.20    6.90
  20   0  -3   -9.70    4.50
  20   0  -2   17.50    4.70
  20   0  -1   -1.30    4.50
  20   0   0   24.40    5.80
  20   0   1   -5.20    4.50
  20   0   2   31.40    5.20
  20   0   3    3.50    4.90
  20   0   4  284.90   12.30
  20   0   5   -0.70    5.00
  20   0   6  189.30    9.30
  20   0   7   -9.10    6.00
  20   0   8   49.30    4.90
  20   0   9   -4.20    5.90
  20   0  10  115.70   10.10
  20   0  11   -0.30    5.50
  20   0  12   99.30   10.00
  20   1 -19   61.90    4.40
  20   1 -18    2.40    4.10
  20   1 -17   46.00    4.00
  20   1 -16  152.60    6.30
  20   1 -15   37.50    4.70
  20   1 -14    5.80    3.60
  20   1 -13   17.70    3.90
  20   1 -12   -7.70    4.00
  20   1 -11  142.10    7.30
  20   1 -10   36.60    4.00
  20   1  -9   -1.60    3.60
  20   1  -8   12.40    4.10
  20   1  -7    7.50    4.00
  20   1  -6  139.80    5.50
  20   1  -5   98.60    5.00
  20   1  -4   61.80    4.20
  20   1  -3  324.80    9.10
  20   1  -2   76.20    4.40
  20   1  -1  770.40   17.10
  20   1   0  276.60    8.60
  20   1   1   50.50    4.60
  20   1   2   16.80    4.20
  20   1   3  503.00   14.50
  20   1   4   26.60    4.40
  20   1   5  183.90    5.80
  20   1   6   10.60    4.10
  20   1   7  256.40    6.90
  20   1   8  120.10    6.60
  20   1   9    6.70    4.60
  20   1  10    9.90    4.70
  20   1  11   27.20    4.50
  20   1  12   34.00    8.60
  20   1  13   -2.30    4.50
  20   2 -18   10.10    4.20
  20   2 -17    4.30    4.20
  20   2 -16   18.40    3.50
  20   2 -15  122.40    5.90
  20   2 -14  169.60    5.80
  20   2 -13   81.20    4.60
  20   2 -12  291.70    7.20
  20   2 -11   60.40    4.40
  20   2 -10   19.10    3.70
  20   2  -9  109.60    5.10
  20   2  -8   18.00    3.50
  20   2  -7    9.60    3.40
  20   2  -6  329.90   10.80
  20   2  -5    5.30    4.10
  20   2  -4   12.80    4.30
  20   2  -3   31.60    4.00
  20   2  -2  683.40   14.00
  20   2  -1  349.30    8.50
  20   2   0   37.40    3.90
  20   2   1    3.90    3.20
  20   2   2    9.90    4.20
  20   2   3   -5.20    3.70
  20   2   4  967.50   17.90
  20   2   5  261.20    7.60
  20   2   6    8.60    3.80
  20   2   7    1.50    3.00
  20   2   8    7.10    4.30
  20   2   9   31.50    4.20
  20   2  10   67.30    7.40
  20   2  11   -3.30    8.30
  20   2  12    1.40    5.70
  20   2  13    8.80    8.00
  20   3 -17    0.20    3.60
  20   3 -16   -3.20    2.60
  20   3 -15  115.50    4.80
  20   3 -14  121.00    5.40
  20   3 -13   25.30    4.00
  20   3 -12    6.80    3.40
  20   3 -11    2.50    3.60
  20   3 -10  157.10    5.80
  20   3  -9    4.50    3.60
  20   3  -8   10.10    3.90
  20   3  -7   79.70    4.70
  20   3  -6  476.60    9.90
  20   3  -5   75.10    4.20
  20   3  -4    7.10    3.60
  20   3  -3    5.60    3.40
  20   3  -2  234.90    7.10
  20   3  -1  232.70    7.30
  20   3   0    9.00    5.70
  20   3   1    2.70    4.70
  20   3   2   18.40    5.30
  20   3   3   11.50    3.60
  20   3   4   29.60    3.60
  20   3   5  198.00    6.20
  20   3   6   35.80    4.70
  20   3   7   12.40    5.80
  20   3   8    7.60   21.70
  20   3  11    5.60    4.40
  20   4 -16    0.90    4.70
  20   4 -15   28.50    4.10
  20   4 -14   13.60    3.30
  20   4 -13   78.30    5.60
  20   4 -12   20.70    3.70
  20   4 -11   29.20    3.70
  20   4 -10   43.20    4.10
  20   4  -9    1.00    3.30
  20   4  -8    2.50    3.70
  20   4  -7  108.10    5.10
  20   4  -6    3.20    3.50
  20   4  -5   44.00    3.80
  20   4  -4   31.60    4.10
  20   4  -3   95.70    4.60
  20   4  -2   18.90    3.90
  20   4  -1    5.40    4.10
  20   4   0  356.90    7.90
  20   4   1   -1.90    3.20
  20   4   2   15.90    3.50
  20   4   3   57.20    4.40
  20   4   4    5.90    6.40
  20   4   5   -2.10    6.60
  20   4   6   10.60    4.30
  20   4   7   10.40    4.30
  20   5 -15    5.80    7.40
  20   5 -14   -9.00    5.20
  20   5 -13   -7.70    4.80
  20   5 -12   12.50    4.80
  20   5 -11   10.60    3.80
  20   5 -10   14.40    3.60
  20   5  -9  160.80    6.00
  20   5  -8   10.80    3.70
  20   5  -7   38.60    3.70
  20   5  -6   43.20    4.30
  20   5  -5    3.30    3.60
  20   5  -4   11.10    4.10
  20   5  -3    0.10    3.40
  20   5  -2   62.00    4.20
  20   5  -1    2.80    6.50
  20   5   0  200.80   10.20
  20   5   1    5.60    7.20
  20   5   2   91.20    7.90
  20   5   3   34.70    7.30
  20   6 -13    2.50    9.20
  20   6 -12    6.90    5.30
  20   6 -11   14.60    5.10
  20   6 -10   19.30    6.20
  20   6  -9   52.60    7.00
  20   6  -8   67.40    7.40
  20   6  -7   57.40    6.90
  20   6  -6   23.10    6.60
  20   6  -5   59.10    5.80
  20   6  -4    9.90    4.80
  21   0 -17   97.50    7.60
  21   0 -16   13.90    5.80
  21   0 -15  828.70   25.70
  21   0 -14   -4.00    5.00
  21   0 -13  263.80   10.70
  21   0 -12   10.40    4.80
  21   0 -11   10.20    4.90
  21   0 -10   -1.20    4.40
  21   0  -9   27.10    5.90
  21   0  -8   -0.50    5.40
  21   0  -7    1.00    5.40
  21   0  -6   -2.70    5.20
  21   0  -5   13.70    5.70
  21   0  -4   -0.20    6.30
  21   0  -3    1.10    6.30
  21   0  -2   -8.00    5.20
  21   0  -1  130.10    8.40
  21   0   0    5.60    4.30
  21   0   1  131.70    8.10
  21   0   2    3.70    4.70
  21   0   3  293.90   10.60
  21   0   4   -4.50    6.30
  21   0   5  136.30    8.20
  21   0   6   -3.60    4.80
  21   0   7   85.30    8.70
  21   0   8    0.10    5.30
  21   0   9   49.40    6.30
  21   0  10    7.00    5.50
  21   1 -17   33.00    4.80
  21   1 -16  102.30    4.90
  21   1 -15  256.10    8.60
  21   1 -14   11.50    4.10
  21   1 -13   16.30    4.10
  21   1 -12  132.50    6.10
  21   1 -11   76.20    4.20
  21   1 -10   40.60    4.00
  21   1  -9    9.40    3.50
  21   1  -8    3.00    3.60
  21   1  -7   10.40    3.80
  21   1  -6   49.20    4.50
  21   1  -5  351.30    9.30
  21   1  -4    8.60    4.20
  21   1  -3    6.20    3.50
  21   1  -2   23.60    3.70
  21   1  -1   29.80    3.80
  21   1   0  267.20    8.00
  21   1   1   44.70    4.00
  21   1   2  450.10    9.90
  21   1   3   32.80    4.20
  21   1   4    1.70    3.50
  21   1   5  432.00   11.00
  21   1   6   -0.40    3.70
  21   1   7   -2.10    2.90
  21   1   8    2.90    4.90
  21   1   9   33.20    6.30
  21   1  10  249.40   13.00
  21   1  11   52.90    8.40
  21   2 -16   26.10    3.60
  21   2 -15  112.60    5.00
  21   2 -14   73.10    4.90
  21   2 -13  343.50    8.20
  21   2 -12   44.30    3.90
  21   2 -11  161.30    6.10
  21   2 -10    8.90    3.40
  21   2  -9   -2.20    3.10
  21   2  -8   87.00    4.40
  21   2  -7   15.20    4.40
  21   2  -6    1.90    4.30
  21   2  -5    5.50    4.40
  21   2  -4  105.50    5.00
  21   2  -3   17.70    3.60
  21   2  -2  390.50    9.30
  21   2  -1   54.80    4.50
  21   2   0   54.60    4.70
  21   2   1   -0.30    4.40
  21   2   2   89.60    4.20
  21   2   3   31.80    4.10
  21   2   4   52.70    4.10
  21   2   5  123.10    5.90
  21   2   6    8.20    4.10
  21   2   7   -5.60    5.50
  21   2   8   12.10    8.80
  21   2   9   79.50    7.20
  21   2  10   68.50    7.70
  21   2  11   43.50    6.90
  21   2  12   39.20    8.00
  21   2  13   17.70    5.50
  21   3 -16   60.60    9.00
  21   3 -15    4.40    4.80
  21   3 -14   63.30    4.10
  21   3 -13   24.20    3.90
  21   3 -12   29.20    3.80
  21   3 -11   96.90    4.60
  21   3 -10   12.10    3.60
  21   3  -9    9.70    3.70
  21   3  -8   -1.50    3.40
  21   3  -7  158.80    5.40
  21   3  -6   -2.50    3.30
  21   3  -5   60.60    4.10
  21   3  -4   47.30    4.20
  21   3  -3  167.50    6.10
  21   3  -2  158.70    6.50
  21   3  -1   -2.40    4.50
  21   3   0   54.30    5.50
  21   3   1   38.30    4.00
  21   3   2  256.00    8.30
  21   3   3   57.20    4.00
  21   3   4   12.70    5.80
  21   3   5   48.20    6.80
  21   3   6   37.50    4.60
  21   3   7  123.30   10.20
  21   3   8    4.40    5.00
  21   3   9   -0.10    5.50
  21   4 -14   29.90    9.30
  21   4 -13   95.60    8.80
  21   4 -12   85.90    7.60
  21   4 -11  198.30    8.90
  21   4 -10    4.20    4.10
  21   4  -9    9.00    4.10
  21   4  -8   64.00    4.60
  21   4  -7   10.50    4.20
  21   4  -6   39.70    3.90
  21   4  -5   12.50    3.90
  21   4  -4   33.10    4.10
  21   4  -3   -2.90    3.80
  21   4  -2  144.30    5.70
  21   4  -1   -1.10    4.60
  21   4   0   29.70    5.00
  21   4   1   -1.90    4.30
  21   4   2    6.90    6.60
  21   4   3   11.20   10.40
  21   4   4    2.10    4.20
  21   4   5   -1.00    5.00
  21   5 -13   56.50    8.50
  21   5 -12   -1.80    5.90
  21   5 -11    5.90    8.20
  21   5 -10    0.00    8.80
  21   5  -9   11.50    4.50
  21   5  -8   16.00    5.50
  21   5  -7   46.60    7.90
  21   5  -6   21.10    5.60
  21   5  -5    2.40    4.80
  21   5  -4  107.30    8.60
  21   5  -3   13.30    5.60
  21   5  -2   85.50    6.00
  21   5  -1   14.50    7.00
  21   5   0   -5.90    6.40
  21   6 -12   46.70    9.40
  21   6 -11  123.00   13.30
  21   6 -10  108.00    6.90
  22   0 -15    0.80    6.40
  22   0 -14    3.50    4.70
  22   0 -13   -2.20    5.40
  22   0 -12  331.20   12.00
  22   0 -11   -6.90    4.60
  22   0 -10    6.30    4.40
  22   0  -9    2.50    4.80
  22   0  -8    2.80    4.50
  22   0  -7   -0.10    4.80
  22   0  -6  146.40    6.70
  22   0  -5    3.50    4.70
  22   0  -4   26.40    5.00
  22   0  -3    3.30    4.80
  22   0  -2   -4.90    4.40
  22   0  -1    5.20    4.20
  22   0   0  171.60    8.50
  22   0   1    3.00    5.40
  22   0   2    1.10    5.30
  22   0   3   -2.20    4.70
  22   0   4   21.40    5.70
  22   0   5    7.10    5.90
  22   0   6    3.50    5.20
  22   0   7  -10.30    4.50
  22   1 -15   68.70    9.10
  22   1 -14    9.80    4.20
  22   1 -13   11.30    4.00
  22   1 -12    5.10    3.50
  22   1 -11    2.80    3.30
  22   1 -10   -0.30    3.50
  22   1  -9   91.10    5.00
  22   1  -8   25.70    4.10
  22   1  -7    5.10    3.20
  22   1  -6   37.50    3.70
  22   1  -5   80.30    4.20
  22   1  -4    3.90    3.90
  22   1  -3   18.40    4.10
  22   1  -2   19.90    3.50
  22   1  -1   -2.80    3.20
  22   1   0   -1.00    3.70
  22   1   1    2.50    3.60
  22   1   2    9.00    3.40
  22   1   3   11.50    3.90
  22   1   4   -3.70    3.80
  22   1   5  348.10    8.20
  22   1   6   -3.50    5.30
  22   1   7  177.70    6.60
  22   1   8   14.80    5.70
  22   1   9  241.40   10.40
  22   2 -14   24.10    4.50
  22   2 -13   52.80    5.30
  22   2 -12   23.10    3.90
  22   2 -11   37.20    4.50
  22   2 -10    3.10    3.20
  22   2  -9  116.10    4.50
  22   2  -8   12.10    4.10
  22   2  -7   39.00    5.40
  22   2  -6   -6.20    4.60
  22   2  -5   10.70    3.80
  22   2  -4   52.60    4.40
  22   2  -3   48.80    3.90
  22   2  -2   15.00    3.90
  22   2  -1   71.30    4.60
  22   2   0    2.40    3.40
  22   2   1  123.50    4.70
  22   2   2   17.70    3.80
  22   2   3    3.10    6.90
  22   2   4   98.00    6.70
  22   2   5   -2.20    5.00
  22   2   6   27.00    8.40
  22   2   7    2.80    4.00
  22   2   9   -1.10    5.20
  22   2  10   93.80    7.70
  22   3 -13    4.80    5.30
  22   3 -12   15.70    5.10
  22   3 -11    5.90    4.80
  22   3 -10   50.20    5.60
  22   3  -9   15.70    3.80
  22   3  -8    6.50    4.30
  22   3  -7   12.90    3.30
  22   3  -6   17.70    3.60
  22   3  -5   46.60    4.60
  22   3  -4   34.20    4.50
  22   3  -3   23.50    4.20
  22   3  -2    0.30    3.80
  22   3  -1   51.80    5.70
  22   3   0  -10.70    4.70
  22   3   1   29.00    5.50
  22   3   2    6.20    5.80
  22   3   3    0.60    5.00
  22   3   4   -2.90    4.70
  22   3   5   -8.00    7.50
  22   3   6  126.40    6.30
  22   3   7   21.70    6.60
  22   3   8   90.50    7.90
  22   4 -12   43.70   11.70
  22   4 -11   65.90    6.90
  22   4 -10   12.90    4.40
  22   4  -9   19.40    7.10
  22   4  -8   79.00    8.10
  22   4  -7    4.20    5.80
  22   4  -6   13.20    6.70
  22   4  -5  595.60   15.20
  22   4  -4   69.80    6.00
  22   4  -3    7.00    6.90
  22   4  -2   20.40    6.70
  22   4  -1   12.40    5.50
  22   4   0   16.40    5.00
  22   4   1   -9.60    9.10
  22   4   2    1.60   10.10
  22   5 -11   -6.80    5.90
  22   5 -10    0.00    5.40
  22   5  -9   34.30   10.80
  22   5  -8    2.00    8.10
  22   5  -7   24.10   11.40
  22   5  -6   71.10    5.40
  22   5  -5   64.20    6.90
  22   5  -4   62.30    8.20
  22   5  -3  187.90    7.90
  22   5  -2    3.20    6.50
  23   0 -11   12.00    6.00
  23   0 -10   -2.40    5.20
  23   0  -9   -0.50    4.10
  23   0  -8    9.80    4.10
  23   0  -7   -3.50    4.30
  23   0  -6   -4.70    4.10
  23   0  -5    3.20    5.10
  23   0  -4    5.60    7.20
  23   0  -3    3.90    5.10
  23   0  -2   -5.40    5.00
  23   0  -1    4.90    4.90
  23   0   0   -7.60    4.00
  23   0   1   84.70    6.10
  23   0   2   -0.90    5.10
  23   0   3   77.30    5.80
  23   1 -12   86.10    7.80
  23   1 -11    0.30    3.80
  23   1 -10   67.60    4.70
  23   1  -9    6.60    5.10
  23   1  -8    0.30    2.90
  23   1  -7    2.30    3.60
  23   1  -6   31.30    3.40
  23   1  -5   15.10    3.90
  23   1  -4  137.90    5.10
  23   1  -3    4.80    4.60
  23   1  -2    8.10    3.30
  23   1  -1   12.30    3.70
  23   1   0    0.30    3.50
  23   1   1    4.30    4.10
  23   1   2   53.30    9.70
  23   1   3  180.50    6.50
  23   1   4    1.70    4.20
  23   2 -11   37.50    5.30
  23   2 -10  157.60    6.60
  23   2  -9   27.50    7.40
  23   2  -8   24.70    9.00
  23   2  -7   57.80    6.90
  23   2  -6  204.70    9.30
  23   2  -5   14.90    4.50
  23   2  -4   15.90    4.50
  23   2  -3    3.90    4.70
  23   2  -2    9.50    5.10
  23   2  -1   40.50    7.20
  23   2   0    6.00    5.30
  23   2   1   13.60    4.70
  23   2   2   61.10    6.60
  23   2   3    5.50    5.50
  23   2   4    9.40    4.50
  23   2   5   29.20    6.30
  23   2   6  108.50    8.20
  23   2   7   23.30    6.20
  23   3 -11    5.10    7.80
  23   3 -10   29.90    5.50
  23   3  -9   14.00    6.40
  23   3  -8    4.50    4.90
  23   3  -7   24.70    5.30
  23   3  -6    3.00    6.50
  23   3  -5  273.70   11.30
  23   3  -4    7.70    4.90
  23   3  -3   -1.00    4.80
  23   3  -2    0.10    6.40
  23   3  -1   -0.80    5.30
  23   3   0    0.70    4.30
  23   3   1   27.90   11.70
  23   3   2   34.60    4.30
  23   3   4    1.20    5.60
  23   3   6    8.40    5.20
  23   4  -9   -0.20    6.10
  23   4  -7   53.80    8.30
  23   4  -6  109.50    6.90
  23   4  -5   -2.60    5.10
  23   4  -4    7.40    5.70
  23   4  -3   17.10    6.80
  23   4  -2    8.20    5.20
  23   4   1   41.40    8.90
  23   5  -8    3.20    5.30
  23   5  -7    7.50    6.10
  23   5  -6  130.90    9.90
  24   1  -5    4.00    4.10
  24   1  -4    9.00    5.00
  24   1  -3   10.90    5.70
  24   1  -2   19.30    8.70
  24   1  -1   -3.60    6.20
  24   2  -7    5.90    5.70
  24   2  -6   78.60    6.00
  24   2  -5   -9.60    7.10
  24   2  -3   14.90    7.90
  24   2  -2   19.00    7.80
  24   2  -1    5.90    4.60
  24   2   0    9.60    4.20
  24   3  -6   30.30    9.40
  24   3  -5   71.70    6.20
  24   3  -2   13.50    9.30
  24   3   3    2.50    4.30
  24   4  -5   16.30    7.00
  24   4  -4    3.80    6.90
;
_shelx_hkl_checksum              32918
loop_
_space_group_symop_id
_space_group_symop_operation_xyz
1 +X,+Y,+Z
2 1/2-X,1/2+Y,1/2-Z
3 -X,-Y,-Z
4 -1/2+X,-1/2-Y,-1/2+Z
loop_
_atom_site_label
_atom_site_type_symbol
_atom_site_fract_x
_atom_site_fract_y
_atom_site_fract_z
_atom_site_U_iso_or_equiv
_atom_site_adp_type
_atom_site_occupancy
_atom_site_site_symmetry_order
_atom_site_calc_flag
_atom_site_refinement_flags_posn
_atom_site_refinement_flags_adp
_atom_site_refinement_flags_occupancy
_atom_site_disorder_assembly
_atom_site_disorder_group
C1 C 0.93536(8) 0.89375(17) 0.25976(6) 0.0320(3) Uani 1 1 d . . . . .
C2 C 0.90368(8) 0.82657(18) 0.20637(6) 0.0331(3) Uani 1 1 d . . . . .
H2 H 0.9282 0.7551 0.1871 0.040 Uiso 1 1 calc R U . . .
C3 C 0.83610(8) 0.86716(17) 0.18271(6) 0.0317(3) Uani 1 1 d . . . . .
C4 C 0.79175(8) 0.81505(17) 0.13073(6) 0.0328(3) Uani 1 1 d . . . . .
C5 C 0.72723(8) 0.89540(17) 0.12843(6) 0.0330(3) Uani 1 1 d . . . . .
C6 C 0.66548(8) 0.88551(18) 0.08751(6) 0.0371(3) Uani 1 1 d . . . . .
H6 H 0.6628 0.8202 0.0550 0.045 Uiso 1 1 calc R U . . .
C7 C 0.60929(8) 0.97446(19) 0.09667(7) 0.0400(4) Uani 1 1 d . . . . .
H7 H 0.5684 0.9687 0.0700 0.048 Uiso 1 1 calc R U . . .
C8 C 0.61249(9) 1.0736(2) 0.14554(7) 0.0402(4) Uani 1 1 d . . . . .
H8 H 0.5736 1.1318 0.1507 0.048 Uiso 1 1 calc R U . . .
C9 C 0.67254(8) 1.08612(19) 0.18605(6) 0.0370(3) Uani 1 1 d . . . . .
H9 H 0.6744 1.1528 0.2181 0.044 Uiso 1 1 calc R U . . .
C10 C 0.73012(8) 0.99713(18) 0.17794(6) 0.0332(3) Uani 1 1 d . . . . .
C11 C 0.79850(8) 0.98140(17) 0.21218(6) 0.0323(3) Uani 1 1 d . . . . .
C12 C 0.82933(8) 1.05029(18) 0.26338(6) 0.0335(3) Uani 1 1 d . . . . .
H12 H 0.8052 1.1262 0.2814 0.040 Uiso 1 1 calc R U . . .
C13 C 0.89740(8) 1.00683(18) 0.28892(6) 0.0327(3) Uani 1 1 d . . . . .
C14 C 0.92850(8) 1.06982(18) 0.34301(6) 0.0348(3) Uani 1 1 d . . . . .
H14 H 0.9042 1.1427 0.3619 0.042 Uiso 1 1 calc R U . . .
C15 C 0.99402(8) 1.02440(18) 0.36772(6) 0.0338(3) Uani 1 1 d . . . . .
C16 C 1.03696(8) 1.06511(18) 0.42209(6) 0.0355(3) Uani 1 1 d . . . . .
C17 C 1.02475(9) 1.15816(19) 0.46820(6) 0.0390(4) Uani 1 1 d . . . . .
H17 H 0.9828 1.2118 0.4666 0.047 Uiso 1 1 calc R U . . .
C18 C 1.07619(9) 1.1692(2) 0.51634(7) 0.0435(4) Uani 1 1 d . . . . .
H18 H 1.0684 1.2305 0.5474 0.052 Uiso 1 1 calc R U . . .
C19 C 1.13976(9) 1.0902(2) 0.51941(7) 0.0452(4) Uani 1 1 d . . . . .
H19 H 1.1736 1.1019 0.5521 0.054 Uiso 1 1 calc R U . . .
C20 C 1.15291(9) 0.9955(2) 0.47483(7) 0.0417(4) Uani 1 1 d . . . . .
H20 H 1.1951 0.9426 0.4772 0.050 Uiso 1 1 calc R U . . .
C21 C 1.10100(8) 0.98032(19) 0.42536(6) 0.0370(3) Uani 1 1 d . . . . .
C22 C 1.09949(8) 0.88640(18) 0.37467(6) 0.0349(3) Uani 1 1 d . . . . .
C23 C 1.03312(8) 0.91275(18) 0.33876(6) 0.0332(3) Uani 1 1 d . . . . .
C24 C 1.00371(8) 0.84936(18) 0.28570(6) 0.0330(3) Uani 1 1 d . . . . .
H24 H 1.0288 0.7776 0.2670 0.040 Uiso 1 1 calc R U . . .
C25 C 0.80893(7) 0.70541(18) 0.08590(6) 0.0327(3) Uani 1 1 d . . . . .
C26 C 0.81494(8) 0.77664(19) 0.03360(6) 0.0366(3) Uani 1 1 d . . . . .
C27 C 0.82844(8) 0.6728(2) -0.00948(6) 0.0404(4) Uani 1 1 d . . . . .
H27 H 0.8319 0.7199 -0.0443 0.048 Uiso 1 1 calc R U . . .
C28 C 0.83691(9) 0.5009(2) -0.00178(6) 0.0409(4) Uani 1 1 d . . . . .
C29 C 0.83155(8) 0.43292(19) 0.05053(6) 0.0387(4) Uani 1 1 d . . . . .
H29 H 0.8378 0.3178 0.0562 0.046 Uiso 1 1 calc R U . . .
C30 C 0.81725(8) 0.53105(18) 0.09441(6) 0.0350(3) Uani 1 1 d . . . . .
C31 C 0.80822(10) 0.9637(2) 0.02376(7) 0.0458(4) Uani 1 1 d . . . . .
H31A H 0.7607 0.9953 0.0182 0.055 Uiso 1 1 calc R U . . .
H31B H 0.8257 0.9929 -0.0094 0.055 Uiso 1 1 calc R U . . .
H31C H 0.8339 1.0220 0.0562 0.055 Uiso 1 1 calc R U . . .
C32 C 0.84910(11) 0.3905(2) -0.04958(8) 0.0548(5) Uani 1 1 d . . . . .
H32A H 0.8968 0.3610 -0.0435 0.066 Uiso 0.49(4) 1 calc R U P A 1
H32B H 0.8362 0.4497 -0.0850 0.066 Uiso 0.49(4) 1 calc R U P A 1
H32C H 0.8220 0.2901 -0.0508 0.066 Uiso 0.49(4) 1 calc R U P A 1
H32D H 0.8772 0.2966 -0.0343 0.066 Uiso 0.51(4) 1 calc R U P A 2
H32E H 0.8720 0.4539 -0.0742 0.066 Uiso 0.51(4) 1 calc R U P A 2
H32F H 0.8059 0.3504 -0.0707 0.066 Uiso 0.51(4) 1 calc R U P A 2
C33 C 0.80743(9) 0.4495(2) 0.14902(7) 0.0427(4) Uani 1 1 d . . . . .
H33A H 0.8419 0.4898 0.1800 0.051 Uiso 1 1 calc R U . . .
H33B H 0.8114 0.3297 0.1460 0.051 Uiso 1 1 calc R U . . .
H33C H 0.7627 0.4772 0.1557 0.051 Uiso 1 1 calc R U . . .
C34 C 1.15640(8) 0.77984(19) 0.36361(6) 0.0341(3) Uani 1 1 d . . . . .
C35 C 1.20596(8) 0.84793(19) 0.33569(6) 0.0361(3) Uani 1 1 d . . . . .
C36 C 1.26064(8) 0.7480(2) 0.32743(6) 0.0379(3) Uani 1 1 d . . . . .
H36 H 1.2931 0.7931 0.3087 0.045 Uiso 1 1 calc R U . . .
C37 C 1.26800(8) 0.5824(2) 0.34647(6) 0.0382(3) Uani 1 1 d . . . . .
C38 C 1.21842(8) 0.51802(19) 0.37410(6) 0.0391(4) Uani 1 1 d . . . . .
H38 H 1.2227 0.4076 0.3871 0.047 Uiso 1 1 calc R U . . .
C39 C 1.16271(8) 0.61289(19) 0.38301(6) 0.0370(3) Uani 1 1 d . . . . .
C40 C 1.20043(10) 1.0285(2) 0.31614(7) 0.0459(4) Uani 1 1 d . . . . .
H40A H 1.2379 1.0546 0.2979 0.055 Uiso 1 1 calc R U . . .
H40B H 1.2021 1.1011 0.3483 0.055 Uiso 1 1 calc R U . . .
H40C H 1.1577 1.0448 0.2897 0.055 Uiso 1 1 calc R U . . .
C41 C 1.32801(9) 0.4766(2) 0.33833(8) 0.0479(4) Uani 1 1 d . . . . .
H41A H 1.3504 0.4303 0.3742 0.057 Uiso 1 1 calc R U . . .
H41B H 1.3599 0.5450 0.3233 0.057 Uiso 1 1 calc R U . . .
H41C H 1.3120 0.3869 0.3123 0.057 Uiso 1 1 calc R U . . .
C42 C 1.11008(9) 0.5367(2) 0.41286(8) 0.0475(4) Uani 1 1 d . . . . .
H42A H 1.1253 0.4273 0.4270 0.057 Uiso 1 1 calc R U . . .
H42B H 1.0670 0.5267 0.3866 0.057 Uiso 1 1 calc R U . . .
H42C H 1.1045 0.6076 0.4440 0.057 Uiso 1 1 calc R U . . .
C43 C 1.10122(10) 0.5156(2) 0.22866(9) 0.0543(5) Uani 1 1 d . . . . .
H43 H 1.1400 0.5762 0.2454 0.065 Uiso 1 1 calc R U . . .
C44 C 1.06659(12) 0.5560(2) 0.17504(9) 0.0599(5) Uani 1 1 d . . . . .
H44 H 1.0817 0.6450 0.1557 0.072 Uiso 1 1 calc R U . . .
C45 C 1.01021(12) 0.4666(3) 0.14990(8) 0.0646(6) Uani 1 1 d . . . . .
H45 H 0.9872 0.4941 0.1134 0.078 Uiso 1 1 calc R U . . .
C46 C 0.98735(10) 0.3359(3) 0.17850(10) 0.0654(6) Uani 1 1 d . . . . .
H46 H 0.9489 0.2745 0.1614 0.079 Uiso 1 1 calc R U . . .
C47 C 1.02180(12) 0.2960(2) 0.23280(10) 0.0640(5) Uani 1 1 d . . . . .
H47 H 1.0065 0.2082 0.2526 0.077 Uiso 1 1 calc R U . . .
C48 C 1.07871(11) 0.3866(2) 0.25729(8) 0.0580(5) Uani 1 1 d . . . . .
H48 H 1.1021 0.3597 0.2938 0.070 Uiso 1 1 calc R U . . .
C49 C 0.99965(13) 1.0203(5) 0.05670(13) 0.0941(9) Uani 1 1 d . . . . .
H49 H 0.9995 1.0337 0.0952 0.113 Uiso 1 1 calc R U . . .
C50 C 0.98495(13) 0.8684(4) 0.03105(15) 0.0946(9) Uani 1 1 d . . . . .
H50 H 0.9744 0.7778 0.0523 0.114 Uiso 1 1 calc R U . . .
C51 C 0.98536(14) 0.8468(4) -0.02498(17) 0.0988(10) Uani 1 1 d . . . . .
H51 H 0.9755 0.7420 -0.0418 0.119 Uiso 1 1 calc R U . . .
loop_
_atom_site_aniso_label
_atom_site_aniso_U_11
_atom_site_aniso_U_22
_atom_site_aniso_U_33
_atom_site_aniso_U_23
_atom_site_aniso_U_13
_atom_site_aniso_U_12
C1 0.0418(8) 0.0264(7) 0.0262(7) -0.0005(5) 0.0031(6) -0.0012(6)
C2 0.0455(8) 0.0256(7) 0.0271(7) -0.0016(6) 0.0049(6) 0.0013(6)
C3 0.0428(8) 0.0248(7) 0.0253(7) 0.0003(5) 0.0015(6) 0.0001(6)
C4 0.0448(8) 0.0241(7) 0.0268(7) -0.0006(6) 0.0009(6) -0.0006(6)
C5 0.0443(8) 0.0251(7) 0.0266(7) 0.0016(6) 0.0004(6) 0.0003(6)
C6 0.0496(9) 0.0281(7) 0.0296(7) -0.0009(6) -0.0014(6) -0.0009(6)
C7 0.0460(9) 0.0322(8) 0.0362(8) 0.0008(6) -0.0053(7) 0.0024(7)
C8 0.0471(9) 0.0341(8) 0.0362(8) 0.0013(6) 0.0010(7) 0.0069(7)
C9 0.0477(9) 0.0309(7) 0.0297(7) -0.0010(6) 0.0013(6) 0.0052(6)
C10 0.0456(8) 0.0260(7) 0.0259(7) 0.0015(6) 0.0019(6) 0.0006(6)
C11 0.0433(8) 0.0250(7) 0.0267(7) 0.0003(5) 0.0026(6) 0.0014(6)
C12 0.0441(8) 0.0274(7) 0.0274(7) -0.0006(6) 0.0036(6) 0.0028(6)
C13 0.0432(8) 0.0259(7) 0.0273(7) -0.0011(6) 0.0029(6) -0.0003(6)
C14 0.0461(8) 0.0290(7) 0.0281(7) -0.0031(6) 0.0045(6) 0.0010(6)
C15 0.0444(8) 0.0283(7) 0.0267(7) -0.0021(6) 0.0020(6) -0.0007(6)
C16 0.0461(8) 0.0293(7) 0.0284(7) -0.0017(6) 0.0010(6) -0.0019(6)
C17 0.0511(9) 0.0326(8) 0.0308(8) -0.0033(6) 0.0023(7) 0.0013(7)
C18 0.0599(10) 0.0363(8) 0.0303(8) -0.0047(6) -0.0001(7) -0.0010(7)
C19 0.0551(10) 0.0434(9) 0.0301(8) -0.0043(7) -0.0079(7) -0.0003(8)
C20 0.0476(9) 0.0389(8) 0.0336(8) -0.0022(7) -0.0037(7) 0.0006(7)
C21 0.0451(8) 0.0319(8) 0.0306(7) -0.0001(6) -0.0003(6) -0.0007(6)
C22 0.0427(8) 0.0303(7) 0.0288(7) -0.0003(6) 0.0003(6) -0.0010(6)
C23 0.0423(8) 0.0278(7) 0.0276(7) -0.0003(6) 0.0026(6) -0.0005(6)
C24 0.0424(8) 0.0275(7) 0.0280(7) -0.0011(6) 0.0045(6) 0.0003(6)
C25 0.0407(8) 0.0288(7) 0.0257(7) -0.0029(6) 0.0001(6) -0.0018(6)
C26 0.0465(8) 0.0324(8) 0.0278(7) -0.0015(6) 0.0003(6) -0.0032(6)
C27 0.0532(9) 0.0391(9) 0.0270(7) -0.0017(6) 0.0036(7) -0.0033(7)
C28 0.0511(9) 0.0386(8) 0.0311(8) -0.0079(6) 0.0038(7) -0.0013(7)
C29 0.0509(9) 0.0262(7) 0.0355(8) -0.0051(6) 0.0005(7) 0.0007(6)
C30 0.0433(8) 0.0289(7) 0.0300(7) -0.0020(6) 0.0006(6) -0.0011(6)
C31 0.0675(11) 0.0333(8) 0.0351(8) 0.0030(7) 0.0066(8) -0.0017(8)
C32 0.0773(13) 0.0478(10) 0.0388(9) -0.0129(8) 0.0102(9) 0.0032(9)
C33 0.0603(10) 0.0308(8) 0.0360(8) 0.0027(6) 0.0076(7) 0.0013(7)
C34 0.0406(8) 0.0327(7) 0.0251(7) -0.0028(6) -0.0027(6) -0.0001(6)
C35 0.0459(8) 0.0322(8) 0.0268(7) -0.0007(6) -0.0006(6) -0.0006(6)
C36 0.0435(8) 0.0385(8) 0.0296(7) -0.0013(6) 0.0023(6) -0.0022(7)
C37 0.0438(8) 0.0386(8) 0.0285(7) -0.0030(6) -0.0015(6) 0.0025(7)
C38 0.0502(9) 0.0293(7) 0.0340(8) 0.0012(6) -0.0009(7) 0.0014(7)
C39 0.0445(8) 0.0332(8) 0.0299(7) -0.0010(6) -0.0001(6) -0.0025(6)
C40 0.0594(10) 0.0354(9) 0.0428(9) 0.0048(7) 0.0101(8) 0.0011(7)
C41 0.0528(10) 0.0449(9) 0.0439(9) 0.0015(8) 0.0050(8) 0.0090(8)
C42 0.0554(10) 0.0390(9) 0.0483(10) 0.0044(7) 0.0110(8) -0.0029(8)
C43 0.0467(10) 0.0446(10) 0.0706(13) -0.0204(9) 0.0097(9) -0.0011(8)
C44 0.0851(14) 0.0454(10) 0.0567(12) -0.0074(9) 0.0323(11) -0.0063(10)
C45 0.0886(15) 0.0573(12) 0.0411(10) -0.0074(9) -0.0035(10) 0.0154(11)
C46 0.0519(11) 0.0569(12) 0.0803(15) -0.0190(11) -0.0038(10) -0.0061(9)
C47 0.0836(14) 0.0405(10) 0.0701(13) 0.0039(9) 0.0210(11) -0.0083(10)
C48 0.0758(13) 0.0418(10) 0.0472(10) -0.0062(8) -0.0096(9) 0.0145(9)
C49 0.0529(13) 0.135(3) 0.0873(19) -0.027(2) -0.0032(12) 0.0082(16)
C50 0.0661(15) 0.097(2) 0.115(3) 0.0043(19) 0.0061(16) 0.0093(14)
C51 0.0656(15) 0.092(2) 0.134(3) -0.047(2) 0.0074(17) 0.0009(14)
loop_
_atom_type_symbol
_atom_type_description
_atom_type_scat_dispersion_real
_atom_type_scat_dispersion_imag
_atom_type_scat_source
C C 0.0000 0.0000
;
International Tables for Crystallography
(Vol. C, Tables 4.2.6.8 and 6.1.1.4)
;
H H 0.0000 0.0000
;
International Tables for Crystallography
(Vol. C, Table 6.1.1.4)
;
loop_
_geom_angle_atom_site_label_1
_geom_angle_atom_site_label_2
_geom_angle_atom_site_label_3
_geom_angle
_geom_angle_site_symmetry_1
_geom_angle_site_symmetry_3
C2 C1 C24 121.02(13) . .
C2 C1 C13 119.64(13) . .
C24 C1 C13 119.33(13) . .
C3 C2 C1 120.05(13) . .
C3 C2 H2 120.0 . .
C1 C2 H2 120.0 . .
C2 C3 C4 131.52(14) . .
C2 C3 C11 119.90(13) . .
C4 C3 C11 108.58(13) . .
C5 C4 C3 107.13(12) . .
C5 C4 C25 125.10(13) . .
C3 C4 C25 127.71(13) . .
C6 C5 C4 130.71(13) . .
C6 C5 C10 119.59(14) . .
C4 C5 C10 109.68(12) . .
C7 C6 C5 118.68(14) . .
C7 C6 H6 120.7 . .
C5 C6 H6 120.7 . .
C6 C7 C8 121.37(14) . .
C6 C7 H7 119.3 . .
C8 C7 H7 119.3 . .
C9 C8 C7 121.00(15) . .
C9 C8 H8 119.5 . .
C7 C8 H8 119.5 . .
C8 C9 C10 118.85(14) . .
C8 C9 H9 120.6 . .
C10 C9 H9 120.6 . .
C9 C10 C5 120.51(13) . .
C9 C10 C11 132.05(13) . .
C5 C10 C11 107.43(13) . .
C12 C11 C10 132.38(14) . .
C12 C11 C3 120.46(13) . .
C10 C11 C3 107.16(12) . .
C11 C12 C13 120.48(14) . .
C11 C12 H12 119.8 . .
C13 C12 H12 119.8 . .
C12 C13 C14 121.07(14) . .
C12 C13 C1 119.42(13) . .
C14 C13 C1 119.50(13) . .
C15 C14 C13 120.50(14) . .
C15 C14 H14 119.7 . .
C13 C14 H14 119.7 . .
C14 C15 C16 132.13(14) . .
C14 C15 C23 120.72(13) . .
C16 C15 C23 107.15(13) . .
C17 C16 C21 120.20(14) . .
C17 C16 C15 132.16(15) . .
C21 C16 C15 107.55(13) . .
C18 C17 C16 118.69(15) . .
C18 C17 H17 120.7 . .
C16 C17 H17 120.7 . .
C17 C18 C19 121.54(15) . .
C17 C18 H18 119.2 . .
C19 C18 H18 119.2 . .
C20 C19 C18 121.03(15) . .
C20 C19 H19 119.5 . .
C18 C19 H19 119.5 . .
C19 C20 C21 118.67(15) . .
C19 C20 H20 120.7 . .
C21 C20 H20 120.7 . .
C20 C21 C22 130.54(15) . .
C20 C21 C16 119.84(14) . .
C22 C21 C16 109.61(13) . .
C21 C22 C23 107.15(13) . .
C21 C22 C34 124.67(13) . .
C23 C22 C34 128.16(13) . .
C24 C23 C22 131.63(14) . .
C24 C23 C15 119.81(14) . .
C22 C23 C15 108.54(12) . .
C23 C24 C1 120.13(13) . .
C23 C24 H24 119.9 . .
C1 C24 H24 119.9 . .
C26 C25 C30 119.92(13) . .
C26 C25 C4 119.15(13) . .
C30 C25 C4 120.90(13) . .
C27 C26 C25 119.30(14) . .
C27 C26 C31 119.55(14) . .
C25 C26 C31 121.14(14) . .
C28 C27 C26 121.52(15) . .
C28 C27 H27 119.2 . .
C26 C27 H27 119.2 . .
C27 C28 C29 118.36(14) . .
C27 C28 C32 120.58(15) . .
C29 C28 C32 121.03(15) . .
C30 C29 C28 122.15(14) . .
C30 C29 H29 118.9 . .
C28 C29 H29 118.9 . .
C29 C30 C25 118.74(14) . .
C29 C30 C33 120.03(13) . .
C25 C30 C33 121.16(13) . .
C26 C31 H31A 109.5 . .
C26 C31 H31B 109.5 . .
H31A C31 H31B 109.5 . .
C26 C31 H31C 109.5 . .
H31A C31 H31C 109.5 . .
H31B C31 H31C 109.5 . .
C28 C32 H32A 109.5 . .
C28 C32 H32B 109.5 . .
H32A C32 H32B 109.5 . .
C28 C32 H32C 109.5 . .
H32A C32 H32C 109.5 . .
H32B C32 H32C 109.5 . .
C28 C32 H32D 109.5 . .
C28 C32 H32E 109.5 . .
H32D C32 H32E 109.5 . .
C28 C32 H32F 109.5 . .
H32D C32 H32F 109.5 . .
H32E C32 H32F 109.5 . .
C30 C33 H33A 109.5 . .
C30 C33 H33B 109.5 . .
H33A C33 H33B 109.5 . .
C30 C33 H33C 109.5 . .
H33A C33 H33C 109.5 . .
H33B C33 H33C 109.5 . .
C39 C34 C35 119.85(14) . .
C39 C34 C22 120.14(14) . .
C35 C34 C22 119.95(13) . .
C36 C35 C34 119.32(14) . .
C36 C35 C40 120.61(15) . .
C34 C35 C40 120.05(14) . .
C37 C36 C35 121.78(15) . .
C37 C36 H36 119.1 . .
C35 C36 H36 119.1 . .
C38 C37 C36 117.81(15) . .
C38 C37 C41 120.84(15) . .
C36 C37 C41 121.34(15) . .
C39 C38 C37 122.41(14) . .
C39 C38 H38 118.8 . .
C37 C38 H38 118.8 . .
C38 C39 C34 118.83(15) . .
C38 C39 C42 120.31(14) . .
C34 C39 C42 120.87(14) . .
C35 C40 H40A 109.5 . .
C35 C40 H40B 109.5 . .
H40A C40 H40B 109.5 . .
C35 C40 H40C 109.5 . .
H40A C40 H40C 109.5 . .
H40B C40 H40C 109.5 . .
C37 C41 H41A 109.5 . .
C37 C41 H41B 109.5 . .
H41A C41 H41B 109.5 . .
C37 C41 H41C 109.5 . .
H41A C41 H41C 109.5 . .
H41B C41 H41C 109.5 . .
C39 C42 H42A 109.5 . .
C39 C42 H42B 109.5 . .
H42A C42 H42B 109.5 . .
C39 C42 H42C 109.5 . .
H42A C42 H42C 109.5 . .
H42B C42 H42C 109.5 . .
C48 C43 C44 119.85(18) . .
C48 C43 H43 120.1 . .
C44 C43 H43 120.1 . .
C45 C44 C43 120.47(19) . .
C45 C44 H44 119.8 . .
C43 C44 H44 119.8 . .
C44 C45 C46 119.97(19) . .
C44 C45 H45 120.0 . .
C46 C45 H45 120.0 . .
C45 C46 C47 119.65(19) . .
C45 C46 H46 120.2 . .
C47 C46 H46 120.2 . .
C48 C47 C46 119.57(19) . .
C48 C47 H47 120.2 . .
C46 C47 H47 120.2 . .
C43 C48 C47 120.49(18) . .
C43 C48 H48 119.8 . .
C47 C48 H48 119.8 . .
C50 C49 C51 118.9(3) . 3_775
C50 C49 H49 120.5 . .
C51 C49 H49 120.5 3_775 .
C51 C50 C49 121.2(3) . .
C51 C50 H50 119.4 . .
C49 C50 H50 119.4 . .
C50 C51 C49 119.9(3) . 3_775
C50 C51 H51 120.1 . .
C49 C51 H51 120.1 3_775 .
loop_
_geom_bond_atom_site_label_1
_geom_bond_atom_site_label_2
_geom_bond_distance
_geom_bond_site_symmetry_2
C1 C2 1.4143(19) .
C1 C24 1.421(2) .
C1 C13 1.443(2) .
C2 C3 1.387(2) .
C2 H2 0.9300 .
C3 C4 1.4364(19) .
C3 C11 1.449(2) .
C4 C5 1.424(2) .
C4 C25 1.478(2) .
C5 C6 1.411(2) .
C5 C10 1.430(2) .
C6 C7 1.377(2) .
C6 H6 0.9300 .
C7 C8 1.405(2) .
C7 H7 0.9300 .
C8 C9 1.383(2) .
C8 H8 0.9300 .
C9 C10 1.392(2) .
C9 H9 0.9300 .
C10 C11 1.446(2) .
C11 C12 1.372(2) .
C12 C13 1.412(2) .
C12 H12 0.9300 .
C13 C14 1.413(2) .
C14 C15 1.367(2) .
C14 H14 0.9300 .
C15 C16 1.445(2) .
C15 C23 1.447(2) .
C16 C17 1.393(2) .
C16 C21 1.429(2) .
C17 C18 1.383(2) .
C17 H17 0.9300 .
C18 C19 1.400(2) .
C18 H18 0.9300 .
C19 C20 1.376(2) .
C19 H19 0.9300 .
C20 C21 1.413(2) .
C20 H20 0.9300 .
C21 C22 1.423(2) .
C22 C23 1.438(2) .
C22 C34 1.480(2) .
C23 C24 1.385(2) .
C24 H24 0.9300 .
C25 C26 1.405(2) .
C25 C30 1.407(2) .
C26 C27 1.391(2) .
C26 C31 1.508(2) .
C27 C28 1.385(2) .
C27 H27 0.9300 .
C28 C29 1.391(2) .
C28 C32 1.503(2) .
C29 C30 1.386(2) .
C29 H29 0.9300 .
C30 C33 1.510(2) .
C31 H31A 0.9600 .
C31 H31B 0.9600 .
C31 H31C 0.9600 .
C32 H32A 0.9600 .
C32 H32B 0.9600 .
C32 H32C 0.9600 .
C32 H32D 0.9600 .
C32 H32E 0.9600 .
C32 H32F 0.9600 .
C33 H33A 0.9600 .
C33 H33B 0.9600 .
C33 H33C 0.9600 .
C34 C39 1.404(2) .
C34 C35 1.407(2) .
C35 C36 1.393(2) .
C35 C40 1.508(2) .
C36 C37 1.392(2) .
C36 H36 0.9300 .
C37 C38 1.392(2) .
C37 C41 1.504(2) .
C38 C39 1.392(2) .
C38 H38 0.9300 .
C39 C42 1.509(2) .
C40 H40A 0.9600 .
C40 H40B 0.9600 .
C40 H40C 0.9600 .
C41 H41A 0.9600 .
C41 H41B 0.9600 .
C41 H41C 0.9600 .
C42 H42A 0.9600 .
C42 H42B 0.9600 .
C42 H42C 0.9600 .
C43 C48 1.360(3) .
C43 C44 1.370(3) .
C43 H43 0.9300 .
C44 C45 1.361(3) .
C44 H44 0.9300 .
C45 C46 1.373(3) .
C45 H45 0.9300 .
C46 C47 1.382(3) .
C46 H46 0.9300 .
C47 C48 1.370(3) .
C47 H47 0.9300 .
C48 H48 0.9300 .
C49 C50 1.361(4) .
C49 C51 1.370(5) 3_775
C49 H49 0.9300 .
C50 C51 1.358(4) .
C50 H50 0.9300 .
C51 C49 1.370(5) 3_775
C51 H51 0.9300 .
loop_
_geom_torsion_atom_site_label_1
_geom_torsion_atom_site_label_2
_geom_torsion_atom_site_label_3
_geom_torsion_atom_site_label_4
_geom_torsion
_geom_torsion_site_symmetry_1
_geom_torsion_site_symmetry_4
C24 C1 C2 C3 177.81(13) . .
C13 C1 C2 C3 -1.1(2) . .
C1 C2 C3 C4 -178.51(14) . .
C1 C2 C3 C11 1.4(2) . .
C2 C3 C4 C5 179.43(15) . .
C11 C3 C4 C5 -0.46(16) . .
C2 C3 C4 C25 -3.2(3) . .
C11 C3 C4 C25 176.95(14) . .
C3 C4 C5 C6 -178.56(15) . .
C25 C4 C5 C6 3.9(2) . .
C3 C4 C5 C10 0.02(16) . .
C25 C4 C5 C10 -177.47(13) . .
C4 C5 C6 C7 178.24(15) . .
C10 C5 C6 C7 -0.2(2) . .
C5 C6 C7 C8 0.0(2) . .
C6 C7 C8 C9 0.4(2) . .
C7 C8 C9 C10 -0.6(2) . .
C8 C9 C10 C5 0.3(2) . .
C8 C9 C10 C11 -178.55(15) . .
C6 C5 C10 C9 0.1(2) . .
C4 C5 C10 C9 -178.70(13) . .
C6 C5 C10 C11 179.19(13) . .
C4 C5 C10 C11 0.42(16) . .
C9 C10 C11 C12 -0.9(3) . .
C5 C10 C11 C12 -179.92(15) . .
C9 C10 C11 C3 178.29(15) . .
C5 C10 C11 C3 -0.70(16) . .
C2 C3 C11 C12 0.2(2) . .
C4 C3 C11 C12 -179.94(13) . .
C2 C3 C11 C10 -179.19(13) . .
C4 C3 C11 C10 0.72(16) . .
C10 C11 C12 C13 177.18(15) . .
C3 C11 C12 C13 -2.0(2) . .
C11 C12 C13 C14 -176.60(14) . .
C11 C12 C13 C1 2.2(2) . .
C2 C1 C13 C12 -0.7(2) . .
C24 C1 C13 C12 -179.61(13) . .
C2 C1 C13 C14 178.15(13) . .
C24 C1 C13 C14 -0.8(2) . .
C12 C13 C14 C15 178.83(14) . .
C1 C13 C14 C15 0.0(2) . .
C13 C14 C15 C16 -178.10(15) . .
C13 C14 C15 C23 0.8(2) . .
C14 C15 C16 C17 3.2(3) . .
C23 C15 C16 C17 -175.80(16) . .
C14 C15 C16 C21 179.51(16) . .
C23 C15 C16 C21 0.52(17) . .
C21 C16 C17 C18 1.3(2) . .
C15 C16 C17 C18 177.25(16) . .
C16 C17 C18 C19 0.4(2) . .
C17 C18 C19 C20 -1.3(3) . .
C18 C19 C20 C21 0.5(3) . .
C19 C20 C21 C22 -177.08(16) . .
C19 C20 C21 C16 1.2(2) . .
C17 C16 C21 C20 -2.1(2) . .
C15 C16 C21 C20 -178.94(14) . .
C17 C16 C21 C22 176.50(14) . .
C15 C16 C21 C22 -0.35(17) . .
C20 C21 C22 C23 178.42(16) . .
C16 C21 C22 C23 0.04(17) . .
C20 C21 C22 C34 -0.2(3) . .
C16 C21 C22 C34 -178.60(14) . .
C21 C22 C23 C24 -178.37(15) . .
C34 C22 C23 C24 0.2(3) . .
C21 C22 C23 C15 0.29(17) . .
C34 C22 C23 C15 178.87(14) . .
C14 C15 C23 C24 -0.8(2) . .
C16 C15 C23 C24 178.35(13) . .
C14 C15 C23 C22 -179.63(14) . .
C16 C15 C23 C22 -0.51(16) . .
C22 C23 C24 C1 178.54(15) . .
C15 C23 C24 C1 0.0(2) . .
C2 C1 C24 C23 -178.14(13) . .
C13 C1 C24 C23 0.8(2) . .
C5 C4 C25 C26 68.9(2) . .
C3 C4 C25 C26 -108.10(17) . .
C5 C4 C25 C30 -109.24(17) . .
C3 C4 C25 C30 73.8(2) . .
C30 C25 C26 C27 0.6(2) . .
C4 C25 C26 C27 -177.49(14) . .
C30 C25 C26 C31 -178.30(15) . .
C4 C25 C26 C31 3.6(2) . .
C25 C26 C27 C28 -0.8(2) . .
C31 C26 C27 C28 178.18(16) . .
C26 C27 C28 C29 0.1(2) . .
C26 C27 C28 C32 177.93(16) . .
C27 C28 C29 C30 0.8(2) . .
C32 C28 C29 C30 -177.03(16) . .
C28 C29 C30 C25 -1.0(2) . .
C28 C29 C30 C33 176.04(15) . .
C26 C25 C30 C29 0.2(2) . .
C4 C25 C30 C29 178.30(14) . .
C26 C25 C30 C33 -176.76(14) . .
C4 C25 C30 C33 1.3(2) . .
C21 C22 C34 C39 85.30(19) . .
C23 C22 C34 C39 -93.04(19) . .
C21 C22 C34 C35 -92.03(18) . .
C23 C22 C34 C35 89.63(19) . .
C39 C34 C35 C36 0.3(2) . .
C22 C34 C35 C36 177.64(13) . .
C39 C34 C35 C40 -178.40(14) . .
C22 C34 C35 C40 -1.1(2) . .
C34 C35 C36 C37 -0.5(2) . .
C40 C35 C36 C37 178.19(14) . .
C35 C36 C37 C38 0.3(2) . .
C35 C36 C37 C41 -178.79(14) . .
C36 C37 C38 C39 0.1(2) . .
C41 C37 C38 C39 179.18(14) . .
C37 C38 C39 C34 -0.2(2) . .
C37 C38 C39 C42 179.56(14) . .
C35 C34 C39 C38 0.1(2) . .
C22 C34 C39 C38 -177.27(13) . .
C35 C34 C39 C42 -179.75(14) . .
C22 C34 C39 C42 2.9(2) . .
C48 C43 C44 C45 -0.8(3) . .
C43 C44 C45 C46 0.5(3) . .
C44 C45 C46 C47 0.1(3) . .
C45 C46 C47 C48 -0.5(3) . .
C44 C43 C48 C47 0.3(3) . .
C46 C47 C48 C43 0.3(3) . .
C51 C49 C50 C51 0.4(5) 3_775 .
C49 C50 C51 C49 -0.4(5) . 3_775
